#------------------------------------------------------------------------------
#$Date: 2019-11-25 22:32:00 +0200 (Mon, 25 Nov 2019) $
#$Revision: 241968 $
#$URL: file:///home/coder/svn-repositories/cod/cif/4/13/18/4131850.cif $
#------------------------------------------------------------------------------
#
# This file is available in the Crystallography Open Database (COD),
# http://www.crystallography.net/
#
# All data on this site have been placed in the public domain by the
# contributors.
#
data_4131850
loop_
_publ_author_name
'Yan, Yong'
'O'Connor, Alice E'
'Kanthasamy, Gopikkaa'
'Atkinson, George'
'Allan, David R.'
'Blake, Alexander J.'
'Schr\"oder, Martin'
_publ_section_title
;
 Unusual and Tunable Negative Linear Compressibility in the Metal-Organic
 Framework MFM-133(M) (M = Zr, Hf).
;
_journal_issue                   11
_journal_name_full               'Journal of the American Chemical Society'
_journal_page_first              3952
_journal_page_last               3958
_journal_paper_doi               10.1021/jacs.7b11747
_journal_volume                  140
_journal_year                    2018
_chemical_formula_moiety         '0.25(C184 H136 O64 Zr12)'
_chemical_formula_sum            'C46 H34 O16 Zr3'
_chemical_formula_weight         1116.39
_space_group_crystal_system      tetragonal
_space_group_IT_number           128
_space_group_name_Hall           '-P 4 2n'
_space_group_name_H-M_alt        'P 4/m n c'
_atom_sites_solution_hydrogens   geom
_atom_sites_solution_primary     direct
_audit_creation_date             2016-08-31
_audit_creation_method
;
Olex2 1.2
(compiled 2016.08.25 svn.r3337 for OlexSys, GUI svn.r5221)
;
_cell_angle_alpha                90
_cell_angle_beta                 90
_cell_angle_gamma                90
_cell_formula_units_Z            4
_cell_length_a                   19.3348(12)
_cell_length_b                   19.3348(12)
_cell_length_c                   32.768(5)
_cell_measurement_reflns_used    2218
_cell_measurement_temperature    293.15
_cell_measurement_theta_max      22.2320
_cell_measurement_theta_min      2.0720
_cell_volume                     12250(2)
_computing_cell_refinement
;
CrysAlisPro, Agilent Technologies,
Version 1.171.37.34 (release 22-05-2014 CrysAlis171 .NET)
(compiled May 22 2014,16:03:01)
;
_computing_data_collection
;
CrysAlisPro, Agilent Technologies,
Version 1.171.37.34 (release 22-05-2014 CrysAlis171 .NET)
(compiled May 22 2014,16:03:01)
;
_computing_data_reduction
;
CrysAlisPro, Agilent Technologies,
Version 1.171.37.34 (release 22-05-2014 CrysAlis171 .NET)
(compiled May 22 2014,16:03:01)
;
_computing_molecular_graphics    'Olex2 (Dolomanov et al., 2009)'
_computing_publication_material  'Olex2 (Dolomanov et al., 2009)'
_computing_structure_refinement  'ShelXL (Sheldrick, 2015)'
_computing_structure_solution    'ShelXS (Sheldrick, 2008)'
_diffrn_ambient_temperature      293.15
_diffrn_detector                 Dectris
_diffrn_detector_area_resol_mean 5.81395
_diffrn_detector_type            'Pilatus 300K detector'
_diffrn_measured_fraction_theta_full 0.765
_diffrn_measured_fraction_theta_max 0.765
_diffrn_measurement_details
;
#__ type_ start__ end____ width___ exp.time_
  1 omega -105.00  -74.00   0.2000    0.9970
omega____ theta____ kappa____ phi______ frames
    -       20.0000   70.0000  155.7700 155

#__ type_ start__ end____ width___ exp.time_
  2 omega -105.00  -74.00   0.2000    0.9970
omega____ theta____ kappa____ phi______ frames
    -       20.0000   70.0000  -24.2300 155

#__ type_ start__ end____ width___ exp.time_
  3 omega -106.00  -66.00   0.2000    0.9970
omega____ theta____ kappa____ phi______ frames
    -      -20.0000  -70.0000 -155.7700 200

#__ type_ start__ end____ width___ exp.time_
  4 omega -106.00  -66.00   0.2000    0.9970
omega____ theta____ kappa____ phi______ frames
    -      -20.0000  -70.0000   24.2300 200

#__ type_ start__ end____ width___ exp.time_
  5 omega -150.00  -94.00   0.2000    0.9970
omega____ theta____ kappa____ phi______ frames
    -      -20.0000   70.0000  -24.2319 280

#__ type_ start__ end____ width___ exp.time_
  6 omega -150.00  -94.00   0.2000    0.9970
omega____ theta____ kappa____ phi______ frames
    -      -20.0000   70.0000  155.7681 280

#__ type_ start__ end____ width___ exp.time_
  7 omega  -96.00  -30.00   0.2000    0.9970
omega____ theta____ kappa____ phi______ frames
    -       20.0000  -70.0000   24.2300 330

#__ type_ start__ end____ width___ exp.time_
  8 omega  -96.00  -30.00   0.2000    0.9970
omega____ theta____ kappa____ phi______ frames
    -       20.0000  -70.0000 -155.7700 330
;
_diffrn_measurement_device       'k-geometry diffractometer'
_diffrn_measurement_device_type
'Newport 4-circle kappa geometry diffractometer'
_diffrn_measurement_method       'oscillation method'
_diffrn_orient_matrix_UB_11      0.0012960000
_diffrn_orient_matrix_UB_12      -0.0317471000
_diffrn_orient_matrix_UB_13      -0.0094373000
_diffrn_orient_matrix_UB_21      -0.0160321000
_diffrn_orient_matrix_UB_22      0.0138042000
_diffrn_orient_matrix_UB_23      -0.0169514000
_diffrn_orient_matrix_UB_31      0.0318118000
_diffrn_orient_matrix_UB_32      0.0081679000
_diffrn_orient_matrix_UB_33      -0.0081593000
_diffrn_radiation_collimation    '0.5 mm pinhole'
_diffrn_radiation_monochromator  'Si 111 double-crystal monochromator'
_diffrn_radiation_probe          x-ray
_diffrn_radiation_wavelength     0.6889
_diffrn_reflns_av_R_equivalents  0.8004
_diffrn_reflns_av_unetI/netI     0.6238
_diffrn_reflns_Laue_measured_fraction_full 0.765
_diffrn_reflns_Laue_measured_fraction_max 0.765
_diffrn_reflns_limit_h_max       21
_diffrn_reflns_limit_h_min       -21
_diffrn_reflns_limit_k_max       14
_diffrn_reflns_limit_k_min       -14
_diffrn_reflns_limit_l_max       34
_diffrn_reflns_limit_l_min       -35
_diffrn_reflns_number            24054
_diffrn_reflns_point_group_measured_fraction_full 0.765
_diffrn_reflns_point_group_measured_fraction_max 0.765
_diffrn_reflns_theta_full        22.719
_diffrn_reflns_theta_max         22.719
_diffrn_reflns_theta_min         1.880
_diffrn_source                   'Synchrotron U21 undulator'
_diffrn_source_type              'Synchrotron Diamond Light Source'
_exptl_absorpt_coefficient_mu    0.256
_exptl_absorpt_correction_T_max  0.4269
_exptl_absorpt_correction_T_min  0.2358
_exptl_absorpt_correction_type   multi-scan
_exptl_absorpt_process_details
;
SADABS-2014/5 (Bruker,2014/5) was used for absorption correction. 
wR2(int) was 0.1745 before and 0.1272 after correction. 
The Ratio of minimum to maximum transmission is 0.5524. 
The \l/2 correction factor is Not present.
;
_exptl_crystal_colour            'clear colourless'
_exptl_crystal_colour_lustre     clear
_exptl_crystal_colour_primary    colourless
_exptl_crystal_density_diffrn    0.605
_exptl_crystal_description       octahedral
_exptl_crystal_F_000             2232
_exptl_crystal_size_max          0.11
_exptl_crystal_size_mid          0.11
_exptl_crystal_size_min          0.0806
_refine_diff_density_max         1.416
_refine_diff_density_min         -1.506
_refine_diff_density_rms         0.171
_refine_ls_extinction_method     none
_refine_ls_goodness_of_fit_ref   1.301
_refine_ls_hydrogen_treatment    constr
_refine_ls_matrix_type           full
_refine_ls_number_parameters     71
_refine_ls_number_reflns         3547
_refine_ls_number_restraints     73
_refine_ls_restrained_S_all      1.296
_refine_ls_R_factor_all          0.3788
_refine_ls_R_factor_gt           0.2144
_refine_ls_shift/su_max          0.000
_refine_ls_shift/su_mean         0.000
_refine_ls_structure_factor_coef Fsqd
_refine_ls_weighting_details
'w=1/[\s^2^(Fo^2^)+(0.2000P)^2^] where P=(Fo^2^+2Fc^2^)/3'
_refine_ls_weighting_scheme      calc
_refine_ls_wR_factor_gt          0.4531
_refine_ls_wR_factor_ref         0.5525
_reflns_Friedel_coverage         0.000
_reflns_number_gt                1058
_reflns_number_total             3547
_reflns_threshold_expression     'I > 2\s(I)'
_cod_data_source_file            ZrMOF_All.cif
_cod_data_source_block           14.9kbar
_cod_database_code               4131850
_chemical_oxdiff_formula         'C46 H42 O16 Zr3'
_shelx_space_group_comment
;
The symmetry employed for this shelxl refinement is uniquely defined
by the following loop, which should always be used as a source of
symmetry information in preference to the above space-group names.
They are only intended as comments.
;
_reflns_odcompleteness_completeness 74.97
_reflns_odcompleteness_iscentric 1
_reflns_odcompleteness_theta     22.88
_olex2_refinement_description
;
1. Fixed Uiso
 At 1.2 times of:
  All C(H) groups
 At 1.5 times of:
  All C(H,H,H) groups
2. Restrained distances
 C2-C7 = C3-C2 = C4-C3 = C4-C5 = C6-C5 = C7-C6
 1.39 with sigma of 0.01
 C8-C9 = C8-C11 = C12-C11
 1.39 with sigma of 0.01
 C2-C1
 1.5 with sigma of 0.02
 C10-C9
 1.5 with sigma of 0.02
 C8-C5
 1.5 with sigma of 0.01
 C12-C12_$2
 1.5 with sigma of 0.01
 C13-C11
 1.5 with sigma of 0.01
 C4-C5 \\sim C2-C7 \\sim C3-C2 \\sim C4-C3 \\sim C6-C5 \\sim C7-C6
 with sigma of 0.02
3. Restrained planarity
 C2_$1, C3_$1, C4_$1, C5_$1, C6_$1, C7_$1, C8_$1, C11, C13, C1_$1
 with sigma of 0.1
 C1, C2, C3, C4, C5, C6, C7, C8, C11_$1
 with sigma of 0.1
 C1_$2, C2_$2, C7_$2, C6_$2, C5_$2, C4_$2, C3_$2, C8_$2, C11_$3, C13_$3
 with sigma of 0.1
 C1_$3, C3_$3, C4_$3, C5_$3, C6_$3, C7_$3, C2_$3, C8_$3, C11_$2, C13_$2
 with sigma of 0.1
 C10, C9, C12, C12_$2, C9_$2, C10_$2
 with sigma of 0.1
4. Uiso/Uaniso restraints and constraints
All non-hydrogen atoms have similar U: within 2A with sigma of 0.02 and sigma
for terminal atoms of 0.04
5. Others
 Fixed Sof: H10A(0.5) H10B(0.5) H10C(0.5)
6.a Me refined with riding coordinates:
 C10(H10A,H10B,H10C)
6.b Aromatic/amide H refined with riding coordinates:
 C3(H3), C4(H4), C7(H7), C6(H6)
6.c Idealised Me refined as rotating group:
 C13(H13A,H13B,H13C)
;
_shelx_res_file
;
    14.9kbar.res created by SHELXL-2014/7

TITL g2yy_3xnew2 in P4/mnc
CELL 0.6889 19.33483 19.33483 32.76755 90 90 90
ZERR 4 0.00118 0.00118 0.00507 0 0 0
LATT 1
SYMM -X,-Y,+Z
SYMM -Y,+X,+Z
SYMM +Y,-X,+Z
SYMM 0.5-X,0.5+Y,0.5-Z
SYMM 0.5+X,0.5-Y,0.5-Z
SYMM 0.5+Y,0.5+X,0.5-Z
SYMM 0.5-Y,0.5-X,0.5-Z
SFAC C H O Zr
DISP C 0.003 0.001 10.848
DISP H -0 0 0.623
DISP O 0.011 0.006 30.192
DISP Zr -11.605 0.551 2275.752
UNIT 184 136 64 12
EQIV $1 -0.5+Y,0.5+X,0.5-Z
EQIV $2 0.5-Y,0.5-X,0.5-Z
EQIV $3 -X,1-Y,+Z
DFIX 1.39 0.01 C2 C7 C3 C2 C4 C3 C4 C5 C6 C5 C7 C6
DFIX 1.39 0.01 C8 C9 C8 C11 C12 C11
DFIX 1.5 C2 C1
DFIX 1.5 C10 C9
DFIX 1.5 0.01 C8 C5
DFIX 1.5 0.01 C12 C12_$2
DFIX 1.5 0.01 C13 C11
SADI C4 C5 C2 C7 C3 C2 C4 C3 C6 C5 C7 C6
FLAT C2_$1 C3_$1 C4_$1 C5_$1 C6_$1 C7_$1 C8_$1 C11 C13 C1_$1
FLAT C1 C2 C3 C4 C5 C6 C7 C8 C11_$1
FLAT C1_$2 C2_$2 C7_$2 C6_$2 C5_$2 C4_$2 C3_$2 C8_$2 C11_$3 C13_$3
FLAT C1_$3 C3_$3 C4_$3 C5_$3 C6_$3 C7_$3 C2_$3 C8_$3 C11_$2 C13_$2
FLAT C10 C9 C12 C12_$2 C9_$2 C10_$2
SIMU 0.02 0.04 2

L.S. 5 0 278
PLAN  20
TEMP 20
BOND
MORE -1
BOND $H
CONF
ABIN
fmap 2
acta
REM <olex2.extras>
REM <HklSrc "%.\\14.9kbar.hkl">
REM </olex2.extras>

WGHT    0.200000
FVAR       0.14819
ZR1   4    0.121608    0.045939    0.000000    10.50000    0.00898
ZR2   4    0.000000    0.000000    0.074668    10.25000    0.00229
O5    3   -0.026312    0.092670    0.110920    11.00000    0.05688
O2    3    0.170310    0.064669   -0.062436    11.00000    0.08399
O4    3    0.038690    0.084461    0.035989    11.00000    0.07382
O3    3    0.157960    0.147700    0.000000    10.50000    0.09502
O1    3    0.226960   -0.021225    0.000000    10.50000    0.12241
C11   1   -0.024463    0.416395    0.222553    11.00000    0.07152
C3    1   -0.044603    0.190377    0.171931    11.00000    0.10901
AFIX  43
H3    2   -0.029508    0.146673    0.179752    11.00000   -1.20000
AFIX   0
C12   1   -0.027549    0.472451    0.250000    10.50000    0.08885
C1    1   -0.057517    0.145181    0.102028    11.00000    0.08117
C4    1   -0.049402    0.244269    0.199815    11.00000    0.12451
AFIX  43
H4    2   -0.033664    0.236655    0.226256    11.00000   -1.20000
AFIX   0
C8    1   -0.078143    0.367383    0.221453    11.00000    0.08695
C13   1    0.037671    0.411859    0.193840    11.00000    0.10468
AFIX 137
H13A  2    0.022023    0.401010    0.166782    11.00000   -1.50000
H13B  2    0.068512    0.376304    0.203167    11.00000   -1.50000
H13C  2    0.061502    0.455414    0.193535    11.00000   -1.50000
AFIX   0
C2    1   -0.063366    0.204584    0.131750    11.00000    0.10253
C5    1   -0.076570    0.309309    0.190344    11.00000    0.10167
C7    1   -0.086421    0.270631    0.121779    11.00000    0.13344
AFIX  43
H7    2   -0.098475    0.279446    0.094800    11.00000   -1.20000
AFIX   0
C9    1   -0.131790    0.368210    0.250000    10.50000    0.07608
C6    1   -0.092472    0.324312    0.149927    11.00000    0.12288
AFIX  43
H6    2   -0.106549    0.368306    0.142012    11.00000   -1.20000
AFIX   0
C10   1   -0.186084    0.313916    0.250000    10.50000    0.10060
PART -1
AFIX  33
H10A  2   -0.177169    0.281595    0.228391    10.50000   -1.50000
H10B  2   -0.185670    0.290096    0.275704    10.50000   -1.50000
H10C  2   -0.230522    0.334948    0.245905    10.50000   -1.50000
AFIX   0
HKLF 4

REM  g2yy_3xnew2 in P4/mnc
REM R1 =  0.2144 for    1058 Fo > 4sig(Fo)  and  0.3788 for all    3547 data
REM     71 parameters refined using     73 restraints

END

WGHT      0.2000      0.0000

REM Highest difference peak  1.416,  deepest hole -1.506,  1-sigma level  0.171
Q1    1   0.2901  0.0160  0.0000  10.50000  0.05    1.18
Q2    1   0.2182  0.2124  0.0000  10.50000  0.05    1.07
Q3    1   0.2483 -0.1007 -0.0289  11.00000  0.05    0.81
Q4    1   0.1983  0.2110  0.0384  11.00000  0.05    0.76
Q5    1   0.2104  0.1393  0.0000  10.50000  0.05    0.74
Q6    1   0.1548  0.2265 -0.0300  11.00000  0.05    0.73
Q7    1   0.1617  0.1519  0.0187  11.00000  0.05    0.72
Q8    1   0.0220  0.0561  0.0295  11.00000  0.05    0.70
Q9    1   0.1153  0.1270 -0.0407  11.00000  0.05    0.65
Q10   1   0.2429 -0.0591 -0.0377  11.00000  0.05    0.63
Q11   1  -0.0117  0.2112  0.1799  11.00000  0.05    0.62
Q12   1  -0.0699  0.2777  0.0798  11.00000  0.05    0.62
Q13   1  -0.0168  0.2160  0.2319  11.00000  0.05    0.60
Q14   1   0.0004  0.2608  0.1581  11.00000  0.05    0.60
Q15   1  -0.0180  0.2563  0.2096  11.00000  0.05    0.59
Q16   1   0.2251  0.0351  0.0000  10.50000  0.05    0.59
Q17   1  -0.0481  0.0781  0.0997  11.00000  0.05    0.57
Q18   1   0.2207  0.1419 -0.0384  11.00000  0.05    0.56
Q19   1  -0.1066  0.1753  0.1859  11.00000  0.05    0.56
Q20   1  -0.1166  0.2635  0.0607  11.00000  0.05    0.55
;
_shelx_res_checksum              48844
_shelx_hkl_file
;
  -2  -1   0  214.60   65.03
  -2  -1   0  230.72   67.40
   2   1   0  191.98   71.14
   2   0   0    0.18    1.68
  -3  -2   0    0.73   13.52
   3   2   0    5.92   17.03
   3   2   0    5.36   10.21
  -3  -1   0   34.38   16.51
  -3  -1   0   50.44   13.56
   3   1   0   36.32   16.69
   3   1   0   36.36   13.66
   3   1   0   37.20   20.49
   3   1   0   28.98   13.05
  -3   0   0    2.46    9.36
   3   0   0    1.13    8.96
   3   0   0    0.17    9.08
   3  -1   0   34.86   18.39
  -4  -2   0  156.74   83.19
   4   2   0  260.07   94.22
   4   2   0  194.75   82.55
   4   1   0 1316.22  407.29
   4   1   0  938.72  508.52
  -4  -1   0 1022.07  444.51
   4   1   0 1238.69  448.17
   4   1   0 1306.93  428.76
  -4  -1   0 1315.34  423.08
  -4   0   0  136.10   47.73
   4   0   0   90.26   44.70
   4   0   0  129.26   43.38
  -4   0   0  108.06   46.87
   4   0   0   56.99   47.04
   4   0   0  144.63   36.71
   4  -1   0 1119.03  454.58
   5   3   0    3.37   23.18
  -5  -3   0   -4.79   32.12
   5   2   0 1753.32  586.19
   5   2   0 1846.71  610.85
  -5  -2   0 1018.60  586.26
   5   2   0 1640.76  679.44
  -5  -2   0 1968.53  605.70
  -5  -1   0   36.42   21.86
   5   1   0   17.68   29.15
  -5  -1   0   46.10   13.43
   5   1   0   50.64   25.30
   5   1   0   26.72   12.52
   5   1   0   36.76   13.28
   5   0   0   -1.57    5.27
  -5   0   0    0.17    6.35
   5   0   0   -0.49   19.26
   5   0   0   -1.74    2.68
  -5   0   0   -8.01   21.09
   5   0   0   -0.53   17.36
  -5   1   0   63.93   21.04
   5  -1   0   34.97   26.27
   5  -1   0   22.25   10.70
   5  -2   0 1822.52  664.25
   6   4   0  -11.58   46.15
   6   3   0  140.02   68.22
  -6  -2   0   96.98   43.55
   6   2   0  131.68   42.69
  -6  -1   0 1962.22  646.51
   6   1   0 1740.80  657.63
   6   0   0   -1.43    8.01
   6   0   0    8.64    3.99
  -6   0   0    2.62    8.96
   6  -1   0 2054.81  507.36
  -6   1   0 1840.94  562.61
   6  -1   0  704.16  606.94
   6  -2   0  198.64   75.64
   6  -3   0   60.29   57.89
   7   4   0  155.81   62.56
  -7  -4   0  -48.12   48.38
  -7  -3   0  421.47  187.92
   7   3   0  499.67  175.62
   7   3   0  530.52  211.90
  -7  -2   0  499.62  164.71
  -7  -2   0  403.87  167.31
   7   2   0  405.42  161.31
   7   2   0  577.89  189.06
   7   2   0  467.01  157.01
  -7  -1   0  268.40   80.06
  -7  -1   0  257.30   84.50
  -7  -1   0  247.01   86.78
   7   1   0  138.92   81.22
   7   1   0  332.46   86.99
   7   1   0  144.76   92.84
  -7   0   0    2.76   34.25
   7   0   0    4.30    4.72
   7   0   0  -27.06   30.03
   7   0   0    1.15    8.90
   7   0   0   -0.73   31.76
  -7   0   0   -0.54    9.92
  -7   0   0    1.41    6.63
   7  -1   0  209.91   82.31
  -7   1   0  265.14   74.72
   7  -1   0  120.31   80.03
   7  -1   0  193.01   63.60
   7  -2   0  487.93  179.36
   7  -2   0  443.18  156.18
   7  -3   0  506.07  205.99
  -7   4   0  133.16   58.57
   8   5   0   37.22   69.63
   8   4   0  807.31  224.55
  -8  -4   0  117.91  228.08
   8   4   0  725.03  264.70
   8   3   0  239.02   79.73
   8   3   0  231.87   95.37
   8   2   0  607.44  210.94
   8   2   0  529.33  203.59
   8   2   0  442.53  208.79
  -8  -2   0  863.28  214.60
   8   2   0  499.14  236.96
  -8  -1   0   48.16   16.88
   8   1   0   20.07   14.92
   8   1   0   48.66   42.13
   8   1   0   45.38   43.14
   8   1   0   32.46   16.60
  -8  -1   0   29.86   18.22
  -8  -1   0   34.78   37.85
  -8   0   0  142.19   59.89
  -8   0   0  154.96   43.42
  -8   0   0   81.14   53.43
   8   0   0  160.47   58.92
  -8   0   0  112.19   53.23
   8   0   0   50.01   58.03
   8   0   0  104.53   45.29
   8   0   0  140.52   40.09
   8  -1   0   49.50   41.74
  -8   1   0   31.00   35.23
   8  -1   0   45.50   48.21
   8  -1   0   58.39   17.60
   8  -2   0  621.40  162.18
   8  -2   0  381.56  195.84
  -8   2   0  475.70  173.84
   8  -2   0  365.66  197.35
   8  -3   0  230.61   95.47
   8  -4   0  628.58  265.19
   9   5   0  589.55  266.54
   9   4   0  233.75   69.01
  -9  -4   0   21.63   93.76
   9   4   0  131.68  108.99
   9   4   0  214.07   79.87
  -9  -3   0 1153.03  481.46
   9   3   0 1031.23  552.67
   9   3   0 1374.17  470.08
  -9  -2   0   34.80   19.96
   9   2   0   36.73   16.65
  -9  -2   0   43.78   45.40
   9   2   0   18.86   16.69
   9   2   0   87.60   40.38
   9   2   0   30.97   57.05
  -9  -1   0  129.80   34.12
   9   1   0   64.78   31.48
   9   1   0  116.59   56.59
   9   1   0   69.29   33.45
  -9  -1   0  105.43   53.91
   9   1   0  109.26   55.11
  -9  -1   0   78.68   36.79
  -9   0   0    3.37   10.67
   9   0   0    2.02   46.00
  -9   0   0   11.38   46.86
   9   0   0    0.39   12.14
   9   0   0   57.07   43.65
  -9   0   0    8.81   36.32
  -9   0   0   -7.47   14.31
   9   0   0    2.00    7.40
   9  -1   0   44.46   52.58
   9  -1   0   76.02   61.24
   9  -1   0   82.16   25.39
  -9   1   0   56.93   45.81
  -9   1   0   90.02   68.48
   9  -2   0   51.17   15.88
  -9   2   0   11.52   37.73
   9  -2   0   20.43   64.33
   9  -2   0   24.24   61.28
   9  -3   0 1370.55  553.91
   9  -4   0  196.82  113.64
  10   5   0   43.65   25.86
 -10  -5   0    2.57   73.12
  10   5   0   61.62   91.63
  10   4   0 1072.94  348.26
  10   4   0  926.07  346.64
  10   4   0 1278.91  409.91
 -10  -4   0  500.46  362.79
 -10  -3   0    1.90   65.65
  10   3   0   12.96   44.23
  10   3   0   66.32   76.42
 -10  -2   0  294.03  151.36
  10   2   0  382.69  163.82
 -10  -2   0  665.31  153.73
  10   2   0  372.30  148.65
  10   1   0   -1.16   49.02
  10   1   0   40.34   58.52
 -10  -1   0   78.22   49.98
  10   0   0   25.41   52.54
 -10   0   0   23.39   54.85
  10   0   0   13.64   49.55
 -10   0   0  -23.55   43.53
 -10   1   0   13.84   69.99
  10  -1   0   63.15   55.26
  10  -1   0   59.61   64.94
 -10   1   0   55.81   45.40
  10  -2   0  429.83  151.62
 -10   2   0  489.69  132.66
  10  -2   0  235.93  149.36
 -10   3   0   53.49   44.23
  10  -3   0  117.63   89.96
  10  -3   0  -30.88   83.97
  10  -4   0 1299.29  465.57
  11   6   0  261.69  159.11
  11   5   0   72.47   63.42
  11   5   0   69.07  112.53
 -11  -5   0   -2.84   89.11
 -11  -4   0   16.02   84.11
  11   4   0   33.65   53.50
  11   4   0  -70.50   97.01
  11   3   0  608.47  234.17
  11   3   0  577.73  278.05
 -11  -3   0  638.28  250.19
 -11  -2   0  -23.98   58.90
  11   2   0   61.59   52.10
  11   2   0  -28.05   65.09
  11   1   0   12.68   58.27
  11   1   0   47.13   65.89
 -11  -1   0    1.52   59.23
 -11   0   0   42.21   50.21
  11   0   0   42.66   59.83
 -11   0   0   11.69   63.69
  11   0   0  -43.18   64.34
  11  -1   0   59.27   71.91
 -11   1   0    7.86   51.38
  11  -1   0   72.00   66.33
 -11   1   0  100.06   82.60
 -11   2   0   28.43   48.64
  11  -2   0  -62.61   77.80
  11  -2   0  281.23   83.50
  11  -3   0  375.82  260.98
 -11   3   0  552.33  228.06
  11  -3   0  912.70  268.99
  11  -4   0 -183.14  107.05
  11  -5   0  344.69  159.79
  12   6   0  325.54  192.05
 -12  -5   0    3.14   97.64
  12   5   0  103.10   67.10
  12   5   0   62.89  120.65
  12   4   0  455.64  133.21
  12   4   0  216.27  171.83
 -12  -4   0  241.35  158.85
  12   3   0 -118.80   63.21
  12   3   0 -184.45   95.36
 -12  -3   0    7.24   93.61
 -12  -2   0  182.04  133.66
 -12  -1   0   -3.56   73.44
  12   1   0 -164.55   77.97
 -12  -1   0   37.28   62.38
 -12   0   0   58.88   67.11
 -12   0   0  106.91   84.90
  12  -1   0  -36.65   84.76
 -12   1   0   52.73   57.46
 -12   1   0   92.70   88.61
  12  -2   0  548.63  206.00
 -12   2   0  106.20  179.62
  12  -2   0 1019.15  203.00
 -12   2   0  154.04  224.13
  12  -3   0 -218.85  112.68
 -12   3   0  -38.89   60.75
 -12   4   0  254.02  112.80
  12  -4   0  196.07  157.56
  12  -4   0  221.99  165.58
  12  -5   0   11.47  130.06
 -13  -5   0   48.57  215.65
  13   5   0   69.99  180.07
  13   4   0    1.49   62.69
  13   4   0  -55.67  108.89
 -13  -4   0  -31.99  108.71
 -13  -3   0  206.58  105.00
  13   3   0   81.95   69.89
  13   3   0   48.88   99.40
  13   2   0   66.46   77.92
  13   2   0   54.09   94.80
 -13  -2   0  118.71   97.39
  13   1   0   57.21   80.72
 -13  -1   0   32.36   78.47
 -13  -1   0   14.87   68.32
  13   1   0   -4.65   77.92
 -13   0   0   43.78   89.38
  13   0   0   -6.62   75.42
  13   0   0 -145.97   87.85
 -13   0   0   12.32   66.97
  13  -1   0  -56.76   94.94
  13  -1   0 -135.91   87.52
 -13   1   0  -94.06  103.01
 -13   1   0   44.11   60.69
  13  -2   0  -86.72  117.22
 -13   2   0  173.38   77.38
 -13   2   0  217.80  136.09
  13  -3   0   91.59  123.92
  14   6   0   81.63  149.70
 -14  -6   0  -15.90  116.02
  14   5   0   16.07  147.56
  14  -2   0   78.04  109.94
 -14   2   0   27.62   68.66
  14  -3   0  995.85  210.79
 -14   3   0    2.94  170.49
 -14   3   0  825.15  237.67
 -14   4   0  122.29   82.43
  14  -4   0  114.24  143.21
  14  -4   0  200.95  156.08
  14  -5   0  447.42  212.63
 -15  -6   0 -152.78  130.08
  15   6   0  -11.37  162.59
  15   5   0  117.08   90.01
 -15  -5   0   29.65  142.26
  15   5   0   88.99  145.26
  15   4   0  -16.73  112.50
  15   4   0  160.82   80.54
 -15  -4   0  -79.52  139.74
  15   3   0  -45.00   82.88
  15   3   0  144.52  115.29
 -15  -3   0  255.10  134.34
  15   2   0 -225.63   87.73
 -15  -2   0  -67.57   94.19
 -15  -2   0  -67.85  113.68
 -15  -1   0 -197.49  114.11
 -15  -1   0    9.44   92.22
 -15   0   0 -133.21   89.31
 -15   0   0   44.95  118.98
  15   0   0 -175.06  114.34
  15  -1   0 -353.43  141.87
 -15   1   0   18.42   81.12
  15  -1   0 -276.46  127.10
 -15   1   0  259.22  137.52
  15  -2   0   39.79  125.94
 -15   2   0  101.86   77.05
  15  -2   0   71.12  135.47
 -15   2   0  -71.35  149.97
  15  -3   0 -139.76  148.85
 -15   3   0  110.75   83.92
 -15   3   0  409.07  180.21
  15  -3   0  197.68  152.59
  15  -4   0    6.59  144.27
 -15   4   0  -14.05   72.32
  15  -4   0    3.30  159.13
  15  -5   0   25.58  184.63
 -15   5   0  279.75  100.46
  15  -5   0  156.71  171.29
  16   7   0   95.08  196.90
 -16  -6   0   43.18  149.31
  16   6   0  151.54  174.02
 -16  -5   0   60.95  153.55
  16   5   0  119.08  140.26
  16   5   0   29.68   87.30
 -16  -4   0  -17.76  159.30
  16   4   0   23.54   82.23
  16   4   0  -36.54  112.17
  16   3   0  -58.80  118.67
 -16  -3   0   85.52  143.19
  16   3   0  144.53   85.77
 -16  -3   0 -112.10  109.83
  16   2   0  162.05   91.51
  16   2   0  122.75  114.27
 -16  -2   0   10.82  105.44
 -16  -2   0 -120.86  132.47
 -16  -1   0  -10.60   97.89
  16   1   0  268.91  105.56
  16   1   0    9.30  112.53
 -16  -1   0   31.95  125.15
 -16   0   0   19.42  129.02
  16   0   0  -66.95  113.71
  16   0   0   22.42  134.73
 -16   0   0  130.78   93.58
  16  -1   0  -84.88  139.00
 -16   1   0   98.83  143.55
  16  -1   0 -239.44  128.18
 -16   1   0  -50.60   85.98
  16  -2   0 -100.91  138.27
 -16   2   0   19.78  170.58
  16  -2   0  115.48  146.09
 -16   2   0   34.05   84.94
 -16   3   0   17.86   82.58
 -16   3   0  323.66  195.32
  16  -3   0 -129.07  159.81
  16  -3   0   69.17  158.43
 -16   4   0   -3.81   86.60
 -16   4   0  493.65  226.79
  16  -4   0   72.75  179.41
  16  -4   0  154.93  161.00
  16  -5   0  314.82  193.43
 -16   5   0 -141.16   80.76
  17   7   0   43.54  198.00
 -17  -6   0  142.62  161.66
  17   6   0   -1.91  163.65
  17   5   0  161.45  149.35
  17   5   0  120.57  101.88
 -17  -5   0 -181.96  173.88
  17   4   0 -251.15  142.53
  17   4   0  -71.33   98.42
 -17  -4   0 -138.59  176.70
 -17  -3   0  167.14  338.51
  17   3   0 1057.71  304.83
 -17  -2   0  410.80  178.91
 -17  -2   0   56.81  140.85
 -17  -1   0  -59.22  112.90
 -17   0   0 -475.69  176.02
 -17   0   0 -180.39  125.78
 -17   1   0  362.02  175.54
 -17   1   0   45.47  106.56
 -17   2   0  240.46  199.65
 -17   2   0  160.51  107.11
  17  -2   0  -84.28  178.41
  17  -2   0  207.32  176.12
 -17   3   0  115.64  209.91
 -17   3   0  167.96  345.10
  17  -3   0  108.18  269.88
  17  -3   0  261.30  293.50
  17  -4   0   28.27  196.69
  17  -4   0 -214.07  181.11
 -17   4   0    8.41   94.19
 -17   4   0    5.52  244.14
  17  -5   0  139.72  216.73
 -17   5   0  236.23  279.10
 -17   5   0  154.06  104.08
  18   7   0 1122.06  522.99
 -18  -6   0   46.62  193.60
  18   6   0 -448.34  195.90
 -18  -5   0 -127.13  194.03
  18   5   0   49.19  106.17
  18   5   0   67.57  147.45
  18   4   0   99.16  155.05
  18   4   0   -4.95  106.28
 -18  -4   0   40.23  198.95
 -18  -4   0 -126.07  140.51
 -18  -3   0 -116.78  135.63
 -18  -3   0   95.76  194.44
  18   3   0   47.34  151.11
  18   3   0 -189.70  103.19
 -18  -2   0  118.70  179.95
 -18  -2   0   -9.10  126.89
  18   2   0  185.04  145.07
  18   2   0  -94.81  108.34
 -18  -1   0  -73.75  170.30
  18   1   0  -10.46  147.47
  18   1   0 -285.18  124.80
 -18  -1   0 -145.78  121.13
  18   0   0 -195.87  149.34
  18   0   0  -53.56  160.49
 -18   0   0  -58.91  168.70
 -18   0   0   -8.62  115.14
  18  -1   0 -128.57  161.50
 -18   1   0  230.98  109.04
  18  -1   0 -113.27  192.62
 -18   1   0 -133.44  177.09
 -18   2   0  -25.47  103.66
  18  -2   0    7.85  191.97
  18  -2   0  261.62  183.41
 -18   2   0  195.22  204.64
 -18   3   0  196.08  244.99
  18  -3   0  265.26  203.33
  18  -3   0  227.55  211.92
 -18   4   0  325.87  257.63
  18  -4   0  137.70  216.53
 -18   4   0  -60.59  102.51
  18  -4   0   88.80  193.41
 -18   5   0   34.84  100.15
  18  -5   0 -403.97  237.25
 -18   5   0 -521.86  295.12
 -19  -6   0  141.84  233.01
  19   6   0  417.58  221.49
  19   5   0   82.59  118.02
 -19  -5   0  280.51  169.15
  19   5   0 -113.12  185.40
 -19  -5   0  -45.07  208.83
 -19  -4   0 -509.41  245.76
  19   4   0 -425.54  197.46
 -19  -4   0 -119.17  174.16
 -19  -3   0 4339.29 1073.67
 -19  -3   0  787.18 1070.51
  19   3   0 2406.72 1084.71
 -19  -1   0 -402.15  152.59
 -19   0   0 -451.59  229.85
 -19   0   0 -266.28  149.34
 -19   1   0 -300.34  223.63
 -19   1   0   94.89  132.02
 -19   2   0 -570.30  285.93
 -19   2   0 -508.78  174.33
  19  -3   0 7927.58 2374.32
 -19   4   0 -155.77  124.56
 -19   4   0  178.41  292.82
  19  -5   0  -74.75  269.36
 -19   5   0  223.39  305.87
 -19   5   0 -126.46  117.54
  20   6   0  171.82  201.06
 -20  -6   0 -193.17  216.36
  20   5   0  248.00  204.28
 -20  -5   0  -86.32  232.08
 -20  -5   0  106.32  188.49
  20   5   0    3.15  132.33
 -20  -4   0  369.87  244.62
 -20  -4   0 -393.14  181.29
  20   4   0  317.58  198.46
  20   4   0  -51.78  129.61
 -20  -3   0  237.28  260.10
  20   3   0  -35.47  127.63
  20   3   0  150.96  185.46
 -20  -3   0 -317.55  165.71
  20   2   0 -111.68  138.44
 -20  -2   0  108.20  155.71
  20   2   0 -134.35  191.94
 -20  -2   0  -46.01  246.28
 -20  -1   0 -108.65  235.47
  20   1   0  153.18  214.47
 -20  -1   0   -5.52  150.52
  20   1   0  290.21  157.98
 -20   0   0   16.12  144.51
  20   0   0   -7.89  212.19
  20   0   0  387.32  180.24
 -20   0   0   -5.66  221.39
 -20   1   0  -15.91  133.07
 -20   1   0  193.87  242.35
  20  -1   0    4.50  215.03
  20  -1   0   52.75  231.06
 -20   2   0  102.12  132.04
  20  -2   0  342.70  243.42
 -20   2   0  -49.33  245.76
  20  -2   0 -242.73  267.62
 -20   3   0  -16.71  125.17
 -20   3   0   40.51  281.02
  20  -3   0  -32.21  263.88
  20  -3   0  -82.49  241.82
 -20   4   0 -189.12  311.31
  20  -4   0  134.95  283.96
   1   1  -1   -0.11    0.35
   1   1  -1    0.47    1.14
  -1  -1   1    0.14    0.23
  -1  -1   1    0.37    1.27
  -2  -1  -1  284.35   83.52
  -2   0  -1   -2.64    3.90
   2   0  -1    0.20    1.45
   2   0  -1    1.16    6.04
   2   0   1   -2.11    3.61
  -2   0   1   -0.30    4.75
   2  -1   1  632.05  157.26
   2  -1   1  468.64  157.90
  -2  -2   1    1.00    3.79
   3   2  -1    1.09    9.67
   3   2  -1    2.71   15.15
   3   2  -1    1.19    3.62
  -3  -2   1   -2.21    4.60
  -3  -2   1   -0.65   14.00
   3   1  -1  159.04   97.06
   3   1  -1  220.63   75.13
  -3  -1  -1  180.54   86.03
   3   1  -1  234.22   87.39
   3   1  -1  240.34   81.12
   3   1   1  211.79   87.31
  -3  -1   1  266.07   85.51
  -3  -1   1  255.11   78.30
   3   0  -1  109.82   36.25
   3   0  -1   72.58   42.45
   3   0  -1   40.57   44.85
   3   0  -1  153.05   41.56
  -3   0  -1   79.92   42.35
   3   0   1  128.12   41.82
  -3   0   1  153.47   45.23
  -3   0   1  164.25   41.58
   3  -1  -1  195.35  106.52
  -3   1   1  274.93   88.58
   3  -1   1  201.43   87.92
  -3   2  -1    6.96   12.66
   3  -2   1    6.47   31.25
   4   3  -1    2.20   27.50
   4   2  -1  336.93  125.84
   4   2  -1  308.24  141.99
   4   2  -1  371.30  114.93
  -4  -2  -1  177.98  125.21
   4   2  -1  421.74  108.36
  -4  -2   1  341.31  123.35
   4   2   1  263.20  141.33
   4   2   1  253.32  123.73
  -4  -1  -1   62.72   20.46
   4   1  -1   45.02   15.54
   4   1  -1   64.29   21.74
   4   1  -1   36.44   14.30
   4   1  -1   39.56   24.43
   4   1   1   43.35   26.29
  -4  -1   1   35.66   15.06
  -4  -1   1   40.11   20.20
   4   1   1   30.93   19.97
   4   0  -1    4.25   13.82
  -4   0  -1    4.16   13.02
   4   0  -1    0.85    4.86
   4   0  -1    0.45    2.33
   4   0  -1    0.40   14.39
  -4   0   1    1.65    5.26
  -4   0   1    3.47   11.20
   4   0   1    3.44   12.91
   4  -1  -1   40.47   24.16
   4  -1  -1   37.98   29.18
   4  -1  -1   32.15   14.21
   4  -1   1   48.88   22.36
  -4   1   1   52.60   19.81
  -4   2  -1  374.30  125.49
   4  -2   1  230.74  147.11
   4  -2   1  358.68  133.32
  -4   3  -1   10.36   24.55
   5   3  -1  276.81  117.90
   5   3  -1  562.26  137.13
  -5  -3   1   65.84  117.14
   5   2  -1  297.33  140.54
   5   2  -1  385.91  123.76
  -5  -2  -1  328.76  125.79
   5   2  -1  318.69  115.26
   5   2  -1  380.36  109.44
  -5  -2   1  425.26  114.48
  -5  -2   1  476.73  122.81
   5   2   1   25.34  140.95
   5   2   1  189.13  123.30
  -5  -1  -1 1513.08  431.70
   5   1  -1  713.43  472.67
   5   1  -1 1048.43  428.25
   5   1  -1 1186.94  390.38
   5   1  -1 1268.98  437.02
  -5  -1   1 1165.95  410.35
   5   1   1 1208.75  430.88
  -5  -1   1 1301.35  439.01
   5   1   1  840.71  495.14
   5   1   1 1283.80  423.28
  -5   0  -1   45.27   25.15
   5   0  -1   24.76   15.97
   5   0  -1   62.81   25.23
   5   0  -1   29.21   13.25
  -5   0  -1   54.39   16.59
  -5   0  -1   46.75   14.17
   5   0  -1   27.97   24.77
  -5   0   1   30.20   17.80
   5   0   1   43.69   13.42
  -5   0   1   33.55   21.53
   5   0   1   39.94   24.03
   5   0   1   42.08   15.26
   5  -1  -1 1289.33  438.10
   5  -1  -1  748.94  464.21
   5  -1   1  999.00  425.56
  -5   1   1 1027.19  409.67
   5  -1   1 1368.16  375.99
   5  -2  -1  267.69  124.46
   5  -2   1  248.20  119.95
   6   4  -1   47.24   50.91
   6   3  -1    7.81    9.74
  -6  -3  -1   11.65   39.46
   6   3   1    1.54   27.19
   6   3   1   37.90   41.55
  -6  -3   1    6.46   12.20
   6   2  -1 1475.42  516.36
  -6  -2   1 1637.24  516.54
   6   2   1 1236.03  615.14
   6   1  -1   55.83   21.19
   6   1  -1   74.22   23.78
  -6  -1  -1   62.48   23.48
  -6  -1   1   59.87   24.45
   6   1   1   63.00   22.20
   6   1   1   -0.50   43.69
   6   1   1   59.17   22.72
  -6  -1   1   80.36   22.69
  -6   0  -1    1.50    5.58
   6   0  -1    1.97    4.00
   6   0  -1   -2.40    8.81
  -6   0  -1   -1.00    7.32
   6   0   1    1.09    6.48
   6   0   1    1.80    4.10
  -6   0   1    3.03   10.09
   6  -1  -1   65.33   20.41
   6  -1   1   52.74   19.78
   6  -2  -1 1489.93  586.98
   6  -2  -1 1511.26  618.25
   6  -2   1 1366.33  577.14
  -6   2   1 1640.00  548.94
  -6   3  -1   17.04   27.57
   6  -3   1   21.62   62.16
   6  -3   1   10.32   42.98
   7   4  -1  348.61   89.39
  -7  -4  -1   -5.44   91.95
   7   4  -1  183.45  109.55
   7   4   1  468.12  109.11
  -7  -4   1   13.05   91.72
   7   3  -1   18.53   47.04
   7   3  -1   22.65   28.98
  -7  -3  -1   -9.79   48.28
   7   3  -1    3.29   11.95
   7   3   1    9.98   30.10
   7   3   1   20.25   49.07
  -7  -3   1   30.78   12.22
  -7  -3   1   21.65   42.72
   7   2  -1  456.72  120.50
   7   2  -1  282.67  115.21
   7   2  -1  273.89  111.22
   7   2  -1  271.38  133.89
  -7  -2  -1  386.78  122.52
   7   2   1  321.29  119.78
   7   2   1  321.80  116.22
   7   2   1  320.06  138.27
  -7  -2   1  332.12  116.08
  -7  -2   1  397.78  121.03
  -7  -1  -1  114.83   50.04
   7   1  -1   96.58   53.95
   7   1  -1   91.61   42.00
  -7  -1  -1  111.27   41.74
   7   1  -1  211.49   52.13
   7   1  -1   88.23   37.67
  -7  -1   1  118.26   44.31
   7   1   1  113.76   39.46
   7   1   1   77.55   59.49
   7   1   1  107.70   52.64
   7   1   1  107.11   40.85
  -7  -1   1  123.86   51.50
  -7  -1   1  102.77   40.40
   7   0  -1    6.55    4.83
   7   0  -1   -5.09   31.26
  -7   0  -1    2.68   32.12
  -7   0  -1    7.53    9.32
   7   0  -1    4.52    9.95
  -7   0  -1    9.55    6.89
   7   0  -1    1.48   32.87
   7   0   1    7.65    7.98
   7   0   1   -3.50   27.61
   7   0   1    4.60    5.38
  -7   0   1   -1.89   35.16
   7   0   1   13.78   31.67
  -7   0   1    3.18   25.24
  -7   0   1    7.82   11.50
   7  -1  -1  118.92   34.73
   7  -1  -1  109.68   56.37
   7  -1  -1   44.14   54.40
   7  -1   1  132.65   33.86
  -7   1   1   50.72   45.37
   7  -1   1   90.00   53.10
   7  -2  -1  234.13  122.19
   7  -2  -1  243.59  115.54
   7  -2   1  230.69   91.20
   7  -2   1  306.08  112.21
  -7   2   1  263.71  100.46
   7  -3  -1   29.58   54.05
  -7   3  -1   30.83   30.52
  -7   3   1   22.41   33.40
   7  -3   1  -82.21   51.75
  -7   4  -1  211.37  108.94
   7  -4   1  289.70  122.51
   7  -4   1  369.78  141.77
   8   5  -1  506.91  230.18
  -8  -4  -1    4.04   62.86
   8   4  -1  100.54   35.91
   8   4  -1  143.94   50.66
   8   4  -1   37.53   71.62
   8   4   1  117.75   72.13
  -8  -4   1   16.65   63.03
   8   4   1  123.47   50.84
  -8  -3  -1  881.67  340.83
  -8  -3   1 1390.73  337.31
   8   3   1  999.82  374.23
   8   3   1  425.45  327.47
   8   3   1  898.66  330.21
   8   2  -1   78.25   26.98
  -8  -2  -1  112.76   48.50
   8   2  -1   67.89   25.59
   8   2  -1   66.60   42.26
   8   2   1   66.83   60.89
  -8  -2   1  102.11   44.65
  -8  -2   1   56.89   28.11
   8   2   1   54.79   26.63
   8   2   1   47.08   39.82
   8   1  -1   15.63   13.16
  -8  -1  -1   20.07   11.82
   8   1  -1  -16.14   39.36
   8   1  -1   20.60   40.94
  -8  -1  -1   13.97   35.78
   8   1  -1   21.09   10.32
  -8  -1  -1   31.70   12.96
   8   1   1    2.91   43.98
   8   1   1   15.92   11.15
  -8  -1   1   38.48   36.80
  -8  -1   1   12.72   13.89
   8   1   1   31.17   41.23
  -8  -1   1   23.24   12.51
   8   1   1   25.46   10.87
  -8   0  -1   -9.50   39.49
   8   0  -1  -13.76   38.04
  -8   0  -1   -3.42    8.16
   8   0  -1  -27.22   42.72
   8   0  -1   -1.22   11.30
  -8   0  -1   -1.06   11.13
   8   0  -1   -4.98    5.57
  -8   0   1    2.29   13.86
   8   0   1   -0.29    6.12
   8   0   1  -13.59   36.05
  -8   0   1   23.47   42.68
   8   0   1   -4.63    9.12
  -8   0   1  -14.85   31.13
   8   0   1  -42.58   40.65
  -8   1  -1   20.39   50.18
   8  -1  -1   16.64   41.77
   8  -1  -1   27.50    8.55
   8  -1  -1  -20.63   47.10
  -8   1  -1   23.14   33.07
   8  -1   1   -3.81   42.95
  -8   1   1   26.85   31.02
   8  -1   1  -29.01   39.33
   8  -1   1   16.46    7.14
   8  -2  -1   93.26   24.95
   8  -2  -1   34.33   63.55
   8  -2  -1   49.02   60.07
   8  -2   1   71.10   24.10
   8  -2   1   27.66   58.28
  -8   2   1   45.92   40.51
   8  -3  -1 1272.46  362.16
   8  -3  -1  875.70  353.67
  -8   3   1  508.84  325.48
   8  -4  -1   39.44   81.55
  -8   4  -1   41.35   47.45
   8  -4   1   30.19   74.69
   8  -4   1  106.28   92.73
   9   5  -1  343.31  104.47
   9   5  -1  134.96   58.04
   9   5   1  265.24  100.19
  -9  -5   1  -17.72   81.02
  -9  -4  -1  301.22  383.78
   9   4  -1  897.36  440.10
   9   4  -1 1150.12  362.90
   9   4  -1 1438.82  375.18
   9   4   1 1289.83  439.32
   9   4   1 1034.18  371.62
  -9  -4   1  557.36  383.47
  -9  -3  -1    9.41   62.17
   9   3  -1  -51.28   66.85
   9   3  -1  -20.95   37.06
   9   3   1    6.48   13.00
   9   3   1    0.95   36.67
  -9  -3   1  -30.93   56.66
   9   3   1  -38.02   67.98
   9   2  -1  324.43  155.00
   9   2  -1  465.81  157.87
  -9  -2  -1  531.92  161.43
   9   2  -1  336.84  172.34
  -9  -2   1  658.07  160.90
   9   2   1  385.71  178.20
  -9  -2   1  380.64  160.61
   9   2   1  528.77  156.24
   9   2   1  361.86  154.00
  -9  -1  -1   12.84   41.97
   9   1  -1   17.88   45.79
   9   1  -1    4.85   12.59
  -9  -1  -1   -0.49   12.68
  -9  -1  -1    2.96   11.50
   9   1  -1   95.17   40.65
   9   1  -1    0.49    9.71
   9   1   1    3.26   46.90
  -9  -1   1   -5.95   14.72
   9   1   1   40.97   50.50
   9   1   1   -1.20   10.33
  -9  -1   1   13.68   43.25
   9   1   1   -0.56    9.57
  -9  -1   1   -2.27   12.53
   9   0  -1   11.33   13.85
  -9   0  -1   15.15   38.10
   9   0  -1  104.99   45.37
  -9   0  -1   15.12   13.04
  -9   0  -1    8.04    9.99
   9   0  -1    2.33    7.07
   9   0  -1   57.93   49.30
  -9   0  -1   23.50   46.47
  -9   0   1  -20.05   35.83
   9   0   1   46.69   49.93
  -9   0   1   -2.65   11.47
  -9   0   1    3.89   50.47
  -9   0   1   -3.91   15.99
   9   0   1   -2.20    7.93
   9   0   1   74.54   44.11
   9   0   1   -0.97   10.66
  -9   1  -1   -1.24    8.51
   9  -1  -1   76.45   48.41
   9  -1  -1   23.47   53.68
  -9   1  -1  -11.72   55.63
   9  -1  -1   -3.93    6.54
  -9   1  -1   26.55   37.28
  -9   1   1   -1.52   34.67
   9  -1   1   37.47   52.66
   9  -2  -1  383.05  128.75
   9  -2  -1  382.01  161.25
   9  -2  -1  404.72  160.39
  -9   2   1  265.35  139.18
   9  -2   1  472.28  156.23
   9  -3  -1  -61.26   74.13
   9  -3  -1  -36.35   81.72
   9  -3   1  -62.66   69.01
  -9   3   1   -3.98   39.72
  -9   4  -1  960.45  370.86
   9  -4  -1 1300.60  416.14
   9  -4   1  684.37  414.59
  -9   5  -1  141.84   66.64
   9  -5   1   63.12   97.71
  10   6  -1  217.89  133.65
  10   5  -1  225.96   88.58
  10   5  -1  426.45  136.17
  10   5  -1  267.40  102.66
 -10  -5  -1   26.66  112.39
 -10  -5   1   22.21  113.56
  10   5   1  404.64  136.94
 -10  -4  -1   -9.99   77.23
  10   4  -1   45.64   23.45
  10   4  -1   41.46   47.98
  10   4  -1   27.58   88.26
  10   4   1   44.60   49.75
 -10  -4   1   76.41   75.14
  10   4   1   20.85   89.03
  10   3  -1  767.66  318.03
  10   3  -1  608.02  283.65
 -10  -3  -1  807.07  296.05
  10   3  -1  796.37  283.90
  10   3   1  837.20  325.96
  10   3   1  840.63  282.64
 -10  -3   1 1019.02  292.35
 -10  -3   1  746.37  296.31
  10   2  -1    6.28   48.38
 -10  -2  -1   24.17   50.64
  10   2  -1   -4.80   55.60
  10   2   1   -2.96   41.93
  10   2   1  -23.61   64.68
 -10  -2   1    1.38   50.53
  10   1  -1   31.28   56.52
 -10  -1  -1   21.61   48.87
  10   1  -1  -28.35   50.19
 -10  -1   1   14.39   21.60
  10   1   1   18.52   52.20
 -10  -1   1   23.74   52.44
  10   1   1   27.19   51.20
 -10  -1   1   76.45   18.46
 -10   0  -1   39.99   55.61
  10   0  -1   20.92   54.65
  10   0  -1  -21.51   49.77
 -10   0  -1    3.48   43.94
 -10   0   1  -17.87   58.91
  10   0   1  -23.55   48.55
 -10   0   1    1.65   39.06
  10   0   1   12.80   53.19
 -10   1  -1    1.68   66.65
 -10   1  -1   28.47   43.60
  10  -1  -1   13.31   61.64
  10  -1  -1    5.52   57.66
  10  -1   1   24.56   52.23
 -10   1   1    5.12   41.46
  10  -1   1   17.81   58.19
 -10   1   1   46.55   72.53
 -10   2  -1   13.01   43.26
  10  -2  -1  -64.07   68.36
  10  -2  -1    6.35   72.14
  10  -2   1   37.92   66.85
 -10   2   1  -14.66   41.54
  10  -3  -1  704.33  322.06
  10  -3  -1  965.46  327.33
 -10   3   1  773.78  295.17
  10  -3   1 1080.72  322.91
  10  -4  -1  114.62   96.28
  10  -4  -1   81.50  103.34
  10  -4   1    4.05   91.84
 -10   4   1   35.75   50.26
 -10   5  -1  405.80  160.74
  10  -5   1  611.11  185.59
  11   6  -1   44.69  114.62
  11   5  -1   25.96   60.90
 -11  -5  -1   17.62   88.62
  11   5  -1   56.43  110.79
  11   5   1  -27.82  115.60
 -11  -5   1   57.62   87.31
  11   4  -1  533.33  188.04
 -11  -4  -1  189.65  204.78
  11   4  -1  496.75  227.72
 -11  -4   1  314.98  203.33
  11   4   1  597.31  233.54
  11   4   1  659.89  186.50
  11   3  -1   11.85   47.37
 -11  -3  -1   -8.84   73.47
  11   3  -1  -33.68   73.32
 -11  -3   1    3.89   70.51
  11   3   1   67.10   83.14
  11   3   1    8.98   46.04
  11   2  -1   58.29   68.37
 -11  -2  -1   82.76   69.83
  11   2  -1   61.13   60.81
  11   2   1  203.87   80.92
 -11  -2   1   71.16   67.30
  11   2   1  104.13   56.67
  11   1  -1   23.22   67.79
  11   1  -1  106.48   72.26
 -11  -1  -1  147.42   69.55
 -11  -1   1  104.16   62.40
  11   1   1   60.27   65.27
 -11  -1   1   72.05   69.78
  11   1   1  218.96   68.36
  11   0  -1   13.26   66.04
  11   0  -1   73.60   70.91
 -11   0  -1  124.90   63.64
 -11   0  -1  100.64   73.03
  11   0   1  110.14   67.14
 -11   0   1   69.26   58.27
 -11   0   1   81.29   74.86
  11   0   1  140.62   73.24
 -11   1  -1  104.81   82.44
 -11   1  -1   80.45   57.87
  11  -1  -1   57.25   79.94
  11  -1  -1  119.15   72.92
  11  -1   1   95.08   75.81
 -11   1   1   43.98   54.62
  11  -1   1   -0.77   65.48
 -11   1   1  118.56   90.16
  11  -2  -1   17.57   85.48
 -11   2  -1   62.20   51.83
 -11   2  -1   81.80   94.88
  11  -2  -1    3.43   81.49
  11  -2   1  -29.52   77.10
 -11   2   1   56.56   48.75
  11  -2   1    3.28   79.81
  11  -3  -1  120.88   95.42
  11  -3  -1  -53.48   96.14
 -11   3   1   29.59   48.76
  11  -3   1  -55.28   89.24
  11  -4  -1  469.25  214.29
  11  -4  -1  347.36  211.52
  11  -4   1  329.45  211.15
 -11   4   1  431.86  171.67
  11  -5   1   66.23  135.44
  12   6  -1  116.32  132.00
  12   6   1   13.22  131.34
 -12  -5  -1  -55.03  114.00
  12   5  -1  249.76   84.25
  12   5  -1  261.94  131.53
 -12  -5   1   18.25  111.65
  12   5   1  216.40  134.57
  12   5   1  170.36   84.48
 -12  -4  -1  -18.33  102.01
  12   4  -1  -18.81   57.16
  12   4  -1   23.68   99.85
  12   4   1  -10.02   57.39
 -12  -4   1  -16.73   95.69
  12   4   1   41.15  108.46
  12   3  -1   96.85   71.49
 -12  -3  -1  183.63   98.73
  12   3   1  -61.75  108.87
  12   3   1  174.88   68.94
 -12  -3   1  175.87   91.07
  12   2  -1  883.53  362.64
  12   2   1 1480.32  370.21
  12   2   1 1043.75  349.71
  12   1  -1 -184.09   85.36
 -12  -1  -1    7.09   70.14
 -12  -1   1  -45.31   71.58
 -12  -1   1   -2.11   59.57
 -12   0  -1  468.64  112.53
  12   0  -1  -31.05  102.82
 -12   0  -1  188.44   97.08
 -12   0   1  -38.15   87.79
 -12   0   1   25.02  105.18
  12   0   1  481.59  105.60
  12  -1  -1  -64.94   83.58
 -12   1  -1   11.34   60.32
 -12   1  -1   40.95   89.82
 -12   1   1   13.55   97.38
 -12   1   1   25.80   54.77
 -12   2  -1   70.88  248.34
  12  -2  -1  460.61  228.39
 -12   2  -1   83.22  188.60
  12  -2  -1  708.96  218.19
 -12   2   1  107.61  256.04
 -12   2   1   40.21  183.63
  12  -2   1 1117.16  224.68
  12  -3  -1  230.27  124.74
 -12   3   1  219.16   79.02
  12  -3   1   73.72  117.48
  12  -4  -1   60.96  122.02
  12  -4  -1   78.83  117.14
 -12   4   1   28.15   55.81
  12  -4   1  -79.66  113.27
  12  -5  -1   27.05  143.82
 -12   5  -1   89.84   72.36
 -12   5   1  151.89   72.21
  12  -5   1    8.21  136.24
 -13  -6   1   35.01  104.47
  13   5  -1  -68.62   69.07
  13   5  -1  -38.44  127.05
 -13  -5  -1   53.54  108.94
 -13  -5   1   37.01  108.68
  13   5   1  -97.56   70.88
  13   4  -1  104.37  100.95
 -13  -4  -1  132.50  141.35
  13   4  -1   31.82  142.82
 -13  -4   1  167.79  139.54
  13   4   1  176.89  101.34
  13   3  -1  -17.92   81.49
  13   3  -1  -62.32   60.27
 -13  -3  -1   -8.36  101.59
  13   3   1  -59.64   96.70
 -13  -3   1  -14.86   89.65
  13   3   1  -43.91   58.78
  13   2  -1  -71.14   85.52
 -13  -2  -1  -49.07   88.41
  13   2  -1    7.14   71.82
  13   2   1   23.66   68.73
 -13  -2   1   36.78   83.76
  13   2   1   84.01   83.02
  13   1  -1  -10.96   86.73
 -13  -1  -1   30.86   73.42
  13   1  -1   -1.84   77.05
 -13  -1  -1   24.97   78.96
 -13  -1   1   95.44   67.60
  13   1   1   18.83   77.85
  13   1   1   -7.86   74.63
 -13  -1   1   44.58   81.93
 -13   0  -1   67.01   88.90
  13   0  -1  116.10   75.58
  13   0  -1    1.83   89.81
 -13   0  -1   33.03   67.92
  13   0   1   29.93   92.19
 -13   0   1    7.14   60.99
 -13   0   1    2.18   88.81
  13   0   1  -74.23   79.65
 -13   1  -1   26.76  101.42
  13  -1  -1    4.63   90.06
 -13   1  -1   43.18   66.35
  13  -1  -1  114.58   97.57
  13  -1   1 -155.70   95.53
 -13   1   1  113.51  105.84
 -13   1   1   21.61   60.31
  13  -1   1   -5.15   82.04
  13  -2  -1    2.18  112.84
 -13   2  -1   73.56  124.05
 -13   2  -1  286.98   69.96
  13  -2  -1  -72.44  107.29
  13  -2   1  151.51  109.46
 -13   2   1   83.02  135.43
 -13   2   1  -42.08   70.69
  13  -3  -1   40.10  121.45
 -13   3  -1  -65.94  146.39
  13  -3   1    2.33  112.81
  14   7  -1  178.66  186.51
  14   6  -1  -36.90  153.38
  14   6   1 -138.58  157.87
 -14  -6   1  311.63  108.17
 -14  -5  -1 1162.27  290.38
  14   5   1  595.20  251.68
  14   5   1  291.71  318.46
  14   4   1  -62.49  118.54
 -14   1  -1  -48.03   73.39
  14  -1   1   -5.80   89.99
  14  -2  -1    1.50  108.71
 -14   2  -1   31.21   67.24
 -14   2   1   21.70   63.64
  14  -2   1  -18.79  108.01
  14  -3  -1  292.78  165.64
 -14   3  -1   38.54  119.28
 -14   3  -1  518.36  199.63
  14  -3   1  152.81  164.25
 -14   3   1  853.12  200.36
  14  -3   1   67.33  169.35
 -14   3   1  102.70  117.65
  14  -4  -1  -62.81  131.76
  14  -4  -1  -71.86  150.09
 -14   4   1   64.60   66.46
  14  -4   1    2.89  136.95
  14  -5  -1 1191.95  343.84
 -14   5   1  353.14  275.68
  14  -5   1  923.84  334.92
  15   7  -1 -261.81  191.71
  15   6  -1   80.78  164.78
 -15  -6   1  181.80  136.96
  15   6   1   76.78  176.38
 -15  -5  -1  195.86  139.01
  15   5  -1  -49.74   84.67
  15   5  -1   71.92  135.34
  15   5   1  115.84   84.62
  15   5   1   31.13  147.65
 -15  -5   1   61.73  142.27
 -15  -4  -1  353.89  150.26
  15   4  -1   12.36   84.70
  15   4  -1   54.25  115.68
  15   4   1   74.38  127.32
 -15  -4   1  100.50  141.25
  15   4   1  146.23   85.91
  15   3  -1 -106.12   73.59
 -15  -3  -1  -21.18  129.60
  15   3  -1  -62.56  105.54
  15   3   1   57.36   99.62
  15   3   1  -70.82   74.67
 -15  -3   1   18.92  116.81
 -15  -2  -1   21.66  114.58
  15   2  -1 -222.65   90.49
 -15  -2  -1   -6.68   94.59
 -15  -2   1   83.49   88.35
 -15  -2   1  119.55  109.78
  15   2   1 -222.66   88.05
 -15  -1  -1 -207.06  122.57
 -15  -1  -1  -71.45   99.41
 -15  -1   1 -295.46  122.40
 -15  -1   1 -103.34   93.07
 -15   0  -1   47.98   90.48
  15   0  -1 -374.98  137.00
 -15   0  -1 -150.65  122.01
 -15   0   1   -2.98   81.22
 -15   0   1   61.39  121.84
  15   0   1 -386.52  138.40
  15  -1  -1   39.50  132.26
 -15   1  -1    9.46   91.25
 -15   1  -1  -89.33  135.53
 -15   1   1  -32.41   78.77
  15  -1   1 -281.30  137.72
  15  -1   1 -293.67  125.42
 -15   1   1 -106.78  136.62
  15  -2  -1  296.34  143.29
 -15   2  -1  -69.96  149.94
 -15   2  -1  -46.87   87.68
  15  -2  -1  159.56  140.96
 -15   2   1  282.44  160.15
  15  -2   1  255.07  136.24
 -15   2   1   63.47   78.67
  15  -2   1  126.38  128.01
 -15   3  -1    3.25   72.92
 -15   3  -1  228.30  167.12
  15  -3  -1   76.09  152.13
  15  -3  -1   16.01  141.65
 -15   3   1   70.67  173.90
 -15   3   1   32.33   72.56
  15  -3   1 -329.25  144.40
  15  -3   1 -141.88  144.20
  15  -4  -1   92.08  169.45
  15  -4  -1   62.77  151.04
 -15   4  -1   27.97   81.49
 -15   4  -1  271.49  197.78
  15  -4   1    6.48  152.25
 -15   4   1   70.08   75.91
  15  -4   1    9.56  155.24
  15  -5  -1   -3.80  181.38
  15  -5   1  394.40  178.17
 -15   5   1   50.51   82.74
  16   7  -1 -125.24  186.60
  16   6  -1 -200.25  169.24
 -16  -6  -1   14.84  147.23
  16   6   1 -248.96  179.41
 -16  -6   1  278.89  152.18
 -16  -5  -1  173.47  158.70
  16   5  -1  120.58   87.70
  16   5  -1   89.18  130.24
  16   5   1   46.41   88.16
 -16  -5   1  -72.90  149.58
  16   5   1 -126.47  151.38
  16   4  -1 -167.36  112.15
 -16  -4  -1  -18.82  159.88
  16   4  -1  -67.80   86.15
 -16  -4   1   69.07  154.71
  16   4   1   10.31   86.11
  16   4   1   18.84  123.66
  16   3  -1  -21.25  113.96
 -16  -3  -1   89.56  147.68
  16   3  -1  134.26   83.81
  16   3   1   20.48  117.71
 -16  -3   1   17.97  104.54
  16   3   1   11.23   81.98
 -16  -3   1    7.59  140.33
 -16  -2  -1  101.04  107.07
  16   2  -1  -63.72   88.44
  16   2  -1   27.73  112.03
 -16  -2  -1  -66.75  126.96
 -16  -2   1   79.94  103.87
 -16  -2   1   22.05  123.32
  16   2   1   57.49  114.33
  16   2   1 -109.21   86.68
 -16  -1  -1   -3.21  124.58
  16   1  -1  -16.44  103.97
  16   1  -1 -172.23  107.39
 -16  -1  -1  113.27  103.13
 -16  -1   1  186.76   94.99
 -16  -1   1   68.94  117.87
  16   1   1 -229.65  113.55
  16   1   1  202.37   99.67
 -16   0  -1   -7.18   93.25
  16   0  -1  119.71  141.78
 -16   0  -1  -86.97  130.34
  16   0  -1  -83.68  117.82
 -16   0   1  -59.73   89.02
  16   0   1  -84.92  122.32
 -16   0   1  158.20  130.39
  16   0   1  -60.41  112.78
  16  -1  -1  -71.90  127.63
 -16   1  -1  262.07  144.11
  16  -1  -1  141.24  144.23
 -16   1  -1   21.21   92.22
 -16   1   1  112.30   82.14
 -16   1   1   70.30  146.19
  16  -1   1  -47.37  130.89
  16  -1   1  175.92  142.89
 -16   2  -1   38.52   85.90
 -16   2  -1  124.57  159.84
  16  -2  -1  -44.50  143.15
  16  -2  -1 -251.58  151.50
  16  -2   1 -415.95  145.08
  16  -2   1   14.79  137.85
 -16   2   1  212.62   80.01
 -16   2   1   67.94  169.68
 -16   3  -1   -8.82  184.65
 -16   3  -1   72.53   84.76
  16  -3  -1  236.97  166.01
  16  -3  -1 -296.94  155.92
  16  -3   1    2.20  157.90
 -16   3   1   89.34   79.17
 -16   3   1  -73.07  198.07
  16  -3   1  118.36  158.79
  16  -4  -1   44.84  178.22
 -16   4  -1 -104.12  212.26
 -16   4  -1   53.95   85.20
  16  -4  -1  217.70  158.96
  16  -4   1   -2.37  161.92
 -16   4   1  -82.19  227.77
  16  -4   1 -197.08  171.76
 -16   4   1 -137.72   82.54
 -16   5  -1 -218.66  234.13
  16  -5  -1 -178.11  201.21
 -16   5   1   75.34   82.06
  16  -5   1   46.30  185.69
  17   7  -1   94.64  185.70
 -17  -6  -1   98.05  158.14
  17   6  -1   66.26  161.79
  17   6   1  -70.77  181.10
 -17  -6   1   51.16  153.51
  17   5  -1  -36.26   96.00
 -17  -5  -1  -37.41  171.73
  17   5  -1  -51.85  128.51
  17   5   1  106.02   96.21
 -17  -5   1  126.30  166.18
  17   5   1 -187.28  149.04
  17   4  -1   -2.13   95.55
 -17  -4  -1  247.23  179.61
 -17  -4   1   19.33  170.31
  17   4   1 -335.76  136.32
 -17  -4   1   66.99  126.00
  17   4   1   -2.27   95.29
 -17  -3  -1   12.98  234.88
  17   3  -1  749.19  214.66
  17   3   1  851.44  215.80
 -17  -3   1  128.64  232.34
 -17  -2  -1  334.92  145.32
 -17  -2   1  140.76  133.89
 -17  -1  -1 -221.35  130.59
 -17  -1  -1 -444.86  171.50
 -17  -1   1 -143.08  158.42
 -17  -1   1 -258.86  117.23
 -17   0  -1  -23.92  112.49
 -17   0  -1 -284.31  157.00
 -17   0   1 -428.38  162.35
 -17   0   1   14.91  103.33
 -17   1  -1   19.80  172.27
 -17   1  -1 -221.26  111.00
 -17   1   1 -149.78  103.21
 -17   1   1 -241.56  177.40
  17  -2  -1  -64.14  170.05
  17  -2  -1   44.83  177.80
 -17   2  -1   78.69  100.02
 -17   2  -1  295.95  188.05
  17  -2   1 -235.64  176.04
 -17   2   1   70.90   96.27
  17  -2   1   67.82  161.65
 -17   2   1 -296.22  196.38
 -17   3  -1  -40.62  131.16
  17  -3  -1   55.92  221.20
  17  -3  -1 -143.56  203.38
 -17   3  -1 -364.79  250.36
 -17   3   1   74.49  125.89
 -17   3   1 -414.83  259.46
  17  -3   1  -31.45  206.11
  17  -3   1 -139.77  209.33
  17  -4  -1  -68.33  177.64
  17  -4  -1 -391.00  206.98
 -17   4  -1 -184.73  233.40
 -17   4  -1   21.35   96.13
  17  -4   1   39.14  188.79
 -17   4   1   58.81   89.97
 -17   4   1 -363.02  258.78
  17  -4   1 -121.74  183.40
 -17   5  -1  -63.70   91.38
  17  -5  -1  -81.47  219.81
 -17   5  -1  -41.61  248.65
 -17   5   1  117.10  281.81
 -17   5   1  -13.64   88.06
  17  -5   1  110.85  186.08
  17  -5   1 -135.84  202.60
  18   7  -1  929.44  444.97
  18   6  -1 -250.50  162.27
 -18  -6  -1  -54.11  182.73
 -18  -6   1 -242.62  184.07
  18   6   1  -53.30  196.08
 -18  -5  -1  118.86  190.60
  18   5  -1  105.34  161.96
  18   5  -1  218.26  106.76
 -18  -5   1  -22.44  184.21
  18   5   1  157.08  154.46
  18   5   1 -110.87  112.12
  18   4  -1   35.29  102.78
 -18  -4  -1   23.58  196.85
  18   4  -1   24.41  151.67
 -18  -4   1 -113.60  188.76
  18   4   1  -25.05  104.87
  18   4   1 -151.87  151.23
 -18  -4   1   37.39  138.81
 -18  -3  -1  106.45  141.65
  18   3  -1  258.65  101.38
 -18  -3  -1   38.19  202.72
  18   3  -1  -80.14  142.22
  18   3   1 -238.06  150.73
  18   3   1  -40.68  101.46
 -18  -3   1   81.42  128.24
 -18  -3   1  -38.72  179.41
  18   2  -1   -9.49  109.75
 -18  -2  -1 -145.28  178.69
 -18  -2  -1  225.89  136.44
  18   2  -1  116.01  135.53
  18   2   1 -126.83  147.14
  18   2   1 -171.67  109.15
 -18  -2   1  -13.13  119.74
 -18  -2   1  -21.77  168.36
  18   1  -1   75.24  124.67
 -18  -1  -1   45.84  119.79
 -18  -1  -1  272.49  169.07
  18   1  -1   14.60  150.52
 -18  -1   1   24.20  154.57
  18   1   1   31.66  137.79
 -18  -1   1 -169.05  117.20
  18   1   1   38.92  120.06
  18   0  -1  -62.52  155.41
 -18   0  -1   46.39  162.80
 -18   0  -1   35.54  114.70
  18   0  -1  -42.55  157.01
  18   0   1   -3.03  141.86
  18   0   1   91.73  155.20
 -18   0   1   16.27  165.98
 -18   0   1  -90.21  103.07
 -18   1  -1    9.08  176.66
  18  -1  -1   56.34  179.82
 -18   1  -1   91.70  109.87
  18  -1  -1  125.62  163.24
 -18   1   1   12.36  102.32
  18  -1   1 -368.43  169.09
 -18   1   1  -93.70  180.85
  18  -1   1    3.84  180.27
 -18   2  -1   68.66  200.04
  18  -2  -1 -108.18  200.04
 -18   2  -1   78.60  103.77
  18  -2  -1 -229.26  189.58
 -18   2   1   50.45  100.48
  18  -2   1 -256.05  194.62
 -18   2   1   39.32  209.17
  18  -2   1   53.41  181.82
 -18   3  -1 -139.84  226.10
 -18   3  -1  -27.01  100.52
  18  -3  -1 -193.77  195.88
  18  -3  -1 -104.15  205.56
 -18   3   1    4.37   95.65
  18  -3   1   20.35  201.28
  18  -3   1  267.49  196.98
 -18   3   1  -82.24  237.56
  18  -4  -1  132.40  222.96
 -18   4  -1  183.14  105.11
 -18   4  -1  -53.62  250.37
  18  -4  -1   20.11  194.15
  18  -4   1 -168.26  212.93
  18  -4   1   74.08  194.76
 -18   4   1    4.60   95.01
 -18   4   1 -354.74  269.95
  18  -5  -1  367.67  243.82
 -18   5  -1  136.60  280.90
 -18   5  -1   -5.02  101.63
  18  -5   1 -358.09  234.61
 -18   5   1    4.97   97.13
 -18   5   1  514.34  295.88
  18  -5   1   18.59  203.74
  19   7  -1  103.56  191.99
 -19  -6  -1 -159.75  195.92
  19   6  -1 -112.17  182.64
 -19  -6   1  212.10  194.91
  19   6   1  190.52  175.48
  19   5  -1 -238.31  178.44
 -19  -5  -1  165.64  216.96
  19   5  -1   86.36  115.61
  19   5   1  209.28  121.28
 -19  -5   1   56.23  212.09
  19   5   1 -473.08  183.77
 -19  -5   1   -5.42  166.57
 -19  -4  -1 -402.06  183.43
 -19  -4  -1 -489.62  244.03
 -19  -4   1 -408.08  240.72
 -19  -4   1 -276.60  165.35
 -19  -3  -1 3148.00 1453.41
 -19  -3  -1  616.45 1471.43
  19   3  -1 5637.59 1464.85
  19   3  -1 4734.58 1342.86
  19   3   1 4606.89 1478.89
  19   3   1 4282.98 1339.48
 -19  -3   1 3927.32 1443.03
 -19  -3   1 1520.25 1446.75
 -19   0  -1 -309.74  163.07
 -19   0   1 -263.65  148.49
 -19   0   1 -526.68  216.41
 -19   1   1 -302.73  139.55
 -19   2  -1 -276.40  265.53
 -19   2  -1 -497.88  160.51
 -19   2   1 -336.81  148.95
 -19   2   1 -401.93  266.27
  19  -3  -1 6944.20 2188.40
  19  -3  -1 7136.31 2137.88
  19  -3   1 6565.50 2181.06
 -19   4  -1 -111.47  290.87
 -19   4  -1   26.24  124.79
 -19   4   1 -588.49  300.36
 -19   4   1 -138.02  123.19
  19  -5  -1 -269.93  276.87
 -19   5  -1  220.21  303.61
 -19   5  -1 -132.89  114.92
  19  -5   1  145.18  261.47
 -19   5   1 -350.07  326.08
 -19   5   1  -65.63  102.21
  20   7  -1 -268.77  231.52
  20   6  -1 -160.12  205.56
  20   6   1 -113.87  216.35
 -20  -6   1 -301.05  197.46
 -20  -6   1 -165.93  209.40
  20   5  -1  117.13  195.51
 -20  -5  -1  -70.85  190.99
 -20  -5  -1 -103.73  232.02
  20   5  -1    3.07  126.21
  20   5   1   95.91  202.55
 -20  -5   1  167.36  231.90
 -20  -5   1   54.33  184.08
  20   5   1  199.53  136.44
 -20  -4  -1 -137.21  180.38
  20   4  -1   50.74  189.65
  20   4  -1   65.79  127.79
 -20  -4  -1  157.78  251.62
  20   4   1  -44.36  133.55
 -20  -4   1 -387.69  251.29
  20   4   1   88.12  202.02
 -20  -4   1 -140.61  171.35
  20   3  -1  114.67  182.27
  20   3  -1  -70.10  126.17
 -20  -3  -1 -494.56  269.20
 -20  -3  -1 -139.70  173.67
 -20  -3   1 -231.96  157.25
  20   3   1  192.10  135.52
 -20  -3   1  346.04  245.59
  20   3   1  -35.87  188.08
 -20  -2  -1   47.08  244.61
  20   2  -1   29.64  136.65
  20   2  -1 -102.81  193.83
 -20  -2  -1  -58.98  159.32
 -20  -2   1 -293.88  155.28
  20   2   1  252.78  140.05
 -20  -2   1 -258.20  229.88
  20   2   1  -79.14  183.03
 -20  -1  -1  172.00  233.91
  20   1  -1  101.47  152.99
 -20  -1  -1  181.98  157.61
  20   1  -1 -140.53  207.61
 -20  -1   1   -5.32  137.36
  20   1   1   -6.46  151.03
  20   1   1  -21.78  204.38
 -20  -1   1  -11.85  229.23
 -20   0  -1    5.52  141.26
  20   0  -1  147.98  177.19
 -20   0  -1 -370.79  244.05
  20   0  -1 -163.86  209.85
 -20   0   1  420.22  217.43
 -20   0   1 -118.59  135.90
  20   0   1   28.38  170.07
  20   0   1   77.60  215.49
  20  -1  -1 -554.76  225.09
 -20   1  -1  296.94  139.30
  20  -1  -1 -481.40  230.36
 -20   1  -1   82.49  226.56
  20  -1   1  205.15  201.50
 -20   1   1  402.95  235.84
  20  -1   1  -64.55  216.90
 -20   1   1  133.51  128.29
  20  -2  -1   31.20  258.53
 -20   2  -1 -132.68  138.16
 -20   2  -1 -189.18  251.70
  20  -2  -1  -43.71  230.85
  20  -2   1   99.73  245.99
  20  -2   1  -47.66  259.15
 -20   2   1   58.22  123.06
 -20   2   1 -401.68  254.60
 -20   3  -1  -11.31  129.93
  20  -3  -1 -167.19  240.86
 -20   3  -1   93.90  279.63
  20  -3  -1  -21.94  271.46
 -20   3   1  -10.85  122.56
  20  -3   1  178.39  249.94
  20  -3   1  310.82  275.37
 -20   3   1  482.04  285.66
  20  -4  -1 -656.39  285.41
 -20   4  -1   64.74  125.04
 -20   4  -1  181.48  306.46
  20  -4  -1  478.54  244.03
 -20   4   1 -182.72  120.89
  20  -4   1  421.96  279.39
  20  -4   1  -17.57  250.46
 -20   4   1  337.21  316.55
 -20   5   1   87.40  333.54
   1   0  -2    0.17    1.10
   0   1  -2   -0.22    0.95
   0   1  -2    0.09    0.31
   0   1  -2    0.10    0.32
   1   0  -2    0.61    0.88
  -1   0   2   -0.26    1.10
   0  -1   2   -0.59    0.82
   0  -1   2    0.19    0.29
   1   1  -2   -0.12    0.74
   2   1  -2   45.93   22.78
   2   1  -2   75.88   20.13
  -2  -1   2   80.73   21.63
  -2  -1   2   66.44   20.47
  -2   0  -2  390.29  115.55
   2   0  -2  333.33  119.30
   2   0  -2  431.64  114.05
   2   0   2  360.35  118.21
   2   0   2  408.33  115.75
  -2   0   2  395.93  116.74
  -2   0   2  466.52  116.04
  -2   1  -2  102.02   20.33
   2  -1   2   35.93   21.34
   2  -1   2   61.30   20.67
   2   2  -2   80.31   27.37
  -2   2  -2  120.88   34.43
  -2  -2   2   60.07   28.07
   2  -2   2  113.83   46.08
   3   2  -2  322.81  109.39
   3   2  -2  423.61  145.40
   3   2  -2  277.32  129.88
   3   2  -2  407.06  117.45
  -3  -2   2  189.64  126.16
  -3  -2   2  313.57  113.73
   3   1  -2    2.93    9.48
  -3  -1  -2    5.75   14.19
   3   1  -2    8.56    3.15
   3   1  -2    8.24   11.58
   3   1  -2    7.07    4.30
  -3  -1   2    6.79    4.03
  -3  -1   2    4.04    8.64
   3   1   2    0.34    9.50
  -3   0  -2    1.69    8.55
   3   0  -2   -1.45   11.13
   3   0  -2   -1.42    3.98
   3   0  -2   -1.93    9.93
   3   0  -2   -0.63    1.95
  -3   0   2    6.69    8.30
   3   0   2   -2.83    9.66
  -3   0   2   -0.20    4.40
   3  -1  -2    6.95   28.13
  -3   1  -2    5.21    9.09
   3  -1   2   -1.01   11.83
   3  -1   2    2.17   12.49
  -3   1   2   14.60   12.21
  -3   2  -2  519.87  150.39
   3  -2   2  391.03  170.00
   3  -2   2  385.83  155.32
   3   3  -2   11.39    6.15
  -3  -3   2    4.89    7.24
   4   3  -2  635.09  286.74
   4   3  -2  727.57  233.31
  -4  -3   2  803.05  240.80
   4   2  -2  103.44   39.85
   4   2  -2  127.67   45.53
   4   2  -2  118.50   52.13
   4   2  -2  121.67   37.32
  -4  -2  -2   19.83   48.58
  -4  -2   2  135.79   45.56
   4   2   2  107.95   53.41
  -4  -2   2  142.73   39.05
   4   2   2   70.65   45.15
   4   1  -2   -4.51   16.03
   4   1  -2    3.47    4.92
   4   1  -2    2.27    2.91
   4   1  -2    2.14   13.53
  -4  -1  -2    9.85   15.32
  -4  -1   2    5.40    5.02
   4   1   2    9.06   12.36
  -4  -1   2    2.25    4.65
  -4  -1   2   -0.41   12.91
  -4   0  -2    2.27   12.65
   4   0  -2    3.34    5.83
   4   0  -2    0.26   15.16
   4   0  -2    3.78   15.22
   4   0  -2    3.81    3.03
  -4   0   2    3.79    6.25
   4   0   2   12.29   13.79
  -4   0   2    6.06   11.59
   4  -1  -2    0.61   30.72
   4  -1  -2    2.76    3.74
  -4   1  -2    6.04   12.73
   4  -1  -2   -1.97   20.76
  -4   1   2    5.35   13.43
   4  -1   2   -2.20   16.39
   4  -1   2    8.35   16.36
  -4   2  -2  108.46   44.54
   4  -2   2  130.20   49.51
   4  -2   2   85.19   55.66
  -4   3  -2  857.05  272.61
   4  -3   2  683.11  305.80
   5   3  -2  233.82   68.29
   5   3  -2  221.21   64.22
   5   3  -2  202.17   89.82
   5   3  -2  181.62   77.24
  -5  -3   2  189.07   67.77
  -5  -3   2   61.45   78.18
   5   2  -2  487.31  151.07
  -5  -2  -2  331.72  176.51
   5   2  -2  465.68  161.33
   5   2  -2  397.74  193.26
   5   2  -2  514.91  173.91
   5   2   2  232.11  172.06
  -5  -2   2  570.66  170.20
  -5  -2   2  531.83  158.57
  -5  -1  -2   32.33   22.10
   5   1  -2   19.05   24.47
   5   1  -2   39.06   23.34
   5   1  -2   30.23   13.87
   5   1  -2   26.91   11.20
  -5  -1   2   39.06   23.55
  -5  -1   2   36.31   14.12
  -5  -1   2   39.82   13.02
   5   1   2   21.19   21.54
  -5   0  -2    2.91   19.07
   5   0  -2   -2.43    3.63
   5   0  -2   -1.57   22.75
   5   0  -2   -1.58   21.21
   5   0  -2   -1.95    7.96
   5   0   2    3.50   19.39
  -5   0   2   -1.41    8.77
  -5   0   2    2.24   16.75
   5  -1  -2   44.46   30.22
   5  -1  -2   31.25   12.56
  -5   1  -2   59.09   22.41
   5  -1  -2   36.88   38.19
  -5   1   2   23.96   22.63
   5  -1   2   29.04   25.86
   5  -2   2  307.93  156.54
   6   4  -2  -33.38   45.26
   6   3  -2  777.49  311.59
   6   3   2  923.82  326.57
  -6  -3   2  969.93  311.71
   6   3   2  951.37  362.52
   6   2  -2   48.36   21.58
   6   2  -2   59.68   20.14
  -6  -2  -2   76.82   43.27
   6   2   2   89.28   30.88
   6   2   2   58.29   45.51
  -6  -2   2   35.43   21.61
   6   1  -2   62.14   27.56
   6   1  -2   64.98   23.40
  -6  -1   2   57.41   25.92
   6   1   2   62.70   47.84
  -6  -1   2   74.50   28.65
   6   1   2   80.62   25.91
   6   0  -2   52.84   22.65
   6   0  -2   50.10   18.66
  -6   0  -2   67.88   22.56
  -6   0  -2   61.76   20.22
   6   0   2   52.46   20.42
   6   0   2   57.43   19.34
  -6   0   2   48.43   24.95
   6  -1  -2   96.25   30.86
   6  -2  -2   94.70   48.46
  -6   2  -2   48.99   33.31
   6  -2  -2   60.01   66.57
  -6   2   2   68.25   35.98
   6  -2   2   98.53   42.76
   6  -2   2   33.86   44.13
  -6   3  -2  702.16  334.57
   6  -3   2 1125.40  369.92
   6  -3   2  981.54  355.47
  -6   4  -2   40.97   35.20
   6  -4   2   35.43   51.46
   7   5  -2  232.46  120.20
   7   4  -2   16.89   35.85
   7   4  -2   58.79   19.23
   7   4  -2   14.16   53.75
   7   4   2   27.66   55.18
  -7  -4   2   -6.20   45.87
   7   3  -2  169.26   67.86
   7   3  -2   99.28   84.08
  -7  -3  -2   70.74   79.33
   7   3   2  181.40   68.81
   7   3   2  210.53   84.06
  -7  -3   2  213.45   72.93
   7   2  -2   25.09   16.10
   7   2  -2   47.61   33.46
   7   2  -2   51.46   14.85
   7   2  -2  -62.88   44.61
  -7  -2  -2   47.06   39.02
  -7  -2   2   24.58   16.93
   7   2   2   54.06   28.77
  -7  -2   2   42.19   31.11
   7   2   2   89.89   48.54
   7   1  -2    0.70   31.71
   7   1  -2    3.75   10.39
  -7  -1  -2   -1.75   28.99
   7   1  -2   -0.35   26.75
   7   1  -2    6.10    6.04
   7   1   2   -0.55    6.33
  -7  -1   2   -2.50    9.25
  -7  -1   2  -15.43   30.69
  -7  -1   2   -1.85   10.94
   7   1   2    3.04   41.82
   7   1   2   14.91   28.99
   7   0  -2   -3.56    5.15
   7   0  -2  -28.07   34.24
   7   0  -2  -13.08   31.71
   7   0  -2    1.26   10.96
  -7   0  -2   -2.61    6.96
  -7   0  -2    9.56   30.37
  -7   0  -2    2.05    5.95
  -7   0   2   -4.25   12.82
  -7   0   2    1.06   25.24
  -7   0   2   -1.97   36.69
   7   0   2   -2.19   30.79
   7   0   2    0.34    5.71
   7   0   2    2.99    4.97
   7  -1  -2   -7.01   43.98
   7  -1  -2    8.69    5.52
  -7   1  -2    7.27   38.05
   7  -1  -2   14.33   40.35
  -7   1  -2    2.27    3.82
   7  -1   2    0.96    2.47
   7  -1   2   13.47   35.01
  -7   1   2    2.42   24.84
   7  -2  -2   63.80   65.06
   7  -2  -2   53.16   51.84
  -7   2  -2   46.72   31.34
   7  -2  -2   40.43   16.51
   7  -2   2   34.84   14.17
   7  -2   2   60.35   43.88
  -7   2   2   26.97   31.55
   7  -2   2   88.75   44.57
  -7   3  -2   96.18   65.10
   7  -3  -2   83.60   89.25
   7  -3   2  242.83   88.56
  -7   3   2   85.71   69.63
   7  -3   2  239.73   81.18
  -7   4  -2   -2.01   37.47
   7  -4   2  -28.16   80.28
   7  -4   2  144.45   60.34
   8   5  -2  425.23  183.93
   8   5  -2  394.18  145.25
   8   4  -2  470.47  226.14
   8   4  -2  561.16  180.84
  -8  -4  -2   76.05  197.47
   8   4   2  926.34  223.64
  -8  -4   2  440.55  198.21
  -8  -4   2  510.85  186.19
  -8  -3  -2   66.92   81.89
   8   3   2  118.95   65.11
   8   2  -2   32.68   14.78
  -8  -2  -2   34.24   47.92
   8   2  -2  -84.72   40.19
   8   2   2  -13.38   57.49
  -8  -2   2   13.14   16.86
  -8  -2   2 -105.43   39.67
   8   2   2   55.95   13.49
   8   2   2   26.13   32.96
  -8  -1  -2   13.36   35.74
   8   1  -2   -9.06   41.58
   8   1  -2    5.90   12.69
   8   1  -2    8.81    7.96
   8   1  -2   55.02   36.46
   8   1   2   -5.13   46.23
  -8  -1   2    8.48   14.01
  -8  -1   2    6.19   10.97
   8   1   2   -6.12   36.59
  -8  -1   2   11.56   37.47
   8   1   2    0.21    7.56
   8   0  -2   45.92   19.44
  -8   0  -2   89.42   21.82
   8   0  -2  113.96   47.65
   8   0  -2   13.04   43.18
   8   0  -2   42.21   24.30
  -8   0  -2   83.17   42.78
  -8   0  -2   45.62   24.80
  -8   0   2  118.12   49.38
  -8   0   2   50.57   27.70
   8   0   2   53.02   21.40
   8   0   2   54.87   20.43
   8   0   2   84.95   43.97
  -8   0   2   93.47   35.55
   8  -1  -2   -8.64   46.96
   8  -1  -2    5.68    6.66
  -8   1  -2    0.16    5.00
   8  -1  -2    5.60   49.24
  -8   1  -2   -6.10   45.16
   8  -1   2   -1.85   42.18
   8  -1   2    0.16    3.71
  -8   1   2    8.14   29.49
   8  -2  -2   34.14   13.85
   8  -2  -2    4.10   61.30
  -8   2  -2   39.81   33.91
   8  -2  -2  -26.08   75.29
  -8   2   2   41.33   33.35
   8  -2   2   36.23   10.97
   8  -2   2 -131.08   54.25
   8  -3  -2  341.30  136.84
   8  -3  -2    3.41  116.75
   8  -3   2  293.53  112.91
   8  -3   2  404.12  117.27
  -8   4  -2  621.88  233.28
   8  -4   2  793.22  252.48
   8  -4   2  626.87  260.45
  -8   5  -2  409.39  154.01
   8  -5   2  367.50  171.06
   9   6  -2  152.91  107.50
   9   5  -2  282.76   79.78
   9   5  -2  247.71  123.98
  -9  -5   2   38.16   99.77
   9   4  -2  -41.67   72.54
   9   4  -2   16.00   16.60
  -9  -4  -2   32.70   64.86
   9   4  -2   12.44   42.69
   9   4   2   -4.25   73.57
   9   4   2   24.05   44.33
  -9  -4   2   37.76   62.50
  -9  -3  -2  463.28  219.78
   9   3  -2  552.38  205.04
   9   3  -2  330.69  232.27
   9   3  -2  681.91  210.15
   9   3   2  401.83  208.70
  -9  -3   2  854.27  215.36
   9   3   2  730.29  242.27
   9   3   2  657.68  208.27
   9   2  -2  -25.94   45.10
  -9  -2  -2  -17.50   49.30
   9   2  -2   -7.33   41.38
   9   2   2   13.61   62.97
  -9  -2   2   45.84   41.56
   9   2   2   -0.61   10.36
   9   2   2    6.97   35.20
   9   1  -2   34.28   10.69
  -9  -1  -2    9.83   12.00
  -9  -1  -2   -4.79   44.37
   9   1  -2   74.16   48.85
   9   1  -2   -0.92   14.81
   9   1  -2   85.38   42.10
  -9  -1   2    2.17   17.96
   9   1   2    7.22   10.86
   9   1   2   20.58   51.69
   9   1   2    5.02   44.18
  -9  -1   2   12.28   36.25
  -9  -1   2   42.32   13.12
  -9  -1   2   28.35   44.64
   9   0  -2    1.40    7.85
  -9   0  -2   35.27   46.13
  -9   0  -2    5.91   11.24
   9   0  -2   34.26   50.59
   9   0  -2   81.19   43.69
   9   0  -2    5.24   15.51
  -9   0  -2   -1.99    9.37
  -9   0   2    4.45   17.30
  -9   0   2   -5.31   51.80
   9   0   2  108.67   50.60
  -9   0   2   11.32   34.33
   9  -1  -2   72.60   58.12
  -9   1  -2   22.62   55.03
   9  -1  -2    4.73    8.91
   9  -1  -2    4.87   56.65
   9  -1   2  114.32   52.43
  -9   1   2    6.09   32.99
   9  -2  -2    4.75    9.26
   9  -2  -2   18.15   66.15
   9  -2  -2  102.68   71.71
   9  -2   2   58.31   56.89
  -9   2   2    1.72   35.36
  -9   3  -2  523.40  191.12
   9  -3  -2  596.36  226.03
   9  -3  -2  531.20  222.96
   9  -3   2  264.88  213.73
   9  -3   2  804.92  214.65
  -9   3   2  523.52  195.93
  -9   4  -2    2.14   42.47
   9  -4  -2   39.89   84.80
  -9   4   2  -26.77   45.40
   9  -4   2   57.10   89.29
   9  -4   2   19.18   75.17
  -9   5  -2  213.64  101.07
   9  -5   2  268.02  127.44
  10   6  -2   57.25   97.36
  10   6  -2    5.28   25.00
  10   5  -2  312.26  105.27
  10   5  -2  331.75  133.21
  10   5  -2  166.61   91.32
  10   5   2  361.74  133.13
  10   4  -2  504.57  176.17
  10   4  -2  501.55  218.17
 -10  -4  -2  188.49  197.86
  10   4  -2  401.22  184.50
 -10  -4   2  410.22  196.46
  10   4   2  660.32  181.36
  10   4   2  534.93  223.13
  10   3  -2   37.36   24.07
  10   3  -2   37.77   24.26
 -10  -3  -2   26.19   69.80
  10   3  -2   48.65   69.50
  10   3  -2   82.56   46.14
  10   3   2   59.68   46.31
 -10  -3   2   57.92   28.31
 -10  -3   2   82.72   57.76
 -10  -3   2   59.69   25.43
  10   3   2   80.50   82.77
 -10  -2  -2   97.97   58.12
  10   2  -2   36.48   49.42
  10   2  -2   23.53   51.80
  10   2  -2   31.08   19.58
  10   2   2   30.30   43.53
 -10  -2   2   60.57   23.59
 -10  -2   2   23.22   49.15
  10   2   2    8.22   70.21
  10   1  -2    1.15   55.09
 -10  -1  -2   -5.54   50.91
  10   1  -2   19.33   48.15
  10   1   2   -2.18   54.85
 -10  -1   2  -15.73   49.81
 -10  -1   2   18.85   42.21
  10   1   2   -3.24   46.37
  10   0  -2   19.00   57.27
  10   0  -2   -0.41    8.27
  10   0  -2   36.40   47.49
 -10   0  -2   35.21   53.95
 -10   0   2   38.77   40.48
 -10   0   2   28.45   20.00
  10   0   2   86.46   49.65
  10   0   2   73.15   55.13
 -10   0   2   53.17   60.09
 -10   1  -2   12.97   61.59
  10  -1  -2   -2.74   64.01
  10  -1  -2   32.45   63.10
 -10   1   2   -1.70   38.68
  10  -1   2   -7.40   56.69
  10  -2  -2   53.04   77.86
 -10   2  -2    9.73   79.56
  10  -2  -2   83.11   80.62
  10  -2   2   89.93   68.94
 -10   2   2   41.07   44.21
 -10   3  -2   35.96   47.41
  10  -3  -2   49.19   94.68
  10  -3  -2   44.13   87.50
 -10   3   2   79.57   48.15
  10  -3   2  101.74   80.83
 -10   4  -2  525.89  192.57
  10  -4  -2  588.32  230.08
 -10   4   2  500.78  195.99
  10  -4   2  707.88  222.11
  10  -4   2  333.54  222.15
 -10   5  -2  265.53   87.91
  10  -5   2  188.63  135.67
  10  -5   2   67.44  122.85
  11   6  -2  141.96  108.84
  11   6  -2   22.23   28.22
  11   5  -2  392.33  175.84
  11   5  -2  328.92  233.30
 -11  -5  -2  112.44  190.41
 -11  -5   2   71.55  190.14
  11   5   2  358.29  233.60
 -11  -4  -2   -2.85   84.71
  11   4  -2   -5.82   49.46
  11   4  -2  -16.43   84.23
  11   4   2  -27.43   52.81
 -11  -4   2    7.25   81.52
  11   4   2 -112.60   97.02
 -11  -3  -2  197.35   98.01
  11   3  -2   60.17   83.93
  11   3  -2  110.11   68.07
 -11  -3   2  205.30   83.55
  11   3   2  112.76   66.67
  11   3   2  144.97  103.39
 -11  -2  -2    5.67   66.45
  11   2  -2   35.31   54.97
  11   2  -2  -49.33   51.42
 -11  -2   2   47.28   55.85
  11   2   2  -56.22   72.81
  11   2   2   13.15   46.55
 -11  -1  -2   66.89   60.31
  11   1  -2  -11.80   58.87
  11   1  -2   68.95   67.98
 -11  -1   2   54.71   62.45
 -11  -1   2   26.98   49.49
  11   1   2   29.29   61.18
  11   1   2   15.93   55.36
 -11   0  -2   21.32   63.50
 -11   0  -2  -49.23   55.09
  11   0  -2   -9.41   67.05
  11   0  -2   18.46   55.30
 -11   0   2  -40.19   45.15
  11   0   2   12.84   58.63
 -11   0   2   58.70   73.18
  11   0   2    4.33   67.20
 -11   1  -2   38.86   74.24
  11  -1  -2  -54.83   72.14
  11  -1  -2   55.51   73.28
 -11   1  -2   61.99   54.12
 -11   1   2  101.12   86.21
 -11   1   2   41.78   45.71
  11  -1   2   55.69   63.05
  11  -1   2    1.42   69.13
  11  -2  -2  -99.44   86.99
  11  -2  -2   11.00   87.37
 -11   2  -2   45.91   84.71
  11  -2   2  -81.03   76.48
 -11   2   2   46.85   45.48
  11  -3  -2  268.52  115.64
  11  -3  -2   98.65  113.18
  11  -3   2  138.88  101.39
 -11   3   2   65.47   67.77
  11  -4  -2    9.56  112.47
 -11   4  -2    4.93   50.55
  11  -4  -2   33.45  111.47
 -11   4   2    2.76   50.77
  11  -4   2  -69.26   98.72
  11  -4   2   11.10  104.73
  11  -5   2 1846.75  565.58
  12   7  -2   -4.98  129.64
  12   6  -2  150.65  126.42
 -12  -6   2  -18.39   86.12
  12   5  -2  111.18   63.81
 -12  -5  -2  -20.02   95.55
  12   5  -2   46.73  112.51
 -12  -5   2  -29.42   93.34
  12   5   2   -1.55  123.50
 -12  -4  -2   44.27  100.13
  12   4  -2   78.97   58.08
  12   4  -2  -11.87   99.38
 -12  -4   2   94.91   90.34
  12   4   2   -6.95  111.68
  12   4   2  114.86   61.50
  12   3  -2   22.58   54.73
  12   3  -2  -92.96   71.13
 -12  -3  -2  -35.49   94.14
 -12  -3   2    4.00   74.32
  12   3   2  -67.73   98.61
  12   3   2   -6.48   54.11
  12   1  -2  115.07   91.02
 -12  -1  -2  165.76   82.75
 -12  -1   2  110.58   81.31
 -12  -1   2   55.05   66.23
  12   0  -2  153.64   77.05
 -12   0  -2   48.80   66.15
 -12   0  -2   -5.62   78.04
  12   0  -2 -141.81   72.60
 -12   0   2  159.45   81.86
 -12   0   2   18.56   51.70
 -12   1  -2  124.24   97.60
 -12   1  -2   27.98   68.09
  12  -1  -2  162.96   93.38
  12  -1  -2  -28.27   86.00
 -12   1   2   73.86  100.12
 -12   1   2   65.60   57.93
 -12   2  -2   56.60  137.48
  12  -2  -2  161.47  123.67
  12  -2  -2  -30.33  127.11
  12  -2   2   34.24  122.57
 -12   2   2   37.99   81.79
 -12   3  -2  -17.35  123.01
  12  -3  -2  -88.00  107.70
  12  -3  -2  -28.49  112.25
 -12   3   2   42.57   54.12
  12  -3   2   93.47   99.16
 -12   4  -2   50.75   58.29
  12  -4  -2  -74.57  120.75
  12  -4  -2    2.77  125.83
  12  -4   2 -149.79  112.60
 -12   4   2   49.28   56.42
 -12   5  -2   39.44   71.32
  12  -5   2  -80.67  130.41
  12  -5   2  480.69  133.59
  12  -6   2  -68.74  128.42
  13   6  -2  799.62  187.77
 -13  -6   2   57.46  154.30
  13   5  -2  262.42   93.05
  13   5  -2  148.37  138.00
 -13  -5   2   91.27  125.50
  13   4  -2    1.06   94.08
  13   4  -2  124.13   62.64
 -13  -4  -2   76.57  116.50
 -13  -4   2  -22.89  100.56
  13   4   2   -7.91   65.20
 -13  -3  -2   -6.12  118.23
  13   3  -2   35.97   87.83
  13   3  -2  -36.94   68.96
  13   3   2   31.50   67.45
 -13  -3   2    4.52   90.64
 -13  -2  -2  -17.07   92.72
  13   2  -2   14.84   70.20
  13   2  -2  100.70   79.77
  13   2   2   26.57   79.44
 -13  -2   2  -37.55   67.40
  13   2   2  -16.48   61.16
 -13  -2   2   44.47   77.39
  13   1  -2   17.95   80.20
 -13  -1  -2  132.90   85.97
  13   1  -2  136.68   91.77
 -13  -1   2   35.63   86.09
 -13  -1   2   64.78   70.64
  13   1   2   61.94   81.14
  13   1   2  -32.76   76.99
  13   0  -2  -17.26   77.54
  13   0  -2   19.47   88.35
 -13   0  -2  -71.25   86.49
 -13   0  -2   -2.62   70.56
  13   0   2  -42.75   95.38
 -13   0   2   87.75   93.86
 -13   0   2   18.53   58.75
  13   0   2 -111.05   80.79
  13  -1  -2   81.20   92.54
 -13   1  -2   -9.58  101.33
 -13   1  -2  199.08   72.43
  13  -1  -2   27.35  100.26
 -13   1   2   66.81  112.47
  13  -1   2 -224.20   96.87
 -13   1   2   11.62   60.61
  13  -2  -2    1.46  110.32
  13  -2  -2  -17.90  107.61
 -13   2  -2    2.64   56.59
 -13   2  -2   -5.50  114.43
 -13   2   2   88.07  131.49
  13  -2   2    4.99   81.64
  13  -2   2 -122.90  101.28
 -13   2   2   41.85   56.03
 -13   3  -2   31.92  146.42
  13  -3  -2   20.78  134.90
  13  -3   2  248.98  125.11
 -13   5  -2   42.19   73.01
  13  -5   2    4.21  139.02
 -13   6  -2   62.93   93.92
  13  -6   2  143.86  162.01
  14   7  -2  -20.67  154.60
  14   6   2  -61.11  157.62
 -14  -5  -2  258.85  172.99
  14   5   2  298.55  130.19
  14   5   2  327.52  192.13
 -14  -4  -2  711.93  207.04
  14   4   2  173.25  212.73
  14   4   2  612.27  172.99
  14   3   2  179.61  133.48
  14   2   2 -103.06   84.76
 -14  -1  -2   23.97   82.41
 -14   0  -2   -5.91   83.14
  14   0   2  -30.77   86.88
 -14   1  -2   44.06   77.47
  14  -1   2  -29.05   90.57
 -14   2  -2   29.36   70.41
  14  -2   2  -34.17  100.10
  14  -2   2   51.31  105.50
 -14   2   2   -2.72   61.22
 -14   3  -2  -38.97  168.60
  14  -3  -2  190.20  140.59
 -14   3   2   55.90   82.48
  14  -3   2    2.53  138.56
  14  -4  -2 -154.82  159.69
  14  -4  -2  -81.20  178.45
 -14   4  -2  366.87  199.86
  14  -4   2  179.14  158.91
 -14   4   2   26.15   90.64
 -14   5  -2  119.08  118.65
  14  -5   2  510.39  183.73
  14  -5   2  126.78  186.22
 -14   6  -2   74.57   74.57
  14  -6   2  -47.32  159.67
  15   7  -2 -129.91  168.18
  15   6  -2  146.45  148.78
 -15  -6   2   44.99  125.07
  15   6   2   74.24  169.87
  15   5  -2  177.95   79.77
 -15  -5  -2 -120.60  136.24
  15   5  -2   73.17  123.02
 -15  -5   2   39.92  131.68
  15   5   2   -8.28   83.44
  15   5   2  -76.04  151.60
  15   4  -2  108.94   73.76
 -15  -4  -2   64.65  147.07
  15   4  -2   59.40   99.91
  15   4   2   41.69   80.38
 -15  -4   2   96.32  124.76
  15   4   2  -91.86  131.40
 -15  -3  -2   77.51  138.38
  15   3  -2   61.27   76.86
  15   3  -2  -49.40  103.31
  15   3   2  132.06  108.18
  15   3   2  -87.84   75.72
 -15  -3   2  110.97   92.33
 -15  -3   2   24.56  118.66
  15   2  -2 -122.71   91.22
 -15  -2  -2  -80.58  124.48
  15   2   2 -176.91   82.56
 -15  -2   2    2.98   87.72
 -15  -2   2  -20.62  103.53
  15   2   2 -212.08  108.66
 -15  -1  -2  -77.23  100.57
 -15  -1  -2   39.80  116.12
  15   1  -2 -322.24  119.12
 -15  -1   2 -169.77  108.54
 -15  -1   2  -14.60   81.03
 -15   0  -2 -130.55  121.51
  15   0  -2 -382.52  132.95
 -15   0  -2 -126.20   96.42
 -15   0   2   -5.75   80.40
 -15   0   2   72.88  120.79
 -15   1  -2   88.11   88.08
  15  -1  -2 -148.76  125.91
 -15   1  -2  -95.32  128.27
  15  -1  -2   -7.35  130.74
  15  -1   2 -332.28  138.95
 -15   1   2   -6.35  137.37
 -15   1   2   17.14   73.05
  15  -2  -2   70.07  134.50
 -15   2  -2 -120.29  139.31
  15  -2  -2   44.35  143.42
 -15   2  -2   38.79   82.79
  15  -2   2  104.28  134.61
 -15   2   2 -119.30   70.63
 -15   2   2  -58.81  161.64
  15  -2   2  169.29  130.54
  15  -3  -2 -156.05  159.54
 -15   3  -2  -58.74  166.02
  15  -3  -2   84.61  141.32
 -15   3  -2  102.65   80.27
 -15   3   2  -16.95  187.64
  15  -3   2  -73.02  141.07
  15  -3   2 -162.01  139.97
 -15   3   2   74.04   68.58
  15  -4  -2  -84.62  167.77
  15  -4  -2  -48.02  147.42
 -15   4  -2  202.96  188.12
  15  -4   2   15.47  151.55
 -15   4   2   24.67   72.92
  15  -5  -2 -289.36  189.90
 -15   5  -2    3.81   75.55
  15  -5   2   40.61  163.13
 -15   6  -2  -88.30   80.56
  15  -6   2   99.61  176.76
  16   7  -2    9.88  175.19
  16   6  -2 -187.53  146.65
  16   6   2 -166.23  183.92
  16   5  -2  144.53   90.09
 -16  -5  -2  202.59  155.83
  16   5  -2    1.39  122.97
 -16  -5   2    4.42  148.01
  16   5   2   -2.25   90.23
  16   5   2  100.54  157.24
  16   4  -2   45.80  117.46
 -16  -4  -2    9.62  162.38
  16   4  -2  193.49   87.68
  16   4   2   45.84   89.93
  16   4   2  219.30  130.14
 -16  -4   2    8.38  146.16
  16   3  -2    3.58   81.69
 -16  -3  -2  -96.08  151.62
  16   3  -2   -5.20  112.44
 -16  -3   2   69.14  100.36
  16   3   2    2.61  109.12
  16   3   2   99.39   83.31
 -16  -3   2  -93.33  133.95
  16   2  -2  -34.53   92.08
 -16  -2  -2   53.44  139.42
 -16  -2  -2  -92.91  113.71
  16   2  -2 -154.97  111.20
  16   2   2  -40.06   85.81
 -16  -2   2   80.53   91.93
 -16  -2   2  173.08  122.51
  16   2   2  -34.52  116.32
 -16  -1  -2   15.07  107.26
  16   1  -2  -66.72  118.33
 -16  -1  -2  -37.76  129.32
  16   1  -2   88.43  108.15
  16   1   2    2.05   93.74
 -16  -1   2  291.83  121.00
  16   1   2  -77.68  113.34
 -16  -1   2  -45.93   88.73
  16   0  -2 -144.49  132.49
  16   0  -2   24.42  121.28
 -16   0  -2  218.18  133.57
 -16   0  -2  137.21  102.41
 -16   0   2  142.84  133.21
  16   0   2 -133.81  114.81
  16   0   2  101.79  111.48
 -16   0   2   41.93   84.05
 -16   1  -2   43.60   93.97
 -16   1  -2  115.45  141.82
  16  -1  -2 -254.28  144.43
  16  -1  -2  -15.50  128.25
 -16   1   2  -31.62  149.53
 -16   1   2    9.61   80.00
  16  -1   2  227.46  140.34
  16  -1   2  129.94  123.47
  16  -2  -2  163.51  159.06
  16  -2  -2  143.76  160.22
 -16   2  -2  285.45  164.45
 -16   2  -2  159.36   98.36
  16  -2   2  240.66  157.35
 -16   2   2   59.88   88.43
 -16   2   2  153.43  179.86
  16  -2   2   69.80  140.86
 -16   3  -2 -155.76  182.37
  16  -3  -2   46.32  154.08
 -16   3  -2  -62.89   86.17
  16  -3  -2  103.25  170.91
  16  -3   2    6.23  150.39
 -16   3   2  389.20  203.63
 -16   3   2   38.92   76.92
  16  -3   2  217.52  154.05
 -16   4  -2 -106.84  205.86
  16  -4  -2  -17.17  161.44
  16  -4  -2 -263.02  193.62
 -16   4   2 -162.01  232.53
 -16   4   2   42.08   80.20
  16  -4   2   -3.45  166.80
  16  -5  -2  -81.52  207.91
 -16   5  -2  123.04  231.71
  16  -5   2   89.25  180.70
 -16   6  -2   63.64   97.03
  16  -6   2  201.22  198.13
  17   7  -2  -49.62  166.32
  17   6  -2  -24.63  147.00
  17   6   2   66.10  184.53
 -17  -6   2  113.83  157.16
  17   5  -2   96.38  135.99
  17   5  -2  135.35   94.55
 -17  -5  -2  -76.74  173.84
 -17  -5   2  -97.98  162.87
  17   5   2  149.89  160.76
  17   5   2  -61.37   98.89
 -17  -4  -2 -511.36  177.27
  17   4  -2   25.23   93.91
  17   4   2  -89.57   93.40
 -17  -4   2  -14.07  169.14
 -17  -4   2 -100.52  120.15
  17   3  -2  181.18  114.28
  17   3   2  -88.86  108.93
  17   3   2  572.71  153.30
 -17  -3   2 -127.67  124.22
 -17  -2  -2  625.07  296.31
  17   2  -2  468.35  280.89
 -17  -2  -2  138.71  281.01
  17   2   2  835.66  252.38
 -17  -2   2  409.84  264.74
  17   2   2 1062.93  290.93
 -17  -1  -2 -220.19  131.87
 -17  -1  -2 -335.96  165.53
 -17  -1   2 -364.55  146.83
 -17  -1   2  -80.19  110.72
 -17   0  -2 -232.51  128.47
 -17   0  -2 -336.11  162.35
 -17   0   2 -109.61  151.21
 -17   0   2  -92.29  103.94
 -17   1  -2  -48.90  115.61
 -17   1  -2   70.56  165.64
  17  -1  -2 -481.64  172.84
 -17   1   2 -204.04  172.97
 -17   1   2  -42.56   96.31
 -17   2  -2  252.24  237.21
 -17   2  -2  383.27  310.20
  17  -2  -2  698.81  289.63
  17  -2  -2  844.60  279.24
  17  -2   2  929.69  284.66
  17  -2   2 1068.29  281.11
 -17   2   2   55.84  226.10
 -17   2   2    4.44  312.90
 -17   3  -2   38.41  202.22
  17  -3  -2 -357.04  179.33
  17  -3  -2   53.51  190.82
 -17   3  -2   98.21  101.07
  17  -3   2  211.48  179.12
 -17   3   2  215.28   93.13
  17  -3   2 -126.13  174.18
 -17   3   2  126.55  220.93
  17  -4  -2 -297.06  217.51
 -17   4  -2 -138.55  220.06
 -17   4   2   25.09   84.67
  17  -4   2  186.33  188.31
  17  -5  -2  -37.33  224.47
 -17   5  -2  140.48  247.63
  17  -5   2  114.92  204.03
 -17   6  -2 -178.27  102.20
 -17   6  -2  -31.49  268.81
  17  -6   2 -485.16  213.85
  18   7  -2 1293.78  584.91
  18   6  -2  -73.49  152.31
 -18  -6   2 -354.57  178.19
  18   6   2   87.31  186.30
 -18  -5  -2  -79.27  189.10
  18   5  -2 -138.42  102.09
  18   5  -2   57.52  152.01
 -18  -5   2 -364.37  183.46
 -18  -5   2 -154.62  144.20
  18   5   2  339.97  166.62
  18   5   2  212.84  107.02
  18   4  -2   33.72  144.82
 -18  -4  -2 -121.61  204.38
  18   4  -2  -81.00   99.52
  18   4   2  -17.78  104.71
 -18  -4   2  -13.47  131.26
 -18  -4   2  152.31  186.79
  18   4   2   84.44  153.58
  18   3  -2   52.83  147.52
 -18  -3  -2   64.68  207.70
  18   3  -2  145.42  110.97
 -18  -3  -2   49.84  151.45
 -18  -3   2  141.30  184.58
  18   3   2  219.83  112.66
 -18  -3   2  -91.32  131.60
  18   3   2  250.77  159.39
 -18  -2  -2  222.78  141.59
  18   2  -2   77.70  116.21
  18   2  -2  -85.21  142.00
 -18  -2  -2  453.98  196.58
 -18  -2   2  183.05  168.56
 -18  -2   2  -16.84  119.63
  18   2   2  -10.63  151.10
  18   2   2   76.79  110.44
 -18  -1  -2  153.38  179.13
  18   1  -2   82.91  149.99
 -18  -1  -2    4.74  129.89
  18   1  -2  211.81  131.45
 -18  -1   2  249.27  111.80
  18   1   2 -282.64  119.48
  18   1   2  -33.71  140.30
 -18  -1   2  250.99  157.81
  18   0  -2   64.16  180.59
  18   0  -2  142.09  180.02
 -18   0  -2  394.08  200.31
 -18   0  -2  225.76  151.29
  18   0   2  204.06  180.55
  18   0   2  259.68  159.44
 -18   0   2  392.67  192.10
 -18   0   2  175.79  131.95
  18  -1  -2 -394.07  177.60
  18  -1  -2   22.87  186.84
 -18   1  -2  237.48  119.45
 -18   1  -2  148.98  178.11
  18  -1   2  -91.22  166.29
 -18   1   2  115.82   98.26
  18  -1   2  201.15  170.65
 -18   1   2   39.67  179.72
  18  -2  -2 -127.11  186.79
 -18   2  -2  -31.58  118.57
  18  -2  -2  283.92  192.24
 -18   2  -2   77.55  204.47
 -18   2   2   70.02   97.62
 -18   2   2   49.03  210.68
  18  -2   2   30.05  177.96
  18  -2   2  337.95  194.65
  18  -3  -2 -231.43  209.57
  18  -3  -2  220.14  189.03
 -18   3  -2  179.86  113.39
 -18   3  -2  -85.54  221.92
 -18   3   2  -22.16  247.29
  18  -3   2  286.05  205.05
  18  -3   2  237.87  207.72
 -18   3   2    4.29   97.38
  18  -4  -2  -23.08  197.42
 -18   4  -2  181.58  247.54
  18  -4  -2   75.19  228.59
 -18   4  -2 -115.01  112.89
 -18   4   2 -253.55  284.16
  18  -4   2    2.85  196.28
  18  -4   2 -119.04  203.40
 -18   4   2   78.21   92.88
 -18   5  -2 -185.61  276.87
  18  -5   2    4.56  219.08
 -18   6  -2   27.39  293.79
  19   7  -2 -189.72  180.04
  19   6  -2 -130.37  179.56
 -19  -6   2 -427.78  204.11
  19   6   2   13.23  197.22
 -19  -5  -2 -122.48  217.01
  19   5  -2   79.96  117.36
  19   5  -2  255.15  187.23
  19   5   2  216.45  126.50
 -19  -5   2  -72.61  203.19
 -19  -5   2   73.11  161.19
  19   5   2   49.98  188.66
 -19  -4  -2   17.25  172.44
 -19  -4  -2 -232.44  239.73
 -19  -4   2 -477.28  223.52
 -19  -4   2  105.94  150.80
  19   3  -2 5455.52 1901.71
  19   3  -2 6930.32 1972.92
  19   3   2 5402.90 1898.44
  19   3   2 7752.18 1993.42
 -19  -2  -2  783.18  288.99
 -19  -2  -2 -337.31  176.25
 -19   0  -2 -516.57  191.77
 -19   0   2 -497.58  165.83
  19  -2  -2 -524.17  243.12
 -19   2  -2  509.91  238.87
 -19   2  -2  -85.38  132.27
 -19   2   2  -46.27  118.55
 -19   2   2  354.16  243.42
  19  -3  -2 4790.08 1629.29
  19  -3  -2 5360.49 1558.69
  19  -3   2 3654.84 1609.45
 -19   4  -2  -85.87  124.30
 -19   4  -2 -194.09  273.13
 -19   4   2  -20.24  104.02
 -19   4   2 -100.99  285.14
 -19   5  -2  147.26  317.52
  19  -5   2  402.62  275.05
 -19   6  -2  254.90  337.36
  19  -6   2 -458.45  279.34
  20   6  -2  147.88  197.33
  20   6   2   60.97  202.64
 -20  -6   2  -72.49  183.08
 -20  -6   2   86.74  206.44
 -20  -5  -2  289.48  245.82
  20   5  -2 -156.11  121.76
 -20  -5  -2   79.43  199.91
  20   5  -2  -19.98  191.38
  20   5   2  161.71  207.17
 -20  -5   2  -23.28  169.65
 -20  -5   2 -202.41  218.25
  20   5   2   26.29  131.21
 -20  -4  -2  141.35  189.98
 -20  -4  -2  -46.26  253.65
  20   4  -2   88.32  131.40
  20   4  -2  200.95  183.69
 -20  -4   2 -581.71  252.20
  20   4   2   97.42  201.03
 -20  -4   2  299.26  166.19
  20   4   2   45.09  133.49
  20   3  -2  -62.63  187.12
 -20  -3  -2  513.05  189.43
  20   3  -2  -51.86  131.24
 -20  -3  -2  -68.05  259.33
  20   3   2   -9.37  133.41
  20   3   2  146.08  197.16
 -20  -3   2   70.99  243.03
 -20  -3   2   92.57  153.50
  20   2  -2   98.80  192.86
 -20  -2  -2 -103.35  167.68
  20   2  -2  -35.21  137.78
 -20  -2  -2 -309.06  277.86
 -20  -2   2   99.75  143.35
  20   2   2   73.55  136.43
 -20  -2   2  146.26  227.22
  20   2   2  -12.98  180.39
 -20  -1  -2   58.89  162.89
 -20  -1  -2 -474.68  256.19
  20   1  -2 -117.24  154.27
  20   1  -2  436.24  208.90
  20   1   2   19.26  148.46
 -20  -1   2  157.12  131.90
  20   1   2  101.31  191.25
 -20  -1   2 -205.08  219.15
 -20   0  -2  159.65  238.68
 -20   0  -2 -202.28  153.34
  20   0  -2   61.92  193.07
  20   0  -2  223.81  212.48
  20   0   2   67.40  213.27
  20   0   2  399.13  173.68
 -20   0   2 -116.42  226.87
 -20   0   2   29.79  127.19
  20  -1  -2  151.74  225.03
 -20   1  -2 -250.28  240.85
 -20   1  -2   -5.62  144.72
  20  -1  -2 -162.30  234.38
 -20   1   2  227.65  124.79
 -20   1   2   39.57  230.90
  20  -1   2 -142.18  222.31
  20  -1   2  438.85  202.00
  20  -2  -2  -30.79  232.34
  20  -2  -2 -137.23  262.50
 -20   2  -2 -123.64  142.45
 -20   2  -2 -201.04  255.83
 -20   2   2  345.46  120.02
 -20   2   2 -237.91  259.12
  20  -2   2  202.91  241.61
  20  -2   2 -315.74  237.88
 -20   3  -2 -252.97  281.69
  20  -3  -2   10.66  265.06
  20  -3  -2  101.43  236.56
 -20   3  -2   29.07  142.47
 -20   3   2  309.08  283.66
  20  -3   2  466.38  277.02
 -20   3   2 -160.93  127.21
  20  -3   2  686.72  255.62
 -20   4  -2    5.97  107.05
 -20   4  -2 -689.50  318.97
  20  -4  -2 -120.77  288.01
 -20   4   2 -152.01  115.78
 -20   4   2   44.13  319.77
  20  -4   2   -5.61  280.04
  20  -4   2    3.51  200.12
  21   3  -2  216.06  156.95
 -21  -3   2   14.65  266.27
  21   2  -2   -3.30  151.95
 -21  -2   2  -35.59  266.59
  21   1  -2  -50.43  172.12
 -21  -1   2  131.90  252.80
   0   0  -3   -0.69    1.57
   0   0  -3   -0.91    1.26
   0   0   3    0.16    1.31
   1   0   3  592.57  173.27
   1   0   3  620.90  174.16
   1   1  -3    0.79    1.81
  -1   1  -3    0.97    1.13
  -1   1  -3    1.19    1.85
  -1  -1   3    0.37    2.14
   1  -1   3   -0.15    0.57
   2   1  -3  324.53  137.05
   2   1  -3  425.92  141.92
  -1   2  -3  451.99  127.23
   2   1  -3  160.12  146.53
   2   1  -3  461.21  123.63
  -2  -1   3  399.92  137.86
  -2  -1   3  370.71  141.23
   1  -2   3  499.19  130.91
   2   0  -3    3.69   16.94
  -2   0  -3   -1.25    6.55
   0   2  -3    0.27    2.59
   2   0  -3   -0.19    1.81
   2   0  -3    0.27    3.48
  -2   0   3    0.44    3.90
  -2   0   3    6.87    7.10
   0  -2   3    0.43    2.62
   2   0   3   -0.22    6.84
   2   0   3   -0.62   10.08
   1   2  -3  392.27  113.22
   2  -1   3  317.50  117.74
   2  -1   3  164.16  130.75
   2   2  -3    0.45    3.74
   2   2  -3    3.04   11.15
   2   2  -3    0.28    2.97
  -2   2  -3   -0.68    9.34
   2  -2   3    1.44   25.10
  -2  -2   3    2.21    3.61
   3   2  -3   43.88   15.66
   3   2  -3   34.09   19.06
   3   2  -3   22.58   23.26
   3   2  -3   43.62   14.36
  -3  -2   3   49.84   20.11
  -3  -2   3   47.12   15.27
   3   1  -3  118.22   86.98
   3   1  -3  245.86   84.46
  -3  -1  -3  172.48   87.13
   3   1  -3  201.97   72.93
   3   1  -3  271.82   82.18
   3   1   3  269.78   84.74
  -3  -1   3  249.84   82.92
  -3  -1   3  261.24   85.14
   3   0  -3   86.20   69.12
   3   0  -3  177.22   57.73
  -3   0  -3  171.32   56.37
   3   0  -3  128.25   59.64
   3   0  -3  182.65   51.37
  -3   0   3  132.89   62.03
   3   0   3  145.03   56.60
  -3   0   3  191.53   58.08
   3   0   3  151.43   66.14
   3  -1   3  111.79   78.89
   3  -1   3  217.28   71.76
   2   3  -3   44.14   14.56
  -3   2  -3   27.10   19.22
  -2  -3   3   46.05   15.17
   3  -2   3   36.79   23.43
   3  -2   3   20.68   28.47
   3   3  -3    4.17    5.82
   3   3  -3   -2.89   21.88
  -3   3  -3    9.97   19.38
   3   3  -3    0.98    6.27
  -3  -3   3    0.42    6.47
   4   3  -3   21.91   10.60
   4   3  -3   17.02   10.07
   4   3  -3   38.89   27.99
   4   3  -3   16.28   18.66
  -4  -3   3    0.80   22.49
  -4  -3   3   22.14   11.10
   4   2  -3  418.90  151.49
   4   2  -3  460.90  135.69
  -4  -2  -3   17.13  149.98
   4   2  -3  497.92  124.58
   4   2  -3  355.15  164.41
  -4  -2   3  394.79  144.51
   4   1  -3  109.93   29.69
   4   1  -3  105.10   34.13
   4   1  -3   45.26   36.78
  -4  -1  -3  105.03   39.48
   4   1  -3   83.95   36.75
  -4  -1   3   81.41   37.52
   4   1   3   95.68   36.42
  -4  -1   3   96.13   34.75
   4   0  -3    0.34   19.87
   4   0  -3    0.23    2.99
  -4   0  -3    6.08   13.12
   4   0  -3   -0.35    7.05
   4   0  -3   -2.27   16.42
   4   0   3   -0.44   16.10
  -4   0   3    1.18    7.49
   4   0   3    1.77   20.94
  -4   0   3   -8.50   12.81
   4  -1  -3  162.43   58.22
  -4   1  -3  101.19   37.96
   4  -1  -3   83.04   30.16
   4  -1   3   34.70   37.93
   4  -1   3   93.34   36.48
  -4   1   3   81.81   38.73
  -4   2  -3  582.94  141.81
   4  -2   3  221.40  161.15
   4  -2   3  296.01  149.64
  -4   3  -3   32.90   23.03
   4  -3   3   28.27   53.21
   4  -3   3   21.21   32.42
  -3  -4   3   20.53   13.04
   5   4  -3   92.44   53.13
   5   3  -3  675.10  253.09
   5   3  -3  697.71  226.65
   5   3  -3  705.84  280.53
  -5  -3   3  408.50  245.25
   5   2  -3 2597.48  775.30
   5   2  -3 1838.78  730.80
   5   2  -3 1278.05  825.18
   5   2  -3 1760.10  682.76
  -5  -2   3 2730.19  757.99
   5   1  -3  162.92   55.57
   5   1  -3   80.82   66.77
  -5  -1  -3  225.93   66.97
   5   1  -3  182.79   66.56
   5   1  -3  216.25   63.55
   5   1   3  177.81   64.54
  -5  -1   3  167.50   65.66
  -5  -1   3  156.14   67.73
   5   0  -3   10.40   10.36
  -5   0  -3    8.77   20.27
   5   0  -3   10.81    5.86
   5   0  -3   13.88   24.94
   5   0  -3    8.21   26.66
  -5   0   3   14.09   17.23
  -5   0   3   13.58   10.88
   5   0   3   28.20   23.38
   5  -1  -3  177.82   88.78
  -5   1  -3  202.01   71.72
   5  -1  -3  183.22   76.11
   5  -1  -3  171.33   60.04
  -5   1   3  195.89   69.86
   5  -1   3  139.16   68.60
   5  -2   3 1911.68  748.70
  -5   4  -3   57.41   40.46
   6   5  -3  -12.65   50.89
   6   4  -3  187.86   64.35
  -6  -4   3  232.30   66.54
  -6  -3  -3   13.14   52.13
   6   3   3  165.20   56.44
   6   2  -3    5.80    9.95
  -6  -2  -3    9.59   40.47
   6   2  -3   12.16    7.68
  -6  -2   3   10.88   10.15
   6   2   3   27.39   25.19
   6   1  -3   28.50   17.77
   6   1  -3   29.65   13.84
  -6  -1  -3   67.08   31.16
  -6  -1   3   27.37   18.18
   6   1   3  108.50   26.84
   6   0  -3    4.47    5.36
   6   0  -3   -6.23   11.30
  -6   0   3    6.61   12.27
  -6   1  -3   72.04   32.50
   6  -1  -3   36.95   13.72
   6  -1   3   11.15   32.10
   6  -2  -3   43.64   47.41
  -6   2  -3   15.85   25.94
   6  -2  -3   -1.21   68.60
  -6   2   3    8.09   28.83
   6  -2   3   30.04   32.73
   6  -2   3    7.78   35.42
  -6   3  -3  104.52   40.17
   6  -3   3   59.69   61.75
   6  -3   3   45.13   52.48
  -6   4  -3  205.94   83.42
   6  -4   3  387.24  111.79
   6  -4   3  193.11   90.89
   7   5  -3  -10.46   16.61
   7   4  -3 -148.49   55.10
   7   4  -3  -25.99   35.82
   7   4  -3   33.06   15.09
   7   4  -3   41.46   15.33
  -7  -4   3  -16.21   45.05
  -7  -4   3   50.73   17.71
   7   3  -3  191.15  109.83
   7   3  -3  267.96   95.37
  -7  -3  -3   49.01  102.48
   7   3   3  290.63   94.06
   7   3   3  228.18  112.03
  -7  -3   3  311.65   97.28
   7   2  -3   24.57   33.03
  -7  -2  -3   -5.42   43.07
   7   2  -3  -15.74   37.01
   7   2  -3   12.18   11.53
   7   2   3   51.35   27.08
  -7  -2   3   12.39   28.83
  -7  -2   3   14.17   12.11
   7   2   3   -2.89   47.53
   7   1  -3   19.20   33.17
   7   1  -3    9.45   12.98
   7   1  -3  -56.55   30.89
  -7  -1  -3    9.37   31.04
   7   1  -3   22.74    7.65
  -7  -1   3   40.20   32.57
   7   1   3   17.69    8.29
  -7  -1   3   19.07   13.50
   7   1   3   11.69   28.03
  -7  -1   3    0.97   24.59
   7   0  -3  381.17   96.33
   7   0  -3  277.92  111.61
   7   0  -3  149.23  115.33
   7   0  -3  247.87  115.57
  -7   0  -3  208.32  112.36
   7   0   3  411.10  110.07
  -7   0   3  319.44  128.01
  -7   0   3  376.44  107.97
   7  -1  -3   10.13   42.68
   7  -1  -3  -14.26   50.11
  -7   1  -3   17.85   37.30
   7  -1  -3   18.27    8.10
  -7   1  -3   10.91   28.68
   7  -1   3    8.80   33.65
  -7   1   3   -9.96   27.04
   7  -1   3   28.59   34.33
   7  -2  -3    4.00   52.05
   7  -2  -3   22.89   10.92
   7  -2  -3   -1.17   68.63
  -7   2  -3   11.75   29.24
   7  -2   3   13.55   40.69
  -7   2   3   14.78   28.57
   7  -2   3   -0.52   35.89
  -7   3  -3  140.82   87.26
   7  -3   3  261.22  108.05
   7  -3   3  218.52  102.57
  -7   4  -3    9.41   35.08
   7  -4   3  -29.54   82.50
   7  -4   3    5.37   57.50
   7  -5   3 -114.26   70.13
   8   6  -3  428.14  167.81
   8   6  -3  320.05  128.36
   8   5  -3   71.69   26.00
   8   5  -3   70.17   71.58
  -8  -5   3  -30.45   50.38
   8   4  -3   84.05   40.70
   8   4  -3   -0.78   62.64
   8   4  -3   41.51   21.54
   8   4  -3   64.44   20.92
  -8  -4  -3   15.50   54.29
   8   4   3   55.04   64.37
  -8  -4   3   35.96   24.42
  -8  -4   3   31.92   54.31
   8   3  -3  289.18   86.04
   8   3  -3  186.74   82.36
  -8  -3  -3   84.32  104.96
   8   3   3  307.02   93.29
   8   3   3  388.13  112.76
  -8  -3   3  220.83   87.04
  -8  -2  -3  105.08   57.44
   8   2   3   87.23   29.85
   8   2   3   45.98   44.16
   8   2   3   -2.47   69.42
   8   1  -3   29.70   17.96
  -8  -1  -3   50.35   39.64
  -8  -1   3   -6.80   41.35
  -8  -1   3   29.79   20.58
  -8  -1   3   46.72   32.79
   8   1   3   35.20   13.56
   8   1   3   23.72   34.85
  -8   0  -3  -10.29   36.61
   8   0  -3   -6.05    6.67
  -8   0  -3   -3.96    6.62
   8   0  -3  -51.93   44.87
   8   0  -3   -3.87   14.51
   8   0   3  -50.59   43.38
  -8   0   3   -0.50   17.31
  -8   0   3  -10.65   46.53
  -8   0   3   -7.39   29.19
   8   0   3    1.09    5.24
  -8   1  -3    1.41   35.42
   8  -1  -3  -17.01   55.23
   8  -1  -3  -82.19   56.24
  -8   1  -3   57.26   46.20
   8  -1  -3   51.14   12.93
   8  -1   3  -38.00   45.19
  -8   1   3   49.86   32.24
   8  -2  -3   58.04   75.62
   8  -2  -3  108.38   33.40
  -8   2  -3   67.28   47.49
   8  -2  -3 -175.77   91.98
   8  -2   3  104.03   58.92
   8  -2   3  248.59   62.27
  -8   2   3   95.68   47.31
   8  -3  -3   60.86  100.55
  -8   3  -3  218.81   68.16
   8  -3   3  137.69   90.97
   8  -3   3 -116.81   94.61
  -8   3   3  320.87   74.76
  -8   4  -3    7.86   39.29
   8  -4   3  -15.64   84.41
   8  -4   3  -22.45   67.23
  -8   5  -3   47.72   48.64
   8  -5   3   91.14   75.91
   9   6  -3    9.31   22.12
   9   6  -3  -51.54   82.83
   9   5  -3  576.78  151.72
   9   5  -3  337.35  179.96
   9   5  -3  404.51  134.24
  -9  -5   3   66.97  150.97
   9   4  -3  550.42  137.40
   9   4  -3  345.39  119.62
  -9  -4  -3  -12.13  145.31
   9   4  -3  186.57  160.81
   9   4  -3  390.24  125.74
  -9  -4   3  411.37  145.43
   9   4   3  292.86  134.80
   9   4   3  457.42  162.70
  -9  -4   3  395.72  130.39
   9   3  -3  104.11   33.07
   9   3  -3   85.07   47.45
  -9  -3  -3   -4.42   75.55
   9   3  -3   14.06   63.98
   9   3  -3   78.19   31.02
  -9  -3   3   89.66   34.68
   9   3   3   92.09   50.07
  -9  -3   3   68.64   34.21
   9   3   3  100.00   75.69
  -9  -3   3  131.26   55.56
   9   2  -3  -11.12   42.06
   9   2  -3   10.29   11.78
   9   2  -3   -0.97   44.04
  -9  -2  -3   22.52   51.75
  -9  -2   3    7.83   16.32
   9   2   3   46.49   36.64
  -9  -2   3   23.62   40.88
   9   2   3   -2.69   63.58
  -9  -1  -3   25.41   43.00
   9   1  -3  -53.94   42.49
   9   1  -3  -25.00   47.55
  -9  -1   3  -42.08   43.58
  -9  -1   3   47.80   34.60
   9   1   3  -11.32   39.88
   9   1   3  -51.85   56.06
   9   0  -3  -45.22   51.88
   9   0  -3   11.48   16.36
   9   0  -3   34.47   44.12
  -9   0  -3    2.41   44.30
  -9   0   3    1.67   19.15
   9   0   3   41.18   50.62
  -9   0   3   -6.78   54.06
  -9   0   3    1.40   34.34
   9  -1  -3   24.11   58.65
  -9   1  -3   36.77   51.07
   9  -1  -3    2.97    7.58
   9  -1  -3  -25.28   58.21
   9  -1   3 -129.64   52.23
  -9   1   3  -21.40   32.65
  -9   2  -3   19.66   61.92
   9  -2  -3   73.34   70.36
  -9   2  -3   39.12   40.37
   9  -2  -3  -45.01   78.46
   9  -2   3   11.28   52.31
   9  -2   3   70.27   55.46
  -9   2   3   17.94   38.00
   9  -3  -3   17.47   95.53
   9  -3  -3   17.65   85.95
  -9   3  -3   48.80   45.65
   9  -3   3   49.57   72.81
   9  -3   3   89.71   69.69
  -9   3   3  116.19   47.98
  -9   4  -3  368.71  141.82
   9  -4   3  337.33  171.23
   9  -4   3  427.56  164.10
  -9   5  -3  487.30  172.84
   9  -5   3  505.36  195.46
   9  -5   3  438.43  207.55
  10   6  -3  167.09   67.34
  10   6  -3  186.65  123.23
  10   5  -3  230.57   71.72
  10   5  -3  229.73   87.97
  10   5  -3  154.12  117.70
 -10  -5   3   59.45   99.22
  10   4  -3   50.12   81.49
 -10  -4  -3   -2.67   77.62
  10   4  -3   27.90   23.96
  10   4  -3   88.35   46.87
  10   4  -3   40.36   23.84
 -10  -4   3   35.35   71.52
  10   4   3  123.42   51.71
 -10  -4   3   39.16   28.45
  10   4   3   58.90   83.54
  10   3  -3  137.62   46.12
  10   3  -3   58.07   25.56
  10   3  -3   41.36   23.00
 -10  -3  -3   64.10   76.35
  10   3  -3   -4.97   61.74
  10   3   3   45.03   83.08
 -10  -3   3  110.54   58.33
  10   3   3  109.83   48.14
 -10  -3   3   33.93   25.63
 -10  -3   3   47.79   28.51
  10   2  -3   38.06   59.15
  10   2  -3   85.21   37.10
  10   2  -3   86.54   41.06
 -10  -2  -3  132.70   72.26
  10   2  -3  174.38   62.93
  10   2   3  112.64   54.58
  10   2   3   57.79   82.65
 -10  -2   3  186.47   42.41
 -10  -2   3   81.07   44.37
 -10  -2   3  110.39   60.35
  10   1  -3   81.59   63.21
 -10  -1  -3  195.01   61.77
  10   1  -3   60.30   59.74
  10   1  -3   66.95   32.82
 -10  -1   3   90.15   37.68
 -10  -1   3  106.02   61.70
 -10  -1   3   77.83   52.07
  10   1   3  112.40   70.36
  10   1   3  120.32   57.55
  10   0  -3    6.05   57.89
 -10   0  -3  -16.76   51.93
  10   0  -3   49.30   53.08
 -10   0   3  -60.40   64.38
  10   0   3   36.01   56.02
 -10   0   3  -14.34   37.32
  10  -1  -3  110.52   78.28
  10  -1  -3  123.26   77.82
 -10   1  -3  114.37   71.92
  10  -1   3  161.57   67.68
 -10   1   3   54.16   53.33
 -10   2  -3  277.08   83.92
  10  -2  -3   85.38   92.76
  10  -2  -3   56.33   95.00
 -10   2  -3  119.30   62.61
  10  -2   3  153.54   76.97
 -10   2   3   42.60   56.36
  10  -3  -3  -19.14   91.20
 -10   3  -3   68.19   44.40
  10  -3  -3  -36.80  100.93
  10  -3   3    1.06   74.18
 -10   3   3   11.57   44.19
  10  -3   3  -64.17   73.91
 -10   4  -3   26.96   48.79
  10  -4  -3 -105.52  103.75
  10  -4   3  -70.98   84.72
  10  -4   3   68.02   98.13
 -10   5  -3  198.01   78.96
  10  -5   3  103.54  114.45
  10  -5   3   58.44  125.78
  10  -6   3  316.34  145.25
  11   7  -3  204.46  133.67
  11   6  -3 -127.53  107.96
  11   6  -3   14.31   25.33
  11   5  -3  238.78   87.89
  11   5  -3   57.18   67.45
  11   5   3  464.07  128.54
 -11  -5   3  104.77  107.81
  11   4  -3   72.96   54.43
 -11  -4  -3  -11.76   89.23
  11   4  -3   73.05   32.83
  11   4  -3   82.09   34.03
  11   4  -3   89.02   85.07
 -11  -4   3   81.25   34.55
  11   4   3  125.01  103.55
 -11  -4   3   22.12   83.49
  11   4   3  169.17   59.22
 -11  -4   3   31.24   38.81
 -11  -3  -3  108.39   84.69
  11   3  -3   71.49   53.64
  11   3  -3   72.93   63.56
  11   3   3  -26.27   95.94
 -11  -3   3   44.74   67.08
 -11  -3   3   60.48   32.15
 -11  -3   3   77.12   34.64
  11   3   3  140.43   53.86
  11   2  -3  -25.45   55.93
  11   2  -3    1.24   59.92
 -11  -2  -3   53.55   70.70
  11   2   3  -13.02   78.66
 -11  -2   3    9.94   57.04
  11   2   3  102.88   47.72
 -11  -1  -3   -5.05   61.93
  11   1  -3  -11.75   56.62
  11   1  -3  -42.10   65.72
 -11  -1   3   51.22   61.07
  11   1   3   31.09   60.63
  11   1   3   -7.00   51.85
 -11  -1   3   12.25   45.22
 -11   0  -3  154.90   80.29
  11   0  -3   51.03   78.09
  11   0  -3  160.38   84.80
 -11   0   3   98.65   64.85
  11   0   3   78.75   79.17
  11   0   3  293.24   85.90
 -11   0   3  134.92   90.82
 -11   1  -3  -23.41   72.17
  11  -1  -3   -4.03   72.76
  11  -1  -3   11.14   78.17
  11  -1   3  -78.14   68.47
 -11   1   3    1.88   43.81
 -11   1   3  -50.82   91.11
  11  -2  -3  -15.26   88.31
 -11   2  -3  -10.56   85.39
  11  -2  -3  -81.72   92.58
 -11   2   3  -16.67   45.45
  11  -2   3  -52.76   73.61
 -11   3  -3   37.91   53.63
  11  -3  -3   94.08  106.59
  11  -3  -3   14.79  102.86
  11  -3   3  -71.04   82.67
  11  -3   3   41.95   85.50
 -11   3   3   38.71   48.71
 -11   4  -3  109.61   55.24
  11  -4  -3   83.73  117.13
 -11   4   3   26.20   56.73
  11  -4   3   98.26   97.95
  11  -4   3  -86.81  108.56
 -11   5  -3  113.91   76.98
  11  -5   3   18.22  123.99
 -11   6  -3  -62.75   59.90
  11  -6   3 -302.11  114.68
  12   7  -3 -159.23  138.86
  12   6  -3 -111.61  118.17
 -12  -6   3   20.66   87.53
  12   5  -3   55.06   60.06
 -12  -5  -3  -48.16   96.00
  12   5  -3  -44.93  100.76
  12   5   3  -15.79  118.01
 -12  -5   3 -108.06   94.11
  12   4  -3   39.99   54.64
  12   4  -3   27.98   85.95
 -12  -4  -3   64.94   99.82
  12   4   3   54.87  111.84
  12   4   3   12.10   59.71
 -12  -4   3  -34.68   90.94
  12   3  -3   55.03   54.20
 -12  -3  -3   64.50   91.38
  12   3  -3  -78.10   64.60
  12   3   3   27.29   98.37
  12   3   3   95.58   55.96
 -12  -3   3   37.05   72.15
 -12  -2  -3  -53.72   89.49
  12   2  -3  -26.62   74.28
 -12  -2   3  -21.92   59.64
 -12  -2   3   49.96   65.67
  12   1  -3  532.11  358.86
 -12  -1  -3  641.49  364.10
  12   1  -3  820.77  366.65
 -12  -1   3  441.81  380.92
 -12  -1   3  428.66  347.26
  12   0  -3  209.33  100.69
 -12   0  -3  240.27   98.24
  12   0  -3  122.78   97.01
 -12   0   3   53.26  105.58
 -12   0   3  -14.02   76.58
 -12   1  -3 1019.95  472.83
  12  -2  -3 -117.07  102.21
 -12   2  -3 -147.51  107.00
  12  -2  -3 -220.73  106.73
 -12   2   3   38.52   49.15
 -12   3  -3   75.12  117.56
  12  -3  -3   -3.41  110.56
 -12   3  -3   29.78   58.28
  12  -3  -3   12.42  115.96
  12  -3   3 -259.57   95.44
  12  -3   3   21.62   95.73
 -12   3   3   10.25   51.38
 -12   4  -3    7.99   60.78
  12  -4  -3   81.81  132.74
  12  -4   3    1.67  118.56
  12  -4   3 -125.85  107.66
 -12   4   3   12.03   54.41
 -12   5  -3   44.45   59.85
  12  -5   3 -175.82  120.12
  12  -6   3   -2.74  123.34
  13   7  -3  776.83  361.54
  13   6  -3   93.32  139.38
 -13  -6   3   32.60   97.72
  13   5  -3  -43.78   63.51
  13   5  -3   49.34  109.77
 -13  -5   3   78.85  107.05
  13   4  -3   97.68   85.71
  13   4  -3  -24.63   62.50
 -13  -4   3  118.94  100.44
 -13  -3  -3  -37.65  106.35
  13   3  -3  -20.83   59.98
  13   3  -3   66.99   73.27
 -13  -3   3   -8.81   81.96
  13   3   3   23.12   59.64
  13   2  -3    1.48   76.98
 -13  -2  -3   50.27   98.67
  13   2  -3  -57.90   82.04
 -13  -2   3    9.43   78.62
 -13  -2   3  -58.78   69.05
  13   2   3   34.19   65.08
 -13  -1  -3  -19.79   89.62
  13   1  -3 -196.89   95.99
  13   1  -3   33.17   80.88
  13   1   3    4.46   76.23
 -13  -1   3   29.32   89.06
 -13  -1   3  -44.86   69.78
 -13   0  -3  317.29   93.16
 -13   0  -3   56.72  100.80
  13   0  -3 -144.10   95.92
  13   0  -3   92.63  100.14
 -13   0   3  -44.76   71.25
  13   0   3  132.72   97.52
 -13   0   3   95.26  109.18
  13  -1  -3 -160.48  100.76
  13  -1  -3 -148.02  106.93
 -13   1  -3  356.91   81.35
 -13   1  -3  -16.37  103.74
 -13   1   3  -15.98   65.80
  13  -1   3 -237.46  102.01
 -13   1   3  -28.70  119.40
 -13   2  -3   72.18  120.15
  13  -2  -3  -22.99  118.46
  13  -2  -3  -18.92  116.25
 -13   2   3   19.81   61.49
  13  -2   3  -99.02  103.25
  13  -3  -3 -256.24  133.25
 -13   5  -3    6.39   67.04
  13  -5   3 -247.11  132.89
 -13   6  -3    3.62   70.40
  13  -6   3  104.27  142.52
  14   7  -3 -183.14  164.59
 -14  -5  -3 -103.73  150.29
  14   5   3  181.02  162.89
  14   5   3  320.33  101.10
 -14  -4  -3 -147.58  133.08
  14   4   3   68.16   73.62
  14   4   3  221.44  132.66
 -14  -3  -3  658.33  163.67
 -14  -3   3    7.45  146.31
  14   2  -3    3.30  116.72
 -14  -2   3  -11.28  129.94
 -14  -1  -3   15.52   88.12
 -14  -1   3   93.53   89.23
  14   1   3 -129.70   91.65
 -14   0  -3  -30.44   83.88
  14   0   3  -48.12   90.87
 -14   1  -3   18.16   76.28
  14  -1   3 -154.13   88.75
 -14   2  -3  652.19  310.98
  14  -2   3 1163.07  302.67
  14  -3  -3   13.43  149.75
 -14   3  -3   41.35  176.96
 -14   3   3  -17.97   94.34
  14  -3   3  154.74  149.58
 -14   4  -3   89.94  166.87
 -14   4  -3  -12.91   72.10
  14  -4  -3 -458.86  170.20
  14  -4   3    2.71  131.84
 -14   4   3  -43.38   63.29
 -14   5  -3   24.29   80.29
  14  -5   3  -92.31  157.36
  14  -5   3  245.00  160.06
 -14   6  -3  115.95   84.83
  14  -6   3  152.48  163.10
  15   7  -3   -3.50  154.79
  15   6  -3  101.75  139.43
  15   6  -3   96.93   84.03
  15   6   3  126.03  175.51
 -15  -6   3   75.08  127.93
 -15  -5  -3 -274.54  144.55
  15   5  -3  -15.80  116.01
  15   5  -3  134.32   76.39
 -15  -5   3  185.66  130.16
  15   5   3 -186.00  154.36
  15   5   3   37.98   81.04
  15   4  -3    3.39   99.83
  15   4  -3   37.88   71.67
 -15  -4  -3    8.88  145.29
 -15  -4   3  -20.75  127.04
  15   4   3  114.68  132.79
  15   4   3 -106.00   80.39
  15   3  -3   44.85   97.84
  15   3  -3  -19.24   76.33
 -15  -3  -3  -31.69  133.08
  15   3   3 -104.28  110.39
 -15  -3   3   79.77   88.28
  15   3   3   49.57   75.58
 -15  -3   3   78.27  110.90
 -15  -2  -3  -75.12  127.31
  15   2  -3   77.76   85.16
  15   2  -3 -157.37  100.18
  15   2   3  -50.26  106.70
 -15  -2   3  -63.24   79.66
 -15  -2   3   91.41  103.96
  15   2   3   27.36   79.19
 -15  -1  -3  152.96  100.11
 -15  -1  -3  -18.19  115.39
  15   1  -3 -120.24  120.20
  15   1  -3 -210.91  104.33
  15   1   3  -90.93   90.32
 -15  -1   3   33.92   76.31
 -15  -1   3   -5.12  103.11
  15   1   3 -120.58  112.59
 -15   0  -3 -124.73  114.82
 -15   0  -3  -41.12   97.44
  15   0  -3  -39.88  123.53
 -15   0   3  -11.21   71.77
 -15   0   3   69.40  117.90
 -15   1  -3  -91.56   91.08
  15  -1  -3   37.05  124.78
  15  -1  -3   32.43  131.06
 -15   1  -3  -79.76  123.13
  15  -1   3  -30.19  110.10
  15  -1   3  -60.51  129.60
 -15   1   3  -73.38  137.99
 -15   1   3    5.68   69.62
  15  -2  -3  -85.69  141.27
 -15   2  -3 -101.61  139.90
  15  -2  -3   99.43  144.96
 -15   2   3  -78.26   69.81
  15  -2   3    2.54  126.69
 -15   2   3   26.08  161.01
  15  -3  -3 -109.58  158.85
  15  -3  -3   39.14  142.10
 -15   3  -3   84.16  159.15
 -15   3   3   -4.31  181.50
  15  -3   3   -2.72  133.14
 -15   3   3   99.83   70.10
 -15   4  -3 -125.14  185.12
  15  -4  -3 -300.45  180.29
 -15   4  -3   24.74   79.82
  15  -4   3    9.08  148.32
 -15   4   3    7.14   70.01
 -15   5  -3   94.91   79.98
 -15   5  -3  210.49  200.40
  15  -5   3 -219.35  161.42
  15  -5   3   96.71  158.10
 -15   6  -3   33.34   80.79
  15  -6   3  -95.46  169.27
  16   7  -3    3.57  157.26
  16   6  -3  193.26  169.39
  16   6   3  -83.31  213.25
 -16  -5  -3  258.13  156.72
  16   5  -3   33.06   83.30
  16   5  -3   69.54  108.91
  16   5   3   48.11   91.57
  16   5   3  -64.71  166.18
 -16  -5   3  -59.94  147.39
 -16  -4  -3  287.29  163.49
  16   4  -3   93.02  114.16
  16   4  -3   28.98   80.46
 -16  -4   3    7.72  135.71
  16   4   3  241.13  142.33
  16   4   3  -36.69   87.23
 -16  -4   3 -110.39  107.33
  16   3  -3 -139.57   84.05
  16   3  -3   -5.10  108.52
 -16  -3  -3   98.60  157.55
 -16  -3   3  -66.24   96.02
 -16  -3   3 -104.34  128.60
  16   3   3  -38.38  112.98
  16   3   3  -58.86   82.58
 -16  -2  -3  143.57  138.46
  16   2  -3  -71.03   92.52
  16   2  -3  -57.89  100.69
 -16  -2  -3   -7.98  113.46
  16   2   3  -56.15  115.54
 -16  -2   3 -106.56   86.13
 -16  -2   3  -30.41  120.74
  16   2   3  124.41   84.47
 -16  -1  -3  -48.38  124.54
  16   1  -3   78.78  119.20
  16   1  -3   35.97  112.95
 -16  -1  -3  147.79  109.21
 -16  -1   3  -37.30  119.30
  16   1   3  -55.44  112.09
  16   1   3 -134.95   94.13
 -16  -1   3  -18.82   81.41
 -16   0  -3  -39.44  125.50
  16   0  -3 -230.08  125.21
  16   0  -3  121.29  137.38
 -16   0  -3 -126.79  109.23
 -16   0   3   37.06   77.82
  16   0   3   26.50  113.53
 -16   0   3  134.59  131.10
  16   0   3   63.78  109.80
 -16   1  -3   52.71   98.78
 -16   1  -3  127.53  135.60
  16  -1  -3 -267.03  147.82
  16  -1  -3  -18.79  130.95
 -16   1   3   68.84   74.95
  16  -1   3  -88.86  118.64
 -16   1   3   42.46  148.03
  16  -1   3  241.15  144.34
 -16   2  -3  -22.73  157.39
 -16   2  -3   55.53   93.96
  16  -2  -3 -131.59  157.67
  16  -2  -3  248.76  149.92
  16  -2   3   -1.73  131.22
 -16   2   3 -105.53   82.00
  16  -2   3    2.97  143.37
 -16   2   3   65.35  173.11
  16  -3  -3  254.97  179.80
 -16   3  -3  -42.51  180.51
  16  -3  -3  298.65  158.12
  16  -3   3    3.06  148.21
 -16   3   3  112.68   82.24
 -16   3   3 -102.94  198.25
 -16   4  -3 -228.01  201.96
  16  -4  -3  242.94  194.77
 -16   4   3  -84.74   74.02
  16  -4   3  -46.81  167.10
 -16   5  -3  125.33  219.87
 -16   5  -3  -41.74   84.92
  16  -5   3  -81.88  174.62
  16  -5   3 -162.53  175.67
 -16   6  -3   18.11  119.48
  16  -6   3  104.46  214.25
  17   7  -3   81.95  164.18
  17   6  -3  219.40   96.55
  17   6  -3 -113.36  132.14
  17   6   3   75.40  199.23
 -17  -6   3   47.82  154.51
  17   5  -3 -166.90   94.62
 -17  -5  -3  -22.47  177.81
  17   5  -3   20.62  127.47
  17   5   3  -27.50   95.22
  17   5   3   82.30  161.53
 -17  -5   3    4.74  165.54
 -17  -4  -3  171.82  182.36
  17   4  -3  -97.70   90.26
 -17  -4   3   90.75  150.96
  17   4   3  -36.56  141.95
  17   4   3   38.08   95.31
 -17  -4   3 -165.92  116.05
 -17  -3  -3 -164.44  198.14
 -17  -3   3 -208.61  121.05
 -17  -2  -3  289.85  588.18
 -17  -2  -3  580.52  571.53
 -17  -2   3  455.51  534.00
  17   2   3 2329.40  504.79
 -17  -2   3 1369.56  551.89
 -17  -1  -3  985.34  204.87
 -17  -1  -3 -126.79  162.78
 -17  -1   3  466.91  178.73
 -17  -1   3  186.67  143.13
 -17   0  -3  137.22  123.03
 -17   0  -3  252.87  162.51
 -17   0   3 -109.46  152.34
 -17   0   3  111.05   96.97
  17  -1  -3   95.76  168.08
 -17   1  -3  -46.06  110.39
 -17   1  -3  274.93  167.58
  17  -1  -3 -164.77  163.02
 -17   1   3   55.11  169.47
  17  -1   3 -357.56  157.86
 -17   1   3   73.70   89.79
  17  -1   3 -320.93  162.07
 -17   2  -3  282.43  457.56
  17  -2  -3  216.69  524.57
 -17   2  -3  664.58  571.48
  17  -2  -3 1220.30  477.46
 -17   2   3  -18.33  420.42
 -17   2   3  519.53  582.05
  17  -2   3 1792.81  501.04
  17  -3  -3  -90.12  176.21
 -17   3  -3 -235.37  214.58
  17  -3  -3 -404.28  205.88
 -17   3   3 -168.72  234.06
  17  -3   3 -349.09  184.32
 -17   3   3  -42.61   92.83
 -17   4  -3  606.79  220.51
  17  -4  -3 -391.56  223.00
 -17   4   3 -121.41   85.60
 -17   4   3-1000.00  378.67
 -17   5  -3  -55.38   97.72
 -17   5  -3  -22.94  247.02
  17  -5   3 -188.79  196.51
 -17   6  -3  138.72  105.17
 -17   6  -3  326.52  276.69
  17  -6   3  -21.39  211.88
  18   7  -3  429.51  240.86
  18   6  -3  -54.39   98.33
  18   6  -3   66.99  158.57
 -18  -6   3  -68.50  172.64
  18   6   3 -324.65  202.98
  18   5  -3  -54.54   97.32
 -18  -5  -3   62.51  192.40
  18   5  -3  -35.29  146.60
  18   5   3  323.57  169.07
  18   5   3 -142.66  109.75
 -18  -5   3  226.49  180.77
 -18  -5   3 -148.16  139.13
 -18  -4  -3   87.08  200.23
  18   4  -3  -71.07  143.23
  18   4  -3   25.05  100.09
  18   4   3 -163.64  148.20
 -18  -4   3  -35.67  186.13
  18   4   3   26.36  106.42
 -18  -4   3  -60.36  128.87
  18   3  -3   69.68  132.07
  18   3  -3  -15.29  100.14
 -18  -3  -3 -261.41  153.46
 -18  -3  -3  186.05  204.51
 -18  -3   3  320.38  174.11
  18   3   3  103.28  106.15
  18   3   3  113.50  152.26
 -18  -3   3 -200.35  123.05
 -18  -2  -3   69.75  141.52
  18   2  -3   26.16  113.56
  18   2  -3   23.00  138.18
 -18  -2  -3   16.13  195.68
 -18  -2   3 -137.43  158.76
  18   2   3  -65.69  105.22
 -18  -2   3  -20.13  107.51
  18   2   3 -244.67  151.14
 -18  -1  -3    9.79  133.88
 -18  -1  -3  159.99  178.30
  18   1  -3 -176.33  150.90
  18   1  -3  -11.18  134.12
  18   1   3   53.44  112.04
  18   1   3  -43.99  146.04
 -18  -1   3   82.64   99.72
 -18  -1   3   -3.93  150.42
  18   0  -3  243.29  177.56
 -18   0  -3  110.15  125.91
  18   0  -3   90.12  157.54
 -18   0  -3    8.97  169.77
  18   0   3 -193.23  152.13
 -18   0   3  -56.40  172.22
 -18   0   3    3.85   95.57
  18   0   3    5.72  128.98
  18  -1  -3 -119.75  188.80
  18  -1  -3   -8.93  169.83
 -18   1  -3 -129.53  183.47
 -18   1  -3    4.70  121.51
 -18   1   3  -46.72   93.24
 -18   1   3 -163.22  189.22
  18  -1   3  220.83  161.26
  18  -1   3   12.55  167.20
  18  -2  -3 -186.32  205.24
 -18   2  -3 -228.37  200.48
  18  -2  -3  140.58  180.71
 -18   2  -3  147.18  119.53
 -18   2   3  -14.80  212.84
  18  -2   3   53.42  201.38
  18  -2   3  543.60  178.87
 -18   2   3  -24.54   94.36
 -18   3  -3 -116.69  111.94
  18  -3  -3 -124.94  218.51
  18  -3  -3   42.70  180.39
 -18   3  -3  300.13  221.51
 -18   3   3  195.15  242.13
  18  -3   3  -99.81  190.43
  18  -3   3   40.68  197.62
 -18   3   3   47.10   93.83
 -18   4  -3 -202.42  248.65
  18  -4  -3  129.05  237.46
 -18   4   3  512.34  291.65
  18  -4   3  309.89  216.39
 -18   4   3   96.20  101.30
 -18   5  -3 -169.67  273.91
  18  -5   3 -437.80  225.11
 -18   6  -3  472.15  305.92
 -18   6  -3   76.35  116.28
  19   6  -3  -31.23  173.15
  19   6  -3   96.77  112.07
 -19  -6   3  255.67  161.49
 -19  -6   3   46.53  189.69
  19   6   3   29.23  194.26
 -19  -5  -3  146.65  217.49
  19   5  -3   72.88  111.23
  19   5  -3 -261.19  172.07
  19   5   3  -51.43  115.98
 -19  -5   3   85.04  149.89
  19   5   3 -106.49  170.60
 -19  -5   3   17.57  197.72
 -19  -4  -3 -391.97  236.41
  19   4   3 -304.61  131.97
 -19  -4   3   -5.72  211.65
 -19  -4   3 -159.63  144.34
 -19   1   3 -422.32  162.17
 -19   1   3 -638.81  266.62
 -19   2  -3  898.73  354.95
 -19   2  -3 1461.27  441.92
  19  -2  -3 1530.48  425.03
  19  -2  -3  -22.02  391.40
  19  -2   3 1541.74  410.65
 -19   2   3  550.99  434.95
 -19   2   3  366.95  328.48
 -19   3  -3  -17.79  516.47
  19  -3  -3  955.61  477.84
 -19   3  -3  258.55  371.24
 -19   3   3   28.33  333.13
 -19   3   3  -60.88  519.63
  19  -3   3  152.59  459.15
  19  -3   3  824.67  453.52
 -19   4  -3  218.31  276.49
  19  -4  -3 -519.51  273.23
 -19   4   3    5.04  108.88
  19  -4   3  225.43  244.36
 -19   4   3 -129.13  298.73
 -19   5  -3  462.04  310.87
  19  -5   3 -212.48  254.33
 -19   6  -3  120.78  129.12
 -19   6  -3  154.90  329.54
  19  -6   3  308.21  271.82
 -20  -6   3 -244.49  203.38
 -20  -6   3 -167.88  182.90
  20   5  -3   -6.42  184.70
  20   5  -3  -65.95  119.59
 -20  -5  -3 -125.25  248.88
 -20  -5   3    6.52  219.79
  20   5   3   30.50  204.14
 -20  -5   3   39.24  163.70
  20   4  -3   20.10  170.94
 -20  -4  -3  181.69  250.53
  20   4  -3   41.73  121.00
 -20  -4  -3  -39.46  200.39
 -20  -4   3  145.94  240.00
  20   4   3 -152.74  203.60
  20   4   3  -26.15  134.72
 -20  -4   3  135.11  151.25
  20   3  -3  120.76  125.33
  20   3  -3   65.53  179.49
 -20  -3  -3  159.90  270.94
 -20  -3  -3 -275.35  189.35
 -20  -3   3 -125.05  237.81
  20   3   3   19.62  139.50
  20   3   3   80.97  196.74
 -20  -3   3  -57.08  144.21
 -20  -2  -3 -248.47  267.66
  20   2  -3   34.82  139.53
 -20  -2  -3  150.46  178.98
  20   2  -3   16.50  197.95
  20   2   3  -94.54  192.18
  20   2   3  140.10  139.45
 -20  -2   3   30.25  135.16
 -20  -2   3  108.37  218.39
  20   1  -3  142.55  155.42
 -20  -1  -3 -110.05  168.03
 -20  -1  -3 -122.22  252.34
  20   1  -3   14.74  191.90
 -20  -1   3  116.32  128.54
 -20  -1   3 -148.00  209.43
  20   1   3   57.84  147.67
  20   1   3   87.82  191.54
 -20   0  -3  125.26  159.57
 -20   0  -3   53.46  252.76
  20   0  -3  142.11  217.31
  20   0  -3   31.03  190.46
  20   0   3   57.54  217.49
  20   0   3 -197.20  167.34
 -20   0   3  335.98  214.66
 -20   0   3   19.44  120.42
 -20   1  -3 -187.00  152.45
 -20   1  -3 -256.70  247.31
  20  -1  -3 -244.79  249.28
  20  -1  -3 -236.07  226.36
 -20   1   3  -73.89  118.06
  20  -1   3  -63.46  217.67
 -20   1   3  213.63  229.93
  20  -1   3  -90.36  193.22
  20  -2  -3  -95.16  227.48
 -20   2  -3  275.39  253.16
 -20   2  -3  150.82  145.92
  20  -2  -3   85.78  263.67
 -20   2   3  633.68  260.03
 -20   2   3  -81.44  117.48
  20  -2   3  -85.29  232.62
  20  -2   3   55.74  238.61
 -20   3  -3  -53.14  143.64
 -20   3  -3 -120.41  287.95
  20  -3  -3   16.28  230.41
  20  -3  -3  103.30  270.79
 -20   3   3   13.37  279.13
 -20   3   3   89.66  118.94
  20  -3   3  330.11  258.44
  20  -3   3  532.33  293.28
 -20   4  -3 -230.34  305.50
  20  -4  -3 -112.01  296.98
  20  -4   3   21.82  275.99
 -20   4   3  -55.88  111.17
 -20   4   3   29.61  307.40
  21   4  -3  -96.25  141.78
  21   4  -3    2.41  161.58
 -21  -4   3  491.72  268.38
  21   3  -3  -22.20  150.98
 -21  -3   3  618.02  274.33
  21   2  -3  -29.33  157.23
 -21  -2   3 -278.40  260.27
  21   1  -3 -150.09  190.87
  21   1  -3 -109.29  173.53
 -21  -1   3  232.13  256.64
  21   0  -3   99.86  204.81
 -21   0   3 -540.26  253.09
   0   0  -4  993.86  331.55
   0   0  -4  782.24  359.56
   0   0   4 1235.35  372.82
   0   1  -4    0.45    1.61
   1   0  -4    0.99    4.25
   0   1  -4    1.00    3.08
  -1   0   4   -0.24    3.89
   0  -1   4   -0.42    2.69
  -1   1  -4    1.06    1.48
   1   1  -4    1.16    3.63
  -1   1  -4    0.67    3.21
  -1   1  -4    0.60    4.30
   1  -1   4    1.15    2.76
   1  -1   4    0.98    6.12
  -1  -1   4    2.47    3.30
   1  -1   4    1.12    8.15
   2   1  -4   15.21    3.95
   2   1  -4   13.10    5.79
   2   1  -4    1.80    8.65
  -1   2  -4   12.07    4.13
   2   1  -4    6.82    7.17
  -1   2  -4    4.92    4.50
  -1   2  -4   15.02    9.79
   1  -2   4   20.16   24.99
  -2  -1   4    8.35    6.96
   1  -2   4    5.60    4.51
  -2  -1   4    9.26    5.44
   2   0  -4  279.47  128.72
  -2   0  -4  353.49  129.01
   2   0  -4  345.85  115.52
   0   2  -4  398.17  120.46
   2   0   4  333.36  127.53
  -2   0   4  380.45  136.66
   2   0   4  237.05  143.01
   0  -2   4  388.83  115.91
  -2   1  -4    8.19    8.22
  -2   1  -4   10.27    4.92
   1   2  -4    9.31    4.84
  -2   1  -4   10.85    3.30
   2  -1   4    9.42    4.48
   2  -1   4    8.60    9.53
   2  -1   4    2.86   11.56
   2  -1   4    6.65    3.31
   2   2  -4  220.73   88.94
  -2   2  -4  283.88   71.29
   2   2  -4  211.13   69.41
   2   2  -4   43.63   80.79
  -2   2  -4  255.32   76.20
  -2   2  -4  314.33   79.52
   2   2  -4  232.79   74.39
   2  -2   4  226.18   73.27
  -2  -2   4  211.64   72.27
   2  -2   4  172.82   91.91
   2  -2   4  200.37   81.20
   3   2  -4  189.70   95.68
   3   2  -4  197.25   82.93
   3   2  -4  255.16   92.26
  -3  -2   4  330.80   87.70
  -3  -2   4  190.74   80.94
  -3  -1  -4    8.11   29.85
   3   1  -4   57.46   25.96
   3   1  -4  110.34   20.46
   3   1  -4  102.84   24.45
   3   1  -4   18.38   27.43
   3   1   4   48.46   32.04
  -3  -1   4   52.56   24.66
   1  -3   4   54.51   22.69
   3   1   4   33.92   27.15
  -3  -1   4   74.25   24.81
   3   0  -4   -0.54   27.05
   3   0  -4   -1.49    2.75
  -3   0  -4    2.71   11.28
   0   3  -4   -1.81    4.24
   3   0  -4    0.79    6.59
  -3   0   4    7.72   11.02
  -3   0   4   -1.88    6.86
   3   0   4   -2.41   17.18
   3   0   4   -2.81   11.29
   0  -3   4   -2.88    5.15
  -3   1  -4   67.10   27.70
   1   3  -4   84.88   24.78
   1   3  -4   59.11   23.03
   3  -1   4   68.95   27.80
   3  -1   4   42.95   31.41
  -1  -3   4   67.14   23.88
  -3   2  -4  244.65   78.56
   2   3  -4  249.60   73.56
   2   3  -4   35.63   67.84
  -3   2  -4  296.05   76.04
   3  -2   4  153.60   88.09
   3  -2   4  203.24   81.05
   3   3  -4  329.46  171.80
   3   3  -4  380.76  130.17
   3   3  -4  394.27  138.35
  -3   3  -4  528.00  155.29
  -3  -3   4  383.78  134.83
   3  -3   4  386.86  179.02
   4   3  -4  242.72   67.75
   4   3  -4  209.74   62.58
   4   3  -4  177.03   89.31
   4   3  -4  133.23   78.46
  -4  -3   4   43.02   75.33
  -4  -3   4  252.51   66.16
   4   2  -4   84.45   54.93
   4   2  -4  147.39   42.89
   4   2  -4  142.20   52.68
   4   2  -4  111.62   46.70
  -4  -2   4  166.37   50.39
  -4  -2   4  112.46   45.46
   4   1  -4   20.98   16.56
  -4  -1  -4   35.73   25.43
   4   1  -4   24.41    7.72
   4   1  -4    9.21   16.79
   4   1  -4   26.04   11.00
  -4  -1   4   17.84   11.00
  -4  -1   4   17.33   14.15
   4   1   4   10.48   23.59
   4   1   4   20.33   17.97
  -4  -1   4   14.28   17.71
  -4   0  -4  936.13  282.05
   4   0  -4  699.92  339.11
   4   0  -4  713.40  299.44
   4   0   4  565.66  327.58
  -4   0   4  913.37  292.28
  -4   0   4  859.84  319.97
   4   0   4  819.06  280.35
  -4   1  -4   24.63   18.31
   4  -1  -4   14.34    8.58
   4  -1   4   24.56   19.44
  -1  -4   4   23.35   10.78
  -4   1   4   28.62   19.98
   4  -1   4   14.65   20.02
  -4   2  -4  172.37   46.57
   4  -2   4  123.47   49.46
   4  -2   4   44.48   51.46
  -4   3  -4  329.42   95.42
   4  -3   4  234.63  113.74
   4  -3   4  236.83  100.18
   4   4  -4   65.45   44.29
   5   4  -4   49.55   20.21
   5   4  -4   57.50   42.23
  -5  -4   4   52.62   21.66
   5   3  -4   -3.23   31.44
   5   3  -4    1.96   19.95
   5   3  -4   -0.78    9.20
  -5  -3   4   -7.83   27.74
   5   2  -4   51.23   25.75
   5   2  -4   55.35   36.46
   5   2  -4   61.96   22.97
   5   2  -4  116.93   34.91
  -5  -2   4   65.85   31.99
  -5  -2   4   74.03   26.13
  -5  -2   4   60.10   24.86
   5   1  -4  111.63   85.89
   5   1  -4  199.69   70.08
   5   1  -4  247.00   83.84
   5   1  -4  298.93   80.96
  -5  -1   4  153.04   79.78
  -5  -1   4  205.79   86.08
  -5  -1   4  278.18   85.11
   5   0  -4    4.72   10.97
  -5   0  -4  -10.92   21.28
   5   0  -4    0.59   28.21
   5   0  -4   19.98   33.71
   5   0  -4    3.04    5.43
  -5   0   4   11.60   19.43
   5   0   4    3.26   24.46
  -5   0   4   12.42   13.01
   5  -1  -4  207.14  100.32
  -5   1  -4  209.22   90.78
   5  -1  -4  305.55  119.68
   5  -1   4  209.07   88.50
  -5   1   4  310.40   94.36
  -5   4  -4   42.19   33.26
  -4  -5   4   30.22   19.69
   5  -4   4   76.80   78.73
   5   5  -4   63.57   21.52
  -5  -5   4   24.68   23.04
   6   5  -4   89.02   30.62
   6   5  -4   72.31   32.06
  -6  -5   4   84.88   33.59
   6   4  -4    0.50   12.06
   6   4  -4   11.47   11.62
  -6  -4   4   13.63   13.72
  -6  -3   4   33.16   34.96
  -6  -2  -4  265.27  246.55
   6   2  -4  569.39  234.32
   6   2  -4  784.66  243.81
  -6  -2   4  552.76  238.82
   6   2   4  950.52  237.75
  -6  -2   4  740.46  240.21
   6   1  -4   -5.83   11.68
  -6  -1  -4   -1.91   29.48
   6   1  -4   10.76   27.15
   6   1  -4   -1.63    5.27
  -6  -1   4   -6.18   27.31
  -6  -1   4   -4.41   11.41
   6   1   4   -1.16   23.30
   6   0  -4   74.02   26.97
  -6   0  -4   67.07   33.36
   6   0  -4   49.73   21.80
   6   0   4   74.33   44.55
   6   0   4  105.54   38.22
  -6   0   4   58.19   29.19
  -6   1  -4   37.78   29.88
   6  -1  -4    3.36    7.16
   6  -1   4   -7.62   28.48
   6  -1   4   45.79   30.45
  -6   2  -4  725.78  229.41
   6  -2   4  716.22  232.20
  -6   2   4  823.69  244.16
   6  -2   4  351.10  240.63
  -6   3  -4   37.71   31.20
   6  -3   4   38.35   51.33
   6  -3   4   55.01   44.96
  -6   4  -4   13.81   30.68
   6  -4   4  -40.33   50.61
   6  -4   4  -54.30   74.63
   7   6  -4  101.96   41.08
   7   5  -4   88.06   30.06
   7   5  -4   97.04   31.77
   7   5  -4  -24.82   65.88
  -7  -5   4   81.89   33.60
   7   4  -4   54.49   19.84
   7   4  -4   72.59   18.73
   7   4  -4 -117.57   55.16
  -7  -4   4 -130.16   61.19
  -7  -4   4   48.56   21.71
   7   3  -4   52.19   19.20
  -7  -3  -4   30.56   51.98
   7   3  -4  130.10   32.19
   7   3  -4   27.19   18.15
   7   3  -4   -3.65   44.79
  -7  -3   4   22.28   19.85
   7   3   4   29.22   35.81
   7   3   4   48.69   51.99
  -7  -3   4   72.30   37.84
  -7  -2  -4   16.13   51.29
   7   2  -4  146.76   39.63
   7   2   4   -5.31   33.66
  -7  -2   4   91.03   33.86
  -7  -1  -4   -4.09   32.93
   7   1  -4   24.42   31.44
   7   1  -4    6.43   14.06
   7   1  -4   91.34   32.73
  -7  -1   4   -9.75   15.66
   7   1   4   15.55   27.13
  -7  -1   4  -15.31   25.42
  -7  -1   4  110.52   33.25
   7   0  -4  -11.80   38.98
   7   0  -4   -1.73   14.68
   7   0  -4   -6.08    6.35
   7   0  -4   53.48   37.71
  -7   0  -4  -12.96   29.95
   7   0   4   -7.50   36.23
  -7   0   4   -7.58   15.43
   7   0   4   20.91   39.70
  -7   0   4   17.41   24.65
  -7   1  -4    6.64   34.54
   7  -1  -4   25.42   58.09
   7  -1  -4   25.87   46.58
   7  -1  -4    6.27    8.31
  -7   1   4   17.29   27.14
   7  -1   4   66.06   35.13
   7  -1   4   20.48   34.92
   7  -2  -4  -29.27   74.53
   7  -2  -4   42.11   56.35
  -7   2  -4    9.20   31.16
   7  -2   4  -20.56   40.06
  -7   2   4    3.60   31.43
   7  -2   4  -60.51   39.42
  -7   3  -4   43.14   31.80
   7  -3   4  -36.52   48.82
   7  -3   4  -46.67   55.70
  -7   4  -4   78.12   37.64
   7  -4   4 -126.95   88.05
   7  -4   4   70.42   59.28
  -7   5  -4   74.03   44.02
   7  -5   4  -20.55   65.97
   8   6  -4  -16.05   72.61
   8   6  -4   59.14   26.03
   8   5  -4   59.62   22.49
   8   5  -4   43.69   23.29
   8   5  -4  -16.83   67.95
  -8  -5   4   17.04   49.40
  -8  -5   4   56.14   26.99
   8   4  -4  163.68   47.82
   8   4  -4   77.62   33.37
   8   4  -4   73.53   65.69
   8   4  -4   66.17   31.84
  -8  -4   4   72.36   35.20
  -8  -4   4   90.14   58.75
  -8  -3  -4  -25.15   57.08
   8   3  -4   -2.91   12.88
   8   3  -4    3.49   14.91
  -8  -3   4  -47.68   18.24
   8   3   4   17.38   36.47
   8   3   4  -47.06   57.84
  -8  -3   4 -110.92   44.85
  -8  -1  -4  -34.17   43.42
  -8  -1   4  -64.15   36.41
   8   1   4    7.87    6.76
  -8   0  -4  129.98   47.37
   8   0   4  -15.57   56.58
  -8   0   4   74.08   40.19
  -8   0   4   91.78   37.59
  -8   1  -4  -22.41   45.47
  -8   1   4    8.63   31.96
  -8   2  -4   92.46  388.30
  -8   2  -4  210.72  458.09
  -8   2   4  129.56  391.24
   8  -3  -4   -2.03   76.89
  -8   3  -4  -17.63   36.15
   8  -3   4 -164.08   62.30
   8  -3   4  -35.44   57.21
  -8   4  -4   86.76   44.32
   8  -4   4   30.97   86.11
   8  -4   4   23.97   67.03
  -8   5  -4   89.84   49.84
   8  -5   4   38.84   75.59
   8  -5   4  126.79  106.91
   9   6  -4  413.97  138.10
   9   6  -4  320.54  185.07
   9   5  -4   63.97   78.97
   9   5  -4   31.79   48.49
   9   5  -4   55.17   29.53
   9   5  -4   99.82   28.72
  -9  -5   4   69.96   63.06
  -9  -5   4   44.66   33.06
   9   4  -4  334.23  152.38
  -9  -4  -4  -15.16  159.77
   9   4  -4  250.99  173.00
   9   4  -4  452.24  139.91
   9   4  -4  489.75  130.55
  -9  -4   4  299.07  157.18
   9   4   4  599.29  178.50
  -9  -4   4  526.70  143.48
   9   3  -4   48.64   40.45
   9   3  -4   39.40   23.72
   9   3  -4   65.02   53.68
  -9  -3  -4  -20.59   67.24
   9   3  -4   47.19   21.50
   9   3   4   80.16   71.12
   9   3   4   63.78   44.54
  -9  -3   4   94.00   46.78
  -9  -3   4   39.12   24.26
  -9  -3   4   56.56   25.50
   9   2  -4  113.47   41.41
  -9  -2  -4  133.30   67.93
   9   2  -4  142.25   61.82
   9   2  -4    1.93   54.87
   9   2  -4   86.73   36.19
   9   2   4   37.37   76.82
  -9  -2   4  205.63   56.19
  -9  -2   4  152.70   40.69
   9   2   4   81.11   51.06
  -9  -2   4   96.00   43.39
   9   1  -4  -66.05   42.62
   9   1  -4    0.49    9.01
   9   1  -4  -35.85   45.35
  -9  -1  -4  -16.31   47.38
  -9  -1   4   -6.83   15.61
  -9  -1   4    5.24   33.81
  -9  -1   4    8.00   47.03
   9   1   4   16.34   38.23
   9   0  -4  -84.76   53.95
  -9   0  -4  -57.47   44.33
   9   0  -4  -15.95   51.21
  -9   0   4  -34.77   59.12
   9   0   4  -53.94   51.88
  -9   0   4   -4.19   33.95
   9  -1  -4    9.25   63.13
  -9   1  -4  -34.17   50.52
  -9   1  -4   15.15   42.10
   9  -1  -4   63.52   62.10
   9  -1   4   44.44   49.56
  -9   1   4   -1.56   34.28
   9  -1   4   -4.96   47.10
  -9   2  -4  237.93   73.79
   9  -2  -4   85.75   85.29
  -9   2  -4  141.91   56.40
   9  -2  -4   82.79   93.06
   9  -2   4   53.16   61.72
   9  -2   4   79.28   65.72
  -9   2   4   66.71   52.07
   9  -3  -4   -6.26   86.14
  -9   3  -4   61.95   45.39
   9  -3   4  107.85   65.14
  -9   3   4   14.43   44.73
   9  -3   4   70.74   66.16
  -9   4  -4  422.93  159.79
   9  -4   4  575.80  184.10
   9  -4   4  299.48  188.51
  -9   5  -4  114.32   54.96
   9  -5   4   82.61   87.09
   9  -5   4   57.32  108.35
   9  -6   4  324.30  166.04
  10   7  -4  177.24  117.45
  10   7  -4  142.10   60.54
  10   6  -4  -12.98   25.35
  10   6  -4 -114.36   97.14
  10   5  -4  254.15   90.13
  10   5  -4  214.50   75.41
  10   5  -4  188.98  117.79
 -10  -5   4   85.67  100.70
 -10  -5   4  220.86   80.58
  10   4  -4   51.93   24.46
  10   4  -4   19.29   25.22
 -10  -4  -4   24.83   76.92
  10   4  -4   87.26   46.88
  10   4  -4   14.10   67.32
 -10  -4   4    7.59   68.71
 -10  -4   4   82.73   30.06
  10   4   4   73.56   52.19
  10   4   4   74.04   88.05
  10   3  -4   36.78   56.18
  10   3  -4   58.72   31.54
  10   3  -4   66.09   28.72
 -10  -3  -4  121.55   80.62
  10   3  -4   93.22   49.77
  10   3   4   58.89   85.30
 -10  -3   4  100.14   32.42
  10   3   4   70.70   51.17
 -10  -3   4   62.27   33.31
 -10  -3   4   70.96   57.07
  10   2  -4   29.57   59.28
  10   2  -4    5.12   53.01
  10   2  -4   37.40   25.72
 -10  -2  -4   97.88   68.69
  10   2  -4   40.98   21.22
 -10  -2   4   65.62   26.03
 -10  -2   4   72.04   28.35
  10   2   4   32.09   74.47
 -10  -2   4   35.38   44.36
 -10  -2   4  100.74   51.44
  10   2   4   83.04   44.49
  10   1  -4    7.56   54.17
  10   1  -4   16.07   11.67
 -10  -1  -4   85.22   52.05
  10   1  -4   39.12   47.16
  10   1  -4    9.05   19.13
 -10  -1   4   39.03   39.74
  10   1   4  -10.30   44.23
 -10  -1   4    8.22   17.14
 -10  -1   4    7.91   53.04
 -10  -1   4    7.50   22.12
  10   0  -4  257.70  126.15
  10   0  -4  355.89  128.90
  10   0  -4  297.18  101.78
 -10   0  -4  476.34  122.75
  10   0  -4  221.11  115.88
 -10   0   4  287.71  134.84
  10   0   4  414.02  122.22
 -10   0   4  141.35  113.60
 -10   1  -4  -21.25   57.44
  10  -1  -4   41.81   71.76
  10  -1  -4   -2.95   73.06
  10  -1  -4    9.93   10.61
 -10   1  -4   19.24   47.64
 -10   1   4    1.72   37.11
  10  -1   4   17.78   54.00
  10  -1   4  -19.42   57.28
 -10   2  -4   41.20   48.98
 -10   2  -4   51.75   70.19
  10  -2  -4   41.83   89.03
  10  -2  -4   40.45   16.71
  10  -2  -4   27.50   85.13
 -10   2   4   16.21   43.90
  10  -2   4  -30.35   56.56
  10  -2   4   27.79   63.81
  10  -3  -4   31.33   97.26
 -10   3  -4   73.35   49.49
  10  -3  -4   31.07  104.54
 -10   3   4   71.15   47.63
  10  -3   4 -125.95   77.36
  10  -3   4   94.36   74.96
 -10   4  -4  104.84   52.83
  10  -4   4   90.19   97.40
  10  -4   4    1.73   84.17
 -10   5  -4  221.25   86.55
  10  -5   4  132.87  132.40
  10  -5   4  207.04  122.13
 -10   6  -4   43.35   54.15
  10  -6   4 -336.18  106.19
  11   7  -4  -26.65  114.61
  11   7  -4   41.88   32.37
  11   6  -4   25.97  105.24
  11   6  -4   21.78   26.81
 -11  -6   4   94.49   74.00
  11   5  -4 -101.40   90.91
  11   5  -4    3.15   23.37
  11   5  -4  -44.48   53.53
 -11  -5   4   -2.46   80.43
 -11  -5   4  -62.38   34.08
 -11  -4  -4  -66.60  104.02
  11   4  -4   17.27   89.21
  11   4  -4   96.22   51.57
  11   4  -4  235.40   69.44
  11   4  -4  136.71   54.68
 -11  -4   4  158.96   56.15
  11   4   4  170.69   74.07
 -11  -4   4  183.07   58.46
 -11  -4   4  183.14   90.81
  11   4   4  119.93  112.88
  11   3  -4   44.06   27.34
 -11  -3  -4   27.16   89.34
  11   3  -4   10.92   54.45
  11   3  -4   16.45   24.28
  11   3  -4   80.01   51.53
 -11  -3   4   59.76   28.81
 -11  -3   4   56.73   27.43
  11   3   4   45.83   93.23
  11   3   4   90.93   52.77
 -11  -3   4   49.76   61.10
 -11  -2  -4  115.89   83.48
  11   2  -4  125.81   74.88
  11   2  -4   26.91   67.20
  11   2   4   56.72   91.32
 -11  -2   4   78.83   68.37
 -11  -2   4   86.08   61.88
 -11  -2   4  152.47   45.47
 -11  -2   4  107.48   49.05
  11   2   4  193.30   60.22
  11   1  -4  104.82  115.48
  11   1  -4  235.70  119.95
 -11  -1  -4  505.48  122.89
 -11  -1   4  209.82  123.54
  11   1   4  337.69  110.72
 -11  -1   4  340.08  105.91
 -11  -1   4  388.83  122.63
 -11  -1   4  284.11  109.75
  11   0  -4    5.58   69.94
 -11   0  -4   67.29   62.23
  11   0  -4  -67.99   66.38
  11   0   4 -137.63   70.96
 -11   0   4   -1.77   43.97
 -11   0   4  -28.41   74.70
 -11   1  -4  303.42  129.57
 -11   1  -4  536.14  136.19
  11  -1  -4  273.83  140.57
  11  -1  -4  137.29  141.17
  11  -1   4  422.48  133.14
 -11   1   4  321.77  118.37
 -11   2  -4  115.60   86.12
  11  -2  -4   17.00  102.16
 -11   2  -4  137.53   63.11
  11  -2  -4  129.00   97.28
  11  -2   4   52.49   78.94
 -11   2   4   53.98   52.84
  11  -2   4    6.66   70.21
 -11   3  -4  117.26  101.38
  11  -3  -4   85.64  109.08
 -11   3  -4   24.63   56.37
  11  -3  -4  -36.03  108.44
 -11   3   4   53.17   51.52
  11  -3   4  136.37   84.96
  11  -3   4   56.25   86.42
 -11   4  -4  142.81   73.56
 -11   5  -4  -57.43   62.46
 -11   6  -4   41.43   57.02
  11  -6   4 -136.95  112.28
  12   7  -4  135.82  138.77
  12   6  -4  -76.06  110.53
 -12  -6   4  -14.20   84.57
 -12  -5  -4  -14.18  103.13
  12   5  -4  -46.80   97.56
  12   5  -4   -1.38   61.88
 -12  -5   4  -65.85   97.61
  12   5   4  140.08  119.61
  12   4  -4  -16.60   54.59
 -12  -4  -4  -39.99  104.19
  12   4  -4  164.02   76.27
  12   4   4  -73.13  109.50
  12   4   4   56.61   61.58
 -12  -4   4   71.39   82.08
  12   3  -4   30.74   63.97
  12   3  -4   26.99   54.39
 -12  -3  -4  -18.15   98.87
  12   3   4  -32.81  101.47
 -12  -3   4   17.64   67.41
  12   3   4 -120.51   57.30
  12   2  -4  -63.13   70.86
  12   2  -4  166.10   74.03
 -12  -2  -4  109.64   88.55
 -12  -2   4  179.14   71.48
 -12  -2   4  115.17   61.24
 -12  -1  -4 -235.72   88.73
  12   1  -4  -67.23   66.09
  12   1  -4  -29.88   81.47
 -12  -1   4  -88.81   55.59
  12   1   4 -167.99   86.41
 -12  -1   4   -3.42   72.96
 -12   0  -4  978.68  233.98
  12   0  -4  369.83  231.56
  12   0  -4  290.04  229.00
 -12   0   4  633.15  244.61
 -12   0   4  561.14  207.13
  12  -1  -4  -24.63   93.04
  12  -1  -4  -90.86   98.12
 -12   1   4  -40.69  105.65
 -12   1   4  -22.63   50.77
 -12   2  -4   49.90   73.55
  12  -2  -4  101.81  110.39
 -12   2  -4  190.72   99.37
  12  -2  -4 -117.24  108.76
 -12   2   4  113.80   56.45
 -12   3  -4   47.55   60.92
  12  -3  -4   41.65  120.02
 -12   3  -4   67.13  111.45
  12  -3  -4   34.19  113.15
 -12   3   4   26.52   53.53
  12  -3   4  -39.73   94.90
  12  -3   4 -189.91   95.58
  12  -4  -4 -146.85  139.66
 -12   4  -4   61.26   60.55
  12  -4   4  119.52  114.25
  12  -4   4   40.31  106.58
 -12   5  -4   67.69   67.35
  12  -5   4   80.64  121.46
  13   7  -4   37.90  134.68
  13   6  -4  106.31  119.80
 -13  -6   4  -28.28   99.35
  13   5  -4  -73.73  101.31
  13   5  -4  -16.41   62.79
 -13  -5   4  -15.12  106.92
  13   4  -4   -2.44   71.30
  13   4  -4  -97.48   62.00
 -13  -4   4 -107.42   98.70
  13   3  -4   12.69   76.60
  13   3  -4  176.33   69.31
  13   3   4    1.51   65.66
 -13  -3   4   46.86   68.77
 -13  -3   4   27.89   78.75
 -13  -2  -4  -13.48   98.74
  13   2  -4  -67.22   76.32
  13   2  -4  -82.64   73.86
 -13  -2   4   -5.59   72.79
 -13  -2   4  -87.05   63.11
  13   2   4   -5.50   59.92
 -13  -1  -4  205.90   96.43
  13   1  -4  -20.57   81.73
  13   1  -4  145.07   95.56
  13   1   4   90.14   74.62
 -13  -1   4  117.62   65.79
 -13  -1   4  128.99   89.66
  13   0  -4  -45.36   87.28
  13   0  -4   35.48   90.32
 -13   0  -4    6.45   86.16
 -13   0   4   31.14   98.06
 -13   0   4  -94.78   57.71
  13   0   4 -112.90   84.94
  13  -1  -4   25.62  100.92
 -13   1  -4  224.49  101.11
  13  -1  -4  -84.99  104.56
 -13   1   4  221.50  117.89
  13  -1   4   17.63   98.95
 -13   1   4   13.64   59.09
  13  -2  -4   66.55  118.06
 -13   2  -4  -39.02  106.92
  13  -2  -4  -11.25  110.73
 -13   2   4   50.35   57.35
  13  -2   4  -65.21   99.04
  13  -3  -4  247.27  156.06
 -13   5  -4   -9.58   68.55
  13  -5   4    2.00  134.73
 -13   6  -4  -28.57   67.85
  13  -6   4    2.86  139.00
  13  -6   4 -432.03  157.58
  14   8  -4   52.21  161.54
 -14  -5  -4  -80.84  131.79
  14   5   4  -29.56  146.58
  14   4  -4 -135.53   68.11
 -14  -4  -4  -16.31  132.70
  14   4   4 -118.77  131.27
  14   4   4   41.83   75.60
 -14  -4   4 -145.11  115.82
  14   3  -4  -32.75   68.18
 -14  -3  -4  -11.36  129.16
 -14  -3   4    2.42   93.91
  14   3   4 -128.52  110.70
  14   3   4  -91.74   72.75
 -14  -2  -4  548.41  136.51
  14   2  -4   13.15  100.43
 -14  -2   4   10.50  105.75
  14   2   4   67.12  118.59
  14   1  -4   55.28  120.95
 -14  -1  -4  248.51  121.79
 -14  -1   4   17.52  116.36
  14   1   4    6.44   91.59
  14   1   4   34.78  119.54
 -14   0  -4   37.68   92.72
 -14   0  -4   55.60   85.96
  14   0   4    7.81   90.73
  14   0   4   -1.85   75.53
  14  -1   4 1300.83  389.09
 -14   2  -4   81.85  140.81
  14  -2   4    6.64  126.55
 -14   3  -4  124.97   76.80
  14  -3  -4  -19.83  132.16
 -14   3  -4  -73.43  140.41
  14  -3   4   11.88  118.95
 -14   3   4   -3.04   63.55
  14  -3   4 -136.46  117.16
 -14   4  -4  -28.99   76.23
 -14   4  -4  178.17  163.11
 -14   4   4  -24.06   69.62
  14  -4   4 -382.00  137.42
 -14   5  -4  -27.91   74.98
  14  -5   4   64.59  159.08
  14  -5   4   48.61  147.77
 -14   6  -4   -7.68   74.67
  14  -6   4  -90.32  156.84
  14  -6   4  269.04  162.97
  15   7  -4 -263.26  172.82
  15   6  -4  -73.00  118.47
  15   6  -4   69.24   78.47
 -15  -6   4   49.59  121.45
  15   5  -4  -60.93   94.83
  15   5  -4  -28.02   72.16
 -15  -5  -4    4.69  133.90
  15   5   4   55.30  159.44
 -15  -5   4  -33.41  125.96
  15   4  -4  109.88  107.25
 -15  -4  -4 -176.75  150.58
  15   4  -4  225.26   81.00
 -15  -4   4   50.08  131.47
  15   4   4   59.62  142.53
 -15  -4   4  147.18   95.70
  15   4   4   69.60   84.45
 -15  -3  -4 -148.74  154.74
  15   3  -4  131.65   99.08
 -15  -3   4   42.43   84.18
 -15  -3   4  236.99  101.60
  15   3   4 -193.95  125.01
  15   3   4  -23.97   81.56
  15   2  -4 -147.13   93.10
 -15  -2  -4 -174.00  137.43
  15   2   4  -15.11   98.27
  15   2   4   25.96   77.65
 -15  -2   4  -19.37   76.97
  15   1  -4  113.76  122.70
 -15  -1  -4   21.53   99.87
 -15  -1  -4   19.72  123.97
  15   1  -4  -18.21  106.63
  15   1   4  -23.66  104.12
 -15  -1   4   10.84   71.79
 -15  -1   4   -2.48  103.09
  15   1   4   34.45   86.16
  15   0  -4    8.39  115.36
  15   0  -4  -97.27  127.99
 -15   0  -4  -45.83   96.57
 -15   0  -4   -8.62  108.39
  15   0   4 -117.85  107.19
 -15   0   4 -108.43  121.18
 -15   0   4    5.42   68.20
  15   0   4   70.56  102.96
  15  -1  -4  -22.54  131.34
  15  -1  -4  -89.96  133.19
 -15   1  -4   42.09  117.06
 -15   1   4  -77.11  134.80
 -15   1   4  -14.00   65.02
  15  -1   4   28.65  130.04
  15  -2  -4 -322.37  140.07
 -15   2  -4 -162.06  144.53
  15  -2  -4    2.88  149.52
  15  -2   4  -33.76  133.19
 -15   2   4   22.54  158.27
 -15   2   4   60.20   66.51
  15  -3  -4  -39.72  166.61
 -15   3  -4  147.93   88.74
  15  -3  -4  -29.60  148.28
 -15   3  -4  171.05  161.82
 -15   3   4   72.10   74.16
  15  -3   4 -211.46  136.39
 -15   4  -4   93.21   83.80
 -15   4  -4  -20.99  177.27
  15  -4  -4  136.73  190.28
 -15   4   4  -21.90   74.91
  15  -4   4  105.29  145.50
  15  -4   4   96.36  160.66
 -15   5  -4 -125.59  203.07
 -15   5  -4  -72.86   82.90
  15  -5   4    6.35  154.57
  15  -5   4  170.21  164.14
 -15   6  -4  103.97   87.76
  15  -6   4    2.61  173.58
  15  -6   4  177.24  167.75
  16   7  -4  130.95  156.61
  16   6  -4 2057.78  628.13
  16   6  -4 1938.89  602.29
  16   5  -4  -64.68  114.19
  16   5  -4 -112.19   84.33
 -16  -5  -4  -20.72  160.75
  16   5   4   -1.99  165.82
 -16  -5   4  -57.56  145.05
  16   4  -4 -137.89  108.83
 -16  -4  -4  -96.04  162.29
  16   4  -4   87.11   81.28
 -16  -4   4  -19.78   98.95
  16   4   4  -79.36  145.04
 -16  -4   4  -52.31  137.83
  16   4   4 -166.04   86.85
 -16  -3  -4    4.79  162.72
  16   3  -4   33.16  107.17
  16   3  -4  100.11   83.99
 -16  -3   4  -24.52  115.33
 -16  -3   4  -63.76   90.76
  16   3   4  -17.41  121.36
  16   3   4  -92.01   85.39
  16   2  -4  -11.75   94.64
 -16  -2  -4 -218.81  149.01
  16   2  -4   57.84   97.71
 -16  -2   4  -90.04   85.37
  16   2   4   19.39   83.67
 -16  -2   4  -11.23  109.56
  16   2   4    1.38  112.03
 -16  -1  -4 -255.11  142.61
 -16  -1  -4  -68.24  112.72
  16   1  -4  198.73  120.40
  16   1  -4  -28.77  116.23
  16   1   4 -222.32   93.58
  16   1   4    2.81  114.80
 -16  -1   4  142.24  113.37
 -16  -1   4   15.22   80.33
  16   0  -4    1.55  119.60
  16   0  -4  -47.39  134.99
 -16   0  -4   47.48  107.73
 -16   0  -4  -38.12  134.18
 -16   0   4  -35.89   77.56
  16   0   4 -246.22  107.97
 -16   0   4  -40.66  138.85
  16   0   4 -134.30  116.49
 -16   1  -4   87.18  136.00
 -16   1  -4  -82.06  102.78
  16  -1  -4 -194.55  137.93
  16  -1  -4  126.37  142.47
  16  -1   4   40.00  117.80
 -16   1   4   58.54   72.38
 -16   1   4  208.87  150.42
  16  -1   4 -102.93  127.37
  16  -2  -4  -28.79  159.42
  16  -2  -4   22.45  145.43
 -16   2  -4   33.85  151.58
 -16   2   4  -24.71  179.14
 -16   2   4   -3.28   70.80
  16  -2   4 -162.25  149.49
 -16   3  -4  236.62  177.10
  16  -3  -4  270.36  161.18
  16  -3  -4  235.36  188.05
  16  -3   4   -3.06  152.44
 -16   3   4   67.17   84.57
 -16   3   4  246.35  214.09
 -16   4  -4  -78.72  195.52
  16  -4  -4  136.10  204.21
 -16   4  -4   -8.00   94.77
  16  -4   4    4.70  170.33
 -16   4   4 -101.70   77.18
  16  -4   4    6.47  158.20
 -16   5  -4   61.39  222.74
 -16   5  -4  135.57   94.80
  16  -5   4  127.04  177.32
  16  -5   4   22.84  178.59
 -16   6  -4  188.03  385.18
 -16   6  -4   18.17  219.53
  16  -6   4  -16.87  283.92
  16  -6   4   29.95  301.88
  17   6  -4   99.93   92.57
  17   6  -4  -77.22  143.57
 -17  -6   4  124.62  150.04
 -17  -5  -4  120.68  178.38
  17   5  -4 -107.08  129.23
  17   5  -4  -35.20   86.86
 -17  -5   4  -11.56  115.54
 -17  -5   4  -95.64  154.12
  17   5   4   -6.17  173.40
  17   4  -4 -358.47  132.47
  17   4  -4    5.86   86.65
 -17  -4  -4   73.54  188.71
  17   4   4 -167.27  145.90
 -17  -4   4  -29.31  153.80
 -17  -4   4   59.02  106.58
  17   4   4 -115.62   97.33
 -17  -3  -4 -124.34  184.96
  17   3   4 -163.74  103.45
 -17  -3   4  -78.68  107.86
 -17  -3   4 -169.53  150.09
  17   2  -4  222.75  134.05
 -17  -2  -4 -268.56  184.33
 -17  -2  -4   22.92  137.95
 -17  -2   4   17.28  102.84
 -17  -2   4   77.22  149.88
  17   1  -4 3664.28  716.50
 -17  -1  -4  732.37  741.89
 -17  -1  -4  479.63  753.37
 -17  -1   4  937.43  732.19
  17   1   4 2249.36  698.16
  17   1   4 3366.99  750.34
 -17   0  -4  753.09  365.28
  17   0  -4  539.36  344.16
 -17   0  -4  283.20  352.73
  17   0  -4 1347.14  349.20
 -17   0   4  302.50  296.75
 -17   0   4  540.76  362.00
 -17   1  -4  485.34  583.70
 -17   1  -4 1214.55  623.12
  17  -1  -4 1322.95  598.36
  17  -1  -4 2303.70  576.61
 -17   1   4  555.09  629.81
 -17   1   4  138.12  528.65
  17  -1   4 2676.99  570.96
  17  -2  -4  -31.46  168.57
  17  -2  -4 -218.05  188.54
 -17   2  -4  132.52  180.63
  17  -2   4  -36.08  190.63
 -17   2   4   -7.25   84.80
 -17   2   4  -76.50  200.38
  17  -3  -4  -71.64  197.48
  17  -3  -4 -405.88  173.23
 -17   3  -4 -107.01  198.54
  17  -3   4  -60.67  180.09
 -17   3   4 -211.58  235.29
 -17   3   4   42.54   83.14
 -17   4  -4   61.91  100.87
 -17   4  -4 -281.32  219.17
  17  -4  -4 -511.84  229.16
  17  -4   4    7.25  179.15
  17  -4   4  196.39  189.66
 -17   4   4  160.63   87.37
 -17   4   4  261.90  260.07
 -17   5  -4 -130.01  102.97
 -17   5  -4 -342.64  241.28
  17  -5   4  163.37  189.51
  17  -5   4   80.48  193.70
 -17   6  -4   90.43  259.53
 -17   6  -4  -19.97   98.03
  17  -6   4   48.71  201.02
  17  -6   4  202.25  200.43
  18   6  -4 -394.77  161.21
 -18  -6   4 -238.94  176.99
 -18  -6   4 -130.18  137.88
 -18  -5  -4 -319.98  198.81
  18   5  -4    3.25  141.68
  18   5  -4  -29.41   94.79
 -18  -5   4   30.56  172.83
  18   5   4  124.41  178.72
 -18  -5   4  -34.41  127.18
 -18  -4  -4  146.03  206.80
  18   4  -4  -45.30   93.34
  18   4  -4  -50.82  137.28
  18   4   4 -120.27  149.17
  18   4   4   85.37  105.74
 -18  -4   4   57.96  117.15
 -18  -4   4 -201.44  165.78
  18   3  -4 -137.16  131.69
 -18  -3  -4 -227.76  225.85
  18   3  -4  129.04  100.17
  18   3   4 -104.56  148.98
 -18  -3   4  -24.95  156.58
  18   3   4   78.51  106.44
 -18  -3   4  -28.01  112.20
 -18  -2  -4  134.79  205.71
 -18  -2  -4  -35.87  147.41
  18   2  -4   51.76  114.39
  18   2  -4  129.81  141.53
  18   2   4 -180.65  106.63
 -18  -2   4 -105.77  150.54
 -18  -2   4   50.08  103.54
  18   2   4  101.90  149.65
 -18  -1  -4 -115.26  197.85
  18   1  -4   64.16  136.90
  18   1  -4  -76.01  151.71
 -18  -1  -4  -85.51  138.96
  18   1   4   44.51  144.96
 -18  -1   4  -47.60  144.42
 -18  -1   4  -18.79   95.45
  18   1   4  166.26  114.82
 -18   0  -4 -291.25  188.13
  18   0  -4 -354.10  186.63
 -18   0  -4 -143.26  136.82
  18   0  -4 -120.75  156.68
  18   0   4   16.45  125.31
 -18   0   4   27.31  162.77
 -18   0   4  108.20   95.24
  18   0   4  -10.36  141.15
 -18   1  -4  184.10  128.57
  18  -1  -4  -28.09  173.71
 -18   1  -4 -266.50  177.63
  18  -1  -4   77.76  186.26
 -18   1   4    8.69  180.87
  18  -1   4  -54.33  149.88
 -18   1   4   73.67   88.74
  18  -1   4   50.05  160.72
 -18   2  -4   52.54  116.69
  18  -2  -4  -66.81  177.07
 -18   2  -4 -235.94  198.12
  18  -2  -4  415.84  201.81
 -18   2   4  138.52  217.35
 -18   2   4 -149.16   93.25
  18  -2   4   72.21  193.05
  18  -2   4  142.21  173.94
  18  -3  -4 -139.42  180.71
  18  -3  -4  -83.87  217.01
 -18   3  -4  362.55  224.90
 -18   3   4  645.76  244.03
  18  -3   4  108.87  204.34
 -18   3   4  -46.82   92.00
 -18   4  -4   90.73  238.84
 -18   4  -4  -14.89  113.63
  18  -4  -4  -44.24  249.98
  18  -4   4   90.67  204.33
 -18   4   4 -119.60   85.04
 -18   4   4   18.86  269.91
 -18   5  -4   15.51  109.90
 -18   5  -4 -148.07  266.55
  18  -5   4   -9.15  210.77
  18  -5   4  212.82  214.92
 -18   6  -4  -82.25  125.46
 -18   6  -4  456.36  298.17
 -19  -6   4 -184.55  148.13
  19   5  -4  195.34  161.79
 -19  -5  -4   85.85  220.26
  19   5  -4   25.39  105.50
 -19  -5   4  113.17  194.27
 -19  -5   4  -43.27  141.59
  19   5   4 -231.48  171.92
  19   4  -4  -22.24  110.28
 -19  -4  -4 -164.47  225.91
  19   4   4   14.84  121.60
 -19  -4   4   50.96  132.87
 -19  -4   4   -5.53  201.60
 -19  -3  -4  -23.43  167.55
 -19  -3   4  -57.79  129.62
  19   2  -4 5153.66 1398.55
 -19  -2  -4 3315.82 1562.64
 -19  -2  -4  978.59 1597.16
 -19  -2   4 3458.35 1486.78
 -19  -1  -4  489.52  227.92
 -19  -1   4   25.03  181.55
 -19  -1   4  916.51  247.20
 -19   0  -4 1165.44  293.97
 -19   0  -4 -395.24  190.46
 -19   0   4  315.53  214.83
  19  -1  -4   38.86  247.05
 -19   1  -4  936.52  193.07
 -19   1   4  165.25  229.01
 -19   1   4  -68.96  132.96
  19  -2  -4 3958.88 1278.18
 -19   2  -4 1044.05 1318.52
  19  -2  -4 3296.59 1408.17
 -19   2  -4  906.59 1517.48
 -19   2   4  574.39 1507.23
  19  -2   4 6388.50 1327.51
 -19   2   4  297.79 1205.53
 -19   3  -4   23.73  254.04
 -19   3   4 -208.16  268.92
 -19   3   4  -51.81  101.62
 -19   4  -4  -82.23  269.18
  19  -4  -4   81.52  274.92
 -19   4   4   68.39  287.10
  19  -4   4   23.97  242.57
 -19   4   4    5.04   95.06
 -19   5  -4   69.35  124.91
 -19   5  -4   68.03  290.26
  19  -5   4  379.71  254.27
  19  -5   4  -60.84  240.20
 -19   6  -4 -146.12  125.14
 -19   6  -4 -209.83  313.97
  19  -6   4  292.89  257.13
 -20  -5  -4   64.24  243.70
 -20  -5   4    6.30  212.40
 -20  -5   4    5.37  150.24
  20   5   4   -2.37  168.76
  20   4  -4  160.97  121.47
  20   4  -4 -350.85  181.35
 -20  -4  -4 -387.73  273.03
  20   4   4 -145.79  137.62
 -20  -4   4  310.41  223.82
 -20  -4   4  -93.09  139.40
  20   4   4  180.29  202.17
  20   3  -4  -51.31  123.67
 -20  -3  -4 -228.10  288.92
 -20  -3  -4    6.55  187.68
  20   3  -4  247.52  188.19
 -20  -3   4  104.10  133.83
 -20  -3   4   90.62  211.63
  20   3   4 -133.03  196.21
  20   3   4  -65.87  141.88
  20   2  -4   43.19  199.20
 -20  -2  -4   89.97  185.43
 -20  -2  -4 -214.79  264.14
  20   2  -4   63.65  140.74
 -20  -2   4  244.12  202.00
  20   2   4    6.39  142.10
 -20  -2   4  133.85  133.78
  20   2   4  140.93  195.93
 -20  -1  -4  235.97  277.70
  20   1  -4  256.99  197.59
  20   1  -4 -180.32  163.20
 -20  -1  -4  -75.50  172.44
 -20  -1   4   -5.19  206.75
  20   1   4  131.25  184.20
  20   1   4 -318.10  149.89
 -20  -1   4   42.52  120.85
  20   0  -4   93.73  223.98
 -20   0  -4   67.47  255.40
 -20   0  -4  134.55  173.54
  20   0  -4   46.65  194.88
  20   0   4  158.25  171.17
 -20   0   4  136.61  119.02
  20   0   4  212.46  210.41
 -20   0   4 -112.34  217.76
  20  -1  -4  289.64  218.69
 -20   1  -4  306.70  263.67
  20  -1  -4 -161.58  257.66
 -20   1  -4   -5.98  155.51
  20  -1   4    7.78  187.68
 -20   1   4  -32.66  227.12
 -20   1   4  -77.71  113.06
  20  -1   4   -2.78  224.86
 -20   2  -4  -44.92  266.71
 -20   2  -4 -360.69  157.12
  20  -2  -4  168.19  224.53
  20  -2  -4  334.25  268.60
 -20   2   4   39.83  119.76
  20  -2   4  574.28  230.27
  20  -2   4  444.20  237.13
 -20   2   4  257.87  253.56
 -20   3  -4   47.50  276.81
  20  -3  -4  443.18  278.83
 -20   3   4   60.28  284.77
 -20   3   4 -166.73  113.91
  20  -3   4  289.35  276.81
  20  -4  -4 -202.35  304.23
 -20   4  -4   99.52  305.70
  20  -4   4  -56.16  280.04
 -20   4   4  141.07  320.79
  21   4  -4 -205.80  139.73
 -21  -4   4  144.16  257.64
  21   3  -4  -81.00  138.66
  21   3  -4  117.38  216.74
 -21  -3   4  123.58  260.59
 -21  -3   4   77.93  126.83
  21   2  -4  -96.52  153.50
  21   2  -4  153.92  218.39
 -21  -2   4 -604.20  245.90
  21   1  -4  216.93  174.64
 -21  -1   4   -5.30   98.01
 -21  -1   4 -122.93  227.44
  21   0  -4  247.12  218.79
 -21   0   4   -6.05  247.41
   0   0  -5   -2.81    5.48
   0   0  -5    1.27    2.44
   0   0   5   -0.28    4.72
  -1   0  -5   17.30   23.33
   0   1  -5   92.20   23.00
   0   1  -5   83.13   25.09
   1   0  -5   83.74   25.60
  -1   0   5   73.09   26.26
   0  -1   5   82.47   25.14
   1   1  -5    2.63    2.66
  -1   1  -5    0.72    4.70
  -1   1  -5   -1.07    5.94
  -1   1  -5   -0.16    2.15
   1   1  -5   -1.50    5.03
  -1  -1   5    1.78    4.60
   1  -1   5    2.66    6.61
   1  -1   5    3.25   10.42
   1  -1   5    0.87    4.13
  -1   2  -5  195.01   65.22
   2   1  -5  185.19   84.39
   2   1  -5  170.06   63.56
  -1   2  -5  152.46   60.81
   2   1  -5  149.59   64.03
   2   1  -5  188.71   56.51
   1  -2   5  184.55   57.86
   1  -2   5  125.03   76.25
  -2  -1   5  211.43   68.44
   1  -2   5  142.44   63.69
  -2  -1   5  177.36   64.73
   2   0  -5    2.20    6.74
  -2   0  -5    1.32   14.00
   0   2  -5    0.66    4.02
   0   2  -5   -0.67    2.79
   2   0  -5    2.31    2.91
  -2   0   5    0.33    6.18
   2   0   5    0.33   10.35
   2   0   5    3.38   14.14
   0  -2   5    2.24    3.62
  -2   1  -5  184.43   62.15
  -2   1  -5  176.16   64.63
  -2   1  -5  225.36   58.05
   1   2  -5  175.89   60.90
   1   2  -5  165.12   56.29
   2  -1   5  103.58   72.87
  -1  -2   5  149.26   58.94
   2  -1   5  165.03   65.66
   2  -1   5  177.28   62.63
  -2   2  -5   -0.21    2.88
  -2   2  -5    2.49    9.85
   2   2  -5   -4.19    5.32
  -2   2  -5    0.67    3.82
   2  -2   5   -1.69   14.27
   2  -2   5    2.72    3.51
   2  -2   5    0.79   12.65
   3   2  -5    5.77    4.65
   3   2  -5   13.30    7.23
   3   2  -5    9.01   11.23
   3   2  -5    1.80   13.48
  -2   3  -5    8.63    5.86
  -2   3  -5   32.86   18.68
   2  -3   5    9.27    7.32
  -3  -2   5    6.47   10.72
  -1   3  -5  187.27   52.72
   3   1  -5  164.86   60.72
  -3  -1  -5    4.07   63.85
  -1   3  -5  205.78   57.23
   3   1  -5  186.65   51.81
   3   1  -5   99.43   72.47
   3   1  -5  162.77   59.64
   3   1   5  102.79   68.06
  -3  -1   5  183.07   61.63
  -3  -1   5  220.98   60.39
  -3   0  -5   12.36   14.85
   3   0  -5    7.82    4.02
   0   3  -5    5.10    5.97
   3   0  -5    8.99    8.36
   0   3  -5    4.83    5.21
   0  -3   5    2.94    5.65
   3   0   5    6.36   12.07
   3   0   5   16.65   18.62
  -3   0   5    9.27    8.15
  -3   1  -5  189.57   64.72
   1   3  -5  158.45   56.42
  -3   1  -5  175.18   57.25
  -3   1  -5  195.43   62.68
   1   3  -5  152.80   60.39
   3  -1   5  206.79   66.34
   3  -1   5   85.86   72.46
  -1  -3   5  221.66   58.31
   3  -1   5  139.26   62.68
  -3   2  -5   11.80    5.80
  -3   2  -5   10.11   13.67
   2   3  -5   17.47    7.78
  -3   2  -5   13.38    6.26
   3  -2   5   10.48   18.20
   3  -2   5    2.12   18.84
   3  -2   5   15.55    6.03
   3   3  -5    1.75    7.33
  -3   3  -5   -2.97   18.47
   3   3  -5    5.46   18.95
   3   3  -5    2.27    6.14
   3  -3   5    2.04   44.56
   3  -3   5    6.24   24.29
  -3  -3   5    8.41    7.68
   4   3  -5   53.53   75.83
   4   3  -5  377.02   93.22
   4   3  -5  282.21   86.63
  -4  -3   5  140.20   83.20
   4   2  -5  112.20   52.81
   4   2  -5  227.03   59.12
   4   2  -5  187.80   48.24
   4   2  -5   75.76   57.63
  -4  -2   5  197.29   55.92
  -4  -2   5   96.24   53.24
   4   1  -5  262.71  209.10
  -4  -1  -5  267.06  198.42
   4   1  -5  463.22  191.17
   4   1  -5  473.69  193.39
   4   1  -5  581.79  168.14
   4   1   5  487.09  190.70
   4   1   5  711.06  215.85
  -4  -1   5  676.10  189.52
  -4  -1   5  690.34  200.25
  -4   0  -5   -7.16   17.32
   4   0  -5    2.68   38.26
   0   4  -5   -0.65    6.86
   4   0  -5  -12.88   22.39
   4   0  -5   -0.52   10.38
   4   0  -5    0.64    3.94
   0  -4   5    0.54    8.39
   4   0   5   -0.41   16.43
  -4   0   5    8.89   15.85
   4   0   5   -1.20   27.61
  -4   0   5   -0.41   10.40
  -4   1  -5  576.33  190.93
   4  -1   5  613.41  187.90
   4  -1   5  294.13  214.88
  -4   2  -5  234.10   55.27
  -4   2  -5  142.74   51.25
   2   4  -5  147.05   49.65
   4  -2   5  131.34   56.17
   4  -2   5   64.35   59.60
  -4   3  -5  449.01  120.06
   4  -3   5  298.87  132.34
   4  -3   5  374.48  124.56
   4   4  -5   -1.37    9.78
   4   4  -5   -2.75   30.54
  -4  -4   5    7.37   10.87
   4  -4   5   -0.84   35.44
   5   4  -5   -4.62   33.63
   5   4  -5   -2.21   10.38
   5   4  -5   10.64   11.54
  -5  -4   5   15.39   12.16
   5   3  -5   36.43   37.00
   5   3  -5   45.61   29.51
  -5  -3   5   56.59   32.82
   5   2  -5   36.24   39.29
   5   2  -5  132.32   42.20
   5   2  -5   69.91   33.93
  -5  -2   5  124.62   34.37
   5   2   5   67.56   50.88
  -5  -2   5   94.00   38.86
   5   1  -5   28.59   26.08
   5   1  -5   44.51   12.15
   5   1  -5   25.45   16.63
   5   1  -5   12.94   26.27
  -5  -1   5   33.67   21.48
  -5  -1   5   25.67   17.41
   5   0  -5  154.81   94.50
   5   0  -5  180.96   76.24
   5   0  -5  205.24   81.01
   5   0  -5  180.83   66.70
  -5   0   5  258.21   82.61
  -5   0   5  268.00   77.00
   5  -1  -5   38.17   14.90
  -5   1   5   43.59   29.50
   3   5  -5   93.47   27.65
  -3  -5   5   59.87   29.00
   4   5  -5   11.01   12.00
   4   5  -5    4.45   12.10
  -5   4  -5   -1.60   31.32
  -4  -5   5   12.22   13.90
   5  -4   5  -36.06   69.50
   5   5  -5   -5.96   13.43
   5   5  -5    4.84   12.21
   5   5  -5   37.01   42.22
  -5  -5   5    1.62   15.08
   6   5  -5    7.43   14.23
   6   5  -5   -2.01   13.87
  -6  -5   5   -7.85   17.21
   6   4  -5  115.93   34.26
   6   4  -5   73.27   36.22
  -6  -4   5   98.91   36.71
   6   3  -5  697.39  297.32
   6   3  -5  867.74  324.28
  -6  -3   5  934.96  311.96
   6   2  -5    7.82   28.24
  -6  -2  -5   14.55   41.41
  -6  -2   5    6.56   24.21
   6   2   5    2.37   28.68
   6   1  -5  103.18   52.77
   6   1  -5  102.25   46.51
  -6  -1  -5  117.00   57.96
   6   1   5  107.90   49.51
  -6  -1   5  139.59   49.97
  -6  -1   5  141.88   54.96
   6   1   5  160.40   64.48
   6   0  -5   -6.15   14.75
  -6   0  -5    8.39   25.76
   6   0  -5   16.27    6.64
  -6   0   5   -4.61   15.22
   6   0   5   -2.46   26.34
   6   0   5  -42.14   41.36
  -6   1  -5  113.71   50.56
   6  -1  -5  120.54   38.96
   6  -1   5   56.63   54.87
   6  -1   5  148.84   50.41
  -6   2  -5   21.51   27.70
  -6   2  -5   24.79   34.28
   6  -2   5   16.74   35.30
   6  -2   5    5.55   34.29
  -6   3  -5  890.66  296.01
   6  -3   5  849.00  313.80
   6  -3   5  690.64  326.91
  -6   4  -5   86.90   52.81
   6  -4   5  174.03   65.46
   6  -4   5  118.59   85.77
  -6   5  -5   -2.32   40.65
   5   6  -5    9.64   15.69
   6  -5   5 -157.99   60.89
   6   6  -5    5.85   16.49
  -6  -6   5   -5.78   20.45
   7   6  -5   10.83   18.15
   7   6  -5   21.11   61.94
  -7  -6   5  -19.80   23.05
   7   5  -5   13.93   16.54
   7   5  -5   17.40   17.15
   7   5  -5    0.71   53.77
  -7  -5   5   30.20   19.68
  -7  -3  -5   -6.05   50.66
   7   3  -5    1.30    9.93
   7   3  -5  -29.16   38.51
   7   3  -5   -1.97   13.45
  -7  -3   5   -3.03   13.52
  -7  -3   5    1.61   13.43
   7   2  -5   95.08   29.68
  -7  -2  -5    7.04   60.84
   7   2  -5   10.39   35.01
   7   2   5  115.02   44.44
  -7  -2   5  124.95   34.46
  -7  -1  -5   -3.67   38.06
   7   1   5  -12.24   28.26
   7   1   5    7.07   47.79
  -7  -1   5    7.80   25.93
  -7  -1   5  102.41   32.95
   7   0  -5   57.45   45.66
   7   0  -5  -78.88   51.90
  -7   0  -5   14.94   37.22
  -7   0   5  -14.74   32.47
   7  -1  -5  -34.33   65.39
   7  -1  -5   29.60   48.21
  -7   1  -5   10.04   33.87
   7  -1   5  -37.72   34.36
  -7   1   5   11.69   27.74
   7  -1   5  -35.58   36.33
  -7   2  -5   73.00   50.83
  -7   2  -5   17.42   56.58
   7  -2  -5  214.28   78.10
   7  -2   5  171.46   58.01
   7  -2   5  144.17   57.01
  -7   2   5   42.24   51.74
  -7   3  -5    2.89   31.46
   7  -3   5  -34.25   47.34
   7  -3   5   44.64   53.85
  -7   4  -5   69.17  104.53
  -7   5  -5    4.45   40.45
   7  -5   5   99.34   99.52
   7  -5   5   49.84   63.35
   7  -6   5   -4.79   67.18
   8   7  -5  107.58   45.38
   8   6  -5   80.22   78.81
   8   6  -5  105.77   36.94
  -8  -6   5   69.39   40.57
   8   5  -5    8.19   17.95
   8   5  -5   10.35   16.59
   8   5  -5   -3.89   59.91
  -8  -5   5   37.25   46.04
  -8  -5   5   -7.21   21.02
   8   4  -5  -11.88   16.13
   8   4  -5   25.87   35.42
   8   4  -5  -26.44   50.30
   8   4  -5   -1.86   14.14
  -8  -4   5   10.58   17.77
  -8  -4   5   45.96   49.10
   8   3  -5   29.25   18.34
   8   3  -5   -6.77   43.57
   8   3  -5  167.65   38.45
   8   3  -5   41.20   21.47
  -8  -3  -5  -13.14   60.92
   8   3   5   37.84   41.09
  -8  -3   5   37.06   22.69
  -8  -3   5   17.49   22.17
  -8  -3   5   78.33   40.90
  -8  -2  -5   65.64   56.62
   8   2  -5    2.78   13.41
   8   2  -5  -24.06   22.99
  -8  -2   5  -39.63   26.09
   8   2   5    5.35   36.50
  -8   0  -5   22.77   40.34
   8   0  -5  -13.57    9.64
  -8   0   5  -20.15   32.83
   8   0   5  -97.84   47.14
  -8   1  -5  148.11  522.96
  -8   1   5  156.85  502.11
  -8   2  -5   20.48   53.05
   8  -2  -5   52.54   16.30
  -8   2  -5   44.72   40.68
   8  -2  -5 -158.41   76.95
  -8   2   5   19.98   39.40
  -8   3  -5   27.72   48.11
   8  -3   5  179.76   65.40
   8  -3   5  141.41   67.00
  -8   4  -5    1.82   37.43
   8  -4   5   88.25   79.97
   8  -4   5  -66.45   62.51
  -8   5  -5    2.25   43.09
   8  -5   5   -7.65   70.07
   8  -5   5 -112.26   97.37
   8  -6   5    8.60   79.62
   9   7  -5  178.47   60.16
   9   7  -5   73.65  108.94
   9   6  -5   85.30   32.96
   9   6  -5   49.56   80.59
  -9  -6   5   39.05   37.67
   9   5  -5  191.46   65.98
   9   5  -5  309.62   85.84
   9   5  -5  211.57   70.22
   9   5  -5   97.29  104.29
  -9  -5   5  239.10   73.21
  -9  -5   5   -5.58   89.47
   9   4  -5   13.15   16.97
   9   4  -5  -17.91   37.70
   9   4  -5    3.40   56.11
   9   4  -5    3.78   17.58
  -9  -4   5   17.45   20.00
  -9  -4   5   12.86   57.03
   9   4   5   10.25   70.55
   9   3  -5   47.45   48.91
   9   3  -5  101.01   45.12
   9   3  -5   58.60   28.55
  -9  -3  -5   43.07   72.74
   9   3  -5   64.03   25.21
   9   3   5   40.84   48.27
  -9  -3   5   60.03   29.31
  -9  -3   5   51.47   28.91
  -9  -3   5  111.88   49.38
   9   2  -5    1.91   18.77
   9   2  -5   36.22   45.93
   9   2  -5   19.73   12.91
   9   2  -5  -11.59   40.94
  -9  -2  -5    7.89   61.41
   9   2   5   47.41   36.98
  -9  -2   5   12.20   18.74
  -9  -2   5   30.50   40.93
  -9  -2   5  -12.36   33.35
  -9  -2   5   40.61   18.02
   9   1  -5   -9.39   46.94
   9   1  -5   12.19    9.58
  -9  -1  -5   14.87   49.37
   9   1  -5  -16.55   44.29
   9   1  -5   12.10   18.27
  -9  -1   5   41.68   32.93
  -9  -1   5  -25.34   46.71
   9   1   5   24.74   37.21
  -9  -1   5    9.24   21.49
   9   0  -5   61.20   62.43
   9   0  -5   52.80   30.93
  -9   0  -5   93.05   48.93
   9   0  -5   79.08   58.09
   9   0  -5   69.43   23.35
  -9   0   5   31.49   35.22
   9   0   5   57.26   55.85
   9   0   5  100.46   51.09
  -9   0   5   79.94   39.70
  -9   1  -5  -21.67   47.53
   9  -1  -5  -16.66   65.26
   9  -1  -5    2.72   10.01
   9  -1  -5   31.18   76.67
   9  -1   5  -57.44   48.55
   9  -1   5   30.26   50.90
  -9   1   5    8.23   34.13
   9  -2  -5   14.17   76.47
   9  -2  -5   14.24   12.27
  -9   2  -5   -1.48   56.02
   9  -2  -5  -26.04   87.60
  -9   2  -5    8.84   42.95
   9  -2   5   21.00   50.34
  -9   2   5   16.34   38.78
   9  -2   5  -17.90   52.35
  -9   3  -5   62.47   49.29
   9  -3  -5   62.58   93.30
   9  -3   5  107.98   65.96
   9  -3   5   15.23   66.28
  -9   4  -5   -7.92   41.21
   9  -4   5  -13.34   70.54
   9  -4   5   68.29   84.71
  -9   5  -5  167.27   90.74
   9  -5   5   30.92  131.24
   9  -5   5  480.46  117.86
  -9   6  -5  111.06   60.63
   9  -6   5   58.91   91.30
  10   7  -5  230.87   78.33
  10   7  -5  129.56  132.50
  10   6  -5  231.92   70.34
  10   6  -5  181.34  118.86
 -10  -6   5  144.82   75.42
  10   5  -5   -0.77   20.78
  10   5  -5   -1.37   21.85
  10   5  -5    9.38   46.54
  10   5  -5  -44.69   74.50
 -10  -5   5  -31.63   66.13
 -10  -5   5  -11.14   27.15
  10   4  -5  468.02  148.00
  10   4  -5  408.37  129.47
 -10  -4  -5   48.56  162.49
  10   4  -5   82.02  160.32
 -10  -4   5  527.06  155.52
 -10  -4   5  461.66  142.36
 -10  -4   5  426.81  144.00
  10   4   5  570.79  177.59
  10   3  -5   46.87   44.31
  10   3  -5  -42.25   44.33
 -10  -3  -5   52.58   79.47
  10   3  -5    0.69   19.96
  10   3  -5    7.07   14.64
 -10  -3   5   10.03   19.77
  10   3   5    3.44   78.49
  10   3   5    9.59   45.47
 -10  -3   5   47.78   51.54
 -10  -3   5  -10.29   20.35
  10   2  -5   52.31   20.21
  10   2  -5   25.71   57.67
 -10  -2  -5   92.52   73.17
  10   2  -5   10.10   50.52
  10   2  -5   30.78   25.66
  10   2   5   13.19   44.07
 -10  -2   5   51.17   51.69
 -10  -2   5   71.75   25.67
 -10  -2   5   41.49   43.62
 -10  -2   5   66.77   29.17
  10   1  -5   64.67   72.76
  10   1  -5  110.32   60.50
 -10  -1  -5  312.62   79.04
  10   1  -5  229.90   78.52
  10   1  -5  154.80   52.54
 -10  -1   5  262.85   79.83
  10   1   5  141.58   68.10
 -10  -1   5   89.00   65.95
 -10  -1   5  148.88   69.31
  10   0  -5   13.68   62.06
  10   0  -5    4.05   59.79
  10   0  -5   -1.61   10.24
  10   0  -5   12.33   21.19
 -10   0  -5   58.85   51.04
 -10   0   5   -1.60   64.18
  10   0   5    0.70   53.56
  10   0   5   52.79   53.00
 -10   0   5    3.13   36.75
 -10   0   5   -8.17   22.86
 -10   1  -5  201.28   78.60
  10  -1  -5  129.85   92.98
  10  -1  -5  151.06   49.61
 -10   1  -5  155.04   76.79
  10  -1  -5  234.02   95.41
  10  -1   5  258.98   78.59
  10  -1   5    3.56   78.24
 -10   1   5   81.22   63.61
  10  -2  -5  -11.67  102.68
 -10   2  -5    8.05   51.13
  10  -2  -5    3.84   90.17
 -10   2  -5  168.66   71.08
  10  -2  -5   58.01   19.18
  10  -2   5  111.09   63.99
  10  -2   5  -79.27   59.60
 -10   2   5   19.03   44.67
 -10   3  -5    2.06   48.84
 -10   3  -5   -6.08   81.75
  10  -3  -5    4.72  100.02
 -10   3   5    2.62   44.78
  10  -3   5  -92.76   71.37
  10  -3   5 -159.68   72.30
 -10   4  -5  456.38  137.92
  10  -4   5  194.07  164.26
  10  -4   5  356.23  161.62
 -10   5  -5   12.46   47.93
  10  -5   5  -54.52  109.30
  10  -5   5  -75.11   91.79
 -10   6  -5  151.47   68.19
  10  -6   5 -283.40  114.55
  11   7  -5   -7.39   29.36
  11   7  -5   96.32  109.47
  11   6  -5  -74.77   96.68
  11   6  -5   27.73   26.04
 -11  -6   5   44.08   71.57
  11   5  -5   27.37   54.88
  11   5  -5   63.21   29.73
  11   5  -5  119.53   31.35
  11   5  -5  -37.09   83.40
 -11  -5   5   22.74   38.07
 -11  -5   5   -7.11   79.53
  11   4  -5   21.09   49.41
 -11  -4  -5   12.46   91.61
  11   4  -5   40.77   24.58
  11   4  -5   18.48   21.63
  11   4  -5 -127.70   65.26
 -11  -4   5   65.22   70.46
  11   4   5 -101.48   59.76
 -11  -4   5   72.19   24.10
 -11  -4   5   62.07   29.09
  11   4   5 -228.19  101.45
  11   3  -5  261.63   76.11
  11   3  -5  164.28   61.63
  11   3  -5   70.65   79.92
 -11  -3  -5  103.76  106.19
  11   3  -5  121.89   56.91
  11   3   5   96.63   75.32
 -11  -3   5  147.37   63.06
  11   3   5  110.28  112.48
 -11  -3   5  160.25   65.23
 -11  -3   5  377.08   83.07
  11   2  -5  518.94  134.48
  11   2  -5  211.40  127.49
 -11  -2  -5  324.85  140.02
  11   2  -5  247.17  117.17
  11   2  -5  190.97  109.14
 -11  -2   5  423.59  119.09
 -11  -2   5  330.17  130.34
  11   2   5  367.35  120.28
 -11  -2   5  188.18  121.52
 -11  -2   5  539.82  128.76
  11   1  -5  -58.43   57.87
  11   1  -5   24.70   61.93
  11   1  -5   38.54   16.09
  11   1  -5   21.29   24.69
 -11  -1  -5   81.23   64.30
 -11  -1   5   18.41   22.92
 -11  -1   5   91.89   63.24
 -11  -1   5   30.69   29.91
 -11  -1   5   36.98   45.31
  11   1   5    4.50   49.96
  11   0  -5  679.99  287.98
  11   0  -5  647.22  286.60
 -11   0   5  767.87  270.78
 -11   0   5  557.45  322.21
  11   0   5 1197.21  276.11
 -11   0   5 1038.09  297.45
 -11   1  -5  -15.79   61.11
 -11   1  -5  112.31   69.06
  11  -1  -5   24.90   89.48
  11  -1  -5   95.92   85.66
  11  -1   5  -32.48   66.57
  11  -1   5   59.70   72.67
 -11   1   5   57.42   43.47
  11  -2  -5  428.98  172.88
 -11   2  -5  453.13  148.26
  11  -2  -5  288.67  172.23
 -11   2  -5  598.48  162.06
  11  -2   5  282.06  152.38
 -11   2   5  402.57  140.52
 -11   3  -5  201.49   79.57
  11  -3  -5  205.36  133.11
 -11   3  -5  330.20  116.62
  11  -3   5  117.14  100.49
 -11   3   5  216.49   75.14
  11  -3   5  -15.59  100.47
 -11   4  -5   74.27   62.36
  11  -4   5 -306.49  102.86
 -11   5  -5   74.87   56.66
  11  -5   5 -119.82  101.72
  11  -5   5  -74.76  121.24
 -11   6  -5   27.94   59.41
  11  -6   5   55.23  132.28
  11  -6   5   13.76  110.64
  12   8  -5  -39.47  133.63
  12   8  -5  -30.07   37.00
  12   7  -5   63.30  119.91
  12   7  -5   37.37   34.48
  12   6  -5  102.03  102.49
 -12  -6   5  -32.74   85.76
  12   5  -5    4.04   57.53
  12   5  -5  -45.15   84.77
 -12  -5   5    8.50   30.23
 -12  -5   5   37.53   37.56
 -12  -5   5  -15.75   87.10
  12   4  -5   71.15   68.23
  12   4  -5   47.47   55.97
 -12  -4  -5 -102.52   98.29
  12   4   5   43.24   65.14
 -12  -4   5   96.81   83.00
  12   4   5   31.46  111.54
  12   3  -5  -46.86   63.92
 -12  -3  -5   28.81  101.68
  12   3  -5   21.93   53.52
  12   3   5   32.95   58.86
  12   3   5    4.07  102.81
 -12  -3   5   58.38   68.48
 -12  -3   5   26.43   56.31
  12   2  -5 -167.76   63.65
  12   2  -5    4.50   75.92
 -12  -2  -5  -36.31   88.25
 -12  -2   5    9.49   65.14
 -12  -2   5    9.34   51.39
  12   2   5  -90.17   53.34
  12   2   5  -10.37   89.64
  12   1  -5  185.63  136.45
  12   1  -5  351.79  138.50
 -12  -1  -5  364.75  139.01
 -12  -1   5  441.49  141.02
 -12  -1   5  410.29  124.44
 -12   0  -5 -197.03   85.45
  12   0  -5  -22.27   84.04
  12   0  -5 -150.36   84.21
 -12   0   5   52.37   48.82
 -12   0   5  -26.12   87.76
 -12   1  -5  155.23  124.15
 -12   1  -5  334.41  128.58
  12  -1  -5   15.32  136.33
  12  -1  -5  230.45  137.36
 -12   1   5  336.33   99.92
  12  -2  -5  123.82  109.64
 -12   2  -5    2.56   65.24
  12  -2  -5   97.67  107.14
 -12   2  -5   -6.67   89.96
  12  -2   5  -56.25   85.35
  12  -2   5  -36.32   75.96
 -12   2   5   -2.39   49.24
 -12   3  -5   38.67  106.64
 -12   3  -5   38.85   64.80
  12  -3  -5  160.15  130.48
 -12   3   5   52.65   53.17
  12  -3   5 -170.69  100.33
  12  -3   5  162.31   95.12
 -12   4  -5  128.47  131.13
 -12   4  -5   76.96   69.06
  12  -4   5  165.58  108.94
  12  -4   5  -11.57  112.68
  13   7  -5  -29.05  135.10
  13   6  -5  137.39  110.15
  13   6  -5    3.28   69.28
 -13  -6   5   57.46   99.80
  13   5  -5  -73.71   87.62
  13   5  -5   27.69   62.25
  13   5   5   14.06  131.68
 -13  -5   5 -166.42  105.17
  13   4  -5  107.93   89.01
  13   4  -5  121.99   73.52
 -13  -4   5  127.75  102.30
  13   3  -5  -40.35   72.19
  13   3  -5  -29.55   61.20
 -13  -3   5  -44.58   75.06
 -13  -3   5   77.01   61.04
  13   2  -5  280.43   99.54
  13   2  -5  152.43   95.27
 -13  -2   5  308.94   99.00
  13   2   5   -1.39   86.10
 -13  -2   5  215.65   86.08
 -13  -1  -5  -48.19   93.53
  13   1  -5   28.59   76.77
  13   1  -5  -10.10   85.47
 -13  -1   5  -18.96   53.88
  13   1   5  -18.56   65.59
 -13  -1   5  -42.30   82.00
 -13   0  -5  567.00  154.60
  13   0  -5  137.53  153.13
  13   0  -5  218.21  157.68
  13   0   5  285.18  142.59
 -13   0   5  411.04  165.12
 -13   0   5  330.84  129.79
  13  -1  -5   95.38  104.52
  13  -1  -5  -82.84  105.35
 -13   1  -5  -16.02   91.05
 -13   1   5   58.77  118.28
 -13   1   5  -22.92   53.56
  13  -1   5  -22.21   96.25
  13  -2  -5  301.04  136.23
  13  -2  -5    1.67  125.46
  13  -2   5    1.92  107.47
 -13   2   5   77.09   69.61
  13  -3  -5   20.42  141.48
 -13   5  -5   41.63   67.59
  13  -5   5   31.27  139.53
 -13   6  -5  -14.05   69.07
  13  -6   5  -83.23  153.15
  13  -6   5 -199.34  135.81
  13  -7   5 -253.36  152.79
 -14  -5  -5 -139.55  129.52
  14   5  -5    3.16   71.60
 -14  -5   5   -9.72  116.82
  14   5   5 -301.56  152.43
  14   4  -5  293.12  120.38
 -14  -4  -5  158.20  173.95
 -14  -4   5  447.93  156.07
  14   4   5 -109.19  186.97
  14   4   5   -1.88  118.60
  14   3  -5 -102.84   76.17
 -14  -3  -5  -11.97  133.79
  14   3   5   20.70  122.34
 -14  -3   5   48.12   90.70
  14   3   5   31.79   70.60
 -14  -2  -5  -86.24  120.99
  14   2  -5  -19.10   85.03
  14   2   5    6.21   98.54
 -14  -2   5   26.92   84.15
  14   2   5   52.88   66.77
  14   1  -5   43.65  128.34
 -14  -1  -5  240.42  136.79
  14   1   5  433.65  106.03
 -14  -1   5  252.99  127.23
  14   1   5   91.51  120.72
 -14   0  -5  339.32  164.37
  14   0   5  565.61  148.78
 -14   0   5  -22.34  172.45
 -14   1  -5  -28.60  117.91
  14  -1   5  160.96  124.55
 -14   2  -5   80.33   83.22
 -14   2  -5  143.12  116.67
  14  -2   5  -98.11   99.38
  14  -2   5 -194.27  113.95
 -14   3  -5  171.49  138.03
 -14   3  -5    9.53   80.90
  14  -3   5 -144.58  120.62
 -14   3   5  -46.60   66.08
  14  -3   5 -187.17  119.99
  14  -4   5  677.65  343.57
  14  -4   5 1377.09  350.72
 -14   5  -5  -78.24  184.35
 -14   5  -5   10.56   78.15
  14  -5   5  -49.75  143.45
  14  -5   5 -247.42  156.25
 -14   6  -5  113.89   86.25
  14  -6   5  248.94  158.17
  14  -6   5   19.16  166.80
  14  -7   5 -105.91  159.13
  15   6  -5  -91.65   75.91
  15   6  -5   73.01  104.99
 -15  -6   5 -154.56  115.80
 -15  -5  -5 -110.31  143.43
  15   5  -5  177.10  109.05
  15   5  -5  220.74   87.04
  15   5   5  -85.63  168.02
 -15  -5   5   89.74  131.93
  15   4  -5   55.81  104.00
 -15  -4  -5 -129.40  152.01
  15   4   5   12.35   86.76
 -15  -4   5 -185.35   93.96
  15   4   5  189.35  148.03
  15   3  -5  -44.34  104.08
 -15  -3  -5  255.10  157.31
  15   3   5    5.78  126.83
 -15  -3   5  296.97  103.28
  15   3   5  172.11   88.50
 -15  -3   5  -59.95   92.83
  15   2  -5    9.77  101.34
 -15  -2  -5  -30.08  140.35
 -15  -2   5  209.19   94.95
  15   2   5   57.36   80.41
  15   2   5   16.45  112.11
 -15  -2   5   29.40   77.83
  15   1  -5   12.67  116.41
 -15  -1  -5 -142.18  126.96
 -15  -1   5   37.04   73.55
  15   1   5  -14.20   85.50
  15   1   5 -115.19  107.08
  15   0  -5  -30.39  117.85
  15   0  -5  136.83  124.02
 -15   0  -5  -45.34  121.50
 -15   0   5  108.76   71.95
  15   0   5    1.97   96.72
 -15   0   5  284.01  125.73
 -15   1  -5  -30.30  119.73
  15  -1  -5   43.55  135.10
  15  -1  -5  -12.75  139.77
  15  -1   5    2.36  119.16
 -15   1   5  170.77   70.53
 -15   1   5   -6.47  140.23
 -15   2  -5 -163.63  139.86
  15  -2  -5   -9.58  139.92
  15  -2  -5   44.29  156.85
 -15   2  -5  -39.12   97.96
  15  -2   5 -146.79  135.71
 -15   2   5  -24.21   68.44
  15  -2   5   11.81  122.78
 -15   2   5  197.46  171.67
  15  -3  -5   45.62  153.26
  15  -3  -5  335.32  181.31
 -15   3  -5   90.68  159.82
 -15   3  -5  206.21  100.56
  15  -3   5    2.67  138.26
 -15   3   5  -16.64   78.57
  15  -3   5   77.33  141.09
  15  -4  -5 -225.06  199.56
 -15   4  -5  135.23   96.69
 -15   4  -5  122.32  178.45
  15  -4   5   50.95  147.03
  15  -4   5   34.26  156.83
 -15   5  -5  107.54   98.34
 -15   5  -5  198.88  197.49
  15  -5   5  339.81  161.06
  15  -5   5   22.98  172.93
 -15   6  -5   20.68   87.23
 -15   6  -5  -93.78  216.54
  15  -6   5   92.54  170.17
  15  -6   5 -200.97  162.46
 -15   7  -5   36.55   89.98
  15  -7   5  146.98  173.21
  16   6  -5  547.78  201.36
 -16  -5  -5 -137.71  160.05
  16   5   5   -2.09  176.38
 -16  -5   5  -52.63  102.91
  16   4  -5  -78.10  107.45
  16   4  -5   25.28   76.88
 -16  -4  -5  -72.12  170.30
 -16  -4   5   39.78  135.71
 -16  -4   5  -18.89   90.69
  16   4   5 -221.25  151.39
  16   4   5   76.82   89.90
 -16  -3  -5 -141.03  171.68
  16   3  -5  -15.56   80.81
  16   3  -5   44.94  101.84
 -16  -3   5  -27.55   86.50
  16   3   5   16.40   83.02
 -16  -3   5   14.90  113.50
  16   3   5   23.54  120.38
  16   2  -5  -70.94   98.61
  16   2  -5   72.70  103.59
 -16  -2  -5  201.40  162.13
 -16  -2   5   68.35   77.71
  16   2   5   -2.79  114.80
  16   2   5   54.42   82.80
 -16  -2   5  -19.32  112.18
  16   1  -5  271.11  137.38
  16   1  -5 -187.43  121.57
 -16  -1  -5  177.18  126.55
 -16  -1  -5  125.23  152.81
  16   1   5   23.96   93.22
 -16  -1   5   61.00   80.81
  16   1   5  141.73  121.81
 -16  -1   5   68.72  122.64
  16   0  -5  185.86  144.21
 -16   0  -5  227.50  146.95
  16   0  -5  173.24  132.55
  16   0   5   99.98  125.73
 -16   0   5  144.57  141.82
 -16   0   5  121.64   85.63
  16   0   5    2.22  110.51
  16  -1  -5  416.05  161.18
 -16   1  -5  120.39  146.28
  16  -1  -5  194.74  157.09
 -16   1   5  120.84  170.60
 -16   1   5   74.60   94.47
  16  -1   5  357.42  141.36
 -16   2  -5  -43.79  107.74
  16  -2  -5  -56.01  143.17
  16  -2  -5  313.70  171.65
 -16   2  -5  -11.20  151.96
 -16   2   5 -153.56  182.05
 -16   2   5   -3.31   72.91
  16  -2   5   -2.98  139.46
 -16   3  -5   50.96   96.39
  16  -3  -5   44.03  153.43
 -16   3  -5  -32.65  171.76
  16  -3  -5 -253.40  191.77
  16  -3   5   84.27  153.14
 -16   3   5  -39.55   72.06
 -16   3   5  201.46  210.79
  16  -3   5  -24.72  141.22
  16  -4  -5  -89.33  209.91
 -16   4  -5  108.33  189.43
 -16   4  -5 -108.82   96.66
  16  -4   5  -35.42  163.76
  16  -4   5 -171.60  157.24
 -16   5  -5  154.61  207.59
 -16   5  -5  -42.57   97.46
  16  -5   5  -54.58  163.40
  16  -5   5 -282.96  180.99
 -16   6  -5   22.69  102.61
 -16   6  -5   37.70  240.98
  16  -6   5 -252.71  197.97
  16  -6   5   83.51  192.84
 -16   7  -5  -64.35   91.89
  16  -7   5  103.36  189.01
 -17  -6   5  369.60  184.13
  17   5  -5  -55.87  122.48
  17   5  -5  -14.15   85.16
 -17  -5  -5  -70.50  176.96
 -17  -5   5 -114.49  156.60
 -17  -5   5  202.04  112.16
  17   5   5  -53.90  185.27
 -17  -4  -5 -121.05  192.38
  17   4  -5  -61.32   84.89
  17   4  -5  192.13  121.46
 -17  -4   5  -28.32   99.43
  17   4   5  124.96  158.30
  17   4   5    2.49   98.09
 -17  -4   5  331.57  152.54
 -17  -3  -5  204.54  190.92
  17   3  -5  -82.50   91.87
  17   3   5  -18.95   97.67
  17   3   5  -79.37  126.09
 -17  -3   5   61.72   95.41
 -17  -3   5  111.10  137.49
 -17  -2  -5   18.78  143.23
 -17  -2  -5 -198.14  190.72
  17   2   5 -314.96  107.53
 -17  -2   5 -135.98   99.46
 -17  -1  -5    4.60  191.16
  17   1   5  541.78  181.40
  17   1   5  600.68  204.47
 -17   0  -5  350.56  203.37
 -17   0  -5   83.78  222.33
  17   0  -5   96.22  215.55
 -17   0   5  379.91  217.69
 -17   0   5   65.63  146.52
 -17   1  -5   32.14  172.30
  17  -1  -5 -364.83  186.62
  17  -1  -5  375.81  173.16
 -17   1   5 -336.77  186.61
  17  -1   5   53.26  155.64
 -17   1   5   37.60   94.05
  17  -2  -5 -205.75  162.85
  17  -2  -5  -46.65  190.49
 -17   2   5   93.67   84.01
 -17   2   5   72.37  197.26
  17  -3  -5 -318.20  211.94
  17  -3  -5  -37.39  167.54
 -17   3  -5  175.48  192.77
 -17   3  -5   48.43  106.61
 -17   3   5 -259.29  229.69
  17  -3   5 -188.90  165.56
  17  -3   5  274.02  166.98
 -17   3   5  -39.11   79.70
  17  -4  -5  -87.55  233.44
 -17   4  -5 -120.45  207.98
 -17   4  -5 -158.23  109.47
  17  -4   5  313.33  191.85
  17  -4   5    7.23  175.53
 -17   5  -5   -4.74  101.24
 -17   5  -5  120.59  231.47
  17  -5   5  143.62  195.24
  17  -5   5 -184.34  182.51
 -17   6  -5   40.03  106.61
 -17   6  -5 -242.62  258.56
  17  -6   5   28.24  198.48
  17  -6   5  325.78  204.16
 -17   7  -5  -87.45  275.58
 -17   7  -5   32.43  104.64
  17  -7   5   37.85  204.27
  18   5  -5 -183.08   95.67
 -18  -5  -5 -229.03  190.49
 -18  -5   5  -53.26  120.29
 -18  -5   5  117.17  169.05
  18   5   5   25.60  177.82
 -18  -4  -5  258.86  210.91
  18   4  -5  104.84  131.60
  18   4  -5 -107.76   97.76
 -18  -4   5   79.26  118.18
 -18  -4   5  172.19  162.30
  18   4   5  -48.44  160.79
  18   4   5   22.09  108.40
  18   3  -5  -76.12   97.78
 -18  -3  -5 -109.23  209.67
  18   3  -5 -224.09  138.29
 -18  -3   5  122.46  105.55
  18   3   5   36.94  109.54
 -18  -3   5  121.14  157.21
  18   3   5  -24.95  149.99
  18   2  -5 -135.33  145.43
  18   2  -5  -20.95  112.84
 -18  -2  -5  115.25  149.32
 -18  -2  -5  321.67  204.36
  18   2   5  -52.24  150.55
 -18  -2   5  313.68  147.09
  18   2   5  -63.16  107.25
 -18  -2   5   14.89  101.01
  18   1  -5  -79.78  141.11
 -18  -1  -5  247.80  148.62
  18   1  -5   47.33  137.68
 -18  -1  -5 -143.02  186.69
 -18  -1   5  224.21   93.21
  18   1   5  -37.67  146.01
 -18  -1   5    3.61  146.59
  18   1   5 -143.28  113.88
  18   0  -5 -159.99  185.40
  18   0  -5   12.61  159.59
 -18   0  -5 -152.29  135.38
 -18   0  -5   72.32  194.61
  18   0   5    8.65  140.55
 -18   0   5  147.48   88.77
 -18   0   5   38.73  156.94
  18   0   5  100.79  124.18
  18  -1  -5 -265.90  187.22
  18  -1  -5   78.67  171.03
 -18   1  -5 -135.35  191.57
  18  -1   5  -60.40  145.92
 -18   1   5  118.33   87.23
 -18   1   5 -108.32  190.56
  18  -2  -5   19.95  205.81
  18  -2  -5   19.91  177.64
 -18   2  -5  -72.75  196.98
  18  -2   5   80.10  177.22
 -18   2   5 -113.62  214.76
 -18   2   5  155.46   89.68
 -18   3  -5   53.72  120.04
  18  -3  -5 -558.98  234.58
 -18   3  -5 -355.73  222.44
  18  -3   5 -122.20  198.60
 -18   3   5   59.59   88.86
 -18   3   5 -242.70  246.82
 -18   4  -5  201.64  248.62
 -18   4  -5  336.74  130.30
  18  -4  -5  414.47  261.54
  18  -4   5  138.96  216.03
 -18   4   5 -222.04  294.11
  18  -4   5   -5.72  217.83
 -18   5  -5   47.52  113.50
 -18   5  -5 -156.94  258.77
  18  -5   5   82.04  215.75
  18  -5   5    8.42  209.36
 -18   7  -5  259.87  299.81
  18  -7   5 -229.89  239.51
 -19  -5  -5 -270.87  215.00
 -19  -5   5   59.65  129.47
  19   5   5 -138.45  183.10
  19   4  -5  123.67  102.12
  19   4  -5 -210.20  153.05
 -19  -4  -5 -255.21  239.58
 -19  -4   5   48.68  120.92
  19   4   5 -180.67  175.87
  19   4   5   -6.14  119.94
 -19  -4   5   85.51  196.11
 -19  -3  -5   83.72  176.34
 -19  -3  -5  -51.02  241.76
 -19  -3   5   67.93  117.71
 -19  -3   5   43.77  190.99
  19   2  -5  639.76  160.36
 -19  -2  -5 -163.75  178.76
 -19  -2   5 -578.10  206.35
 -19  -2   5  102.63  119.72
  19   0  -5 2193.86 1442.24
 -19   0  -5 3116.36 1589.97
 -19   0  -5 5795.86 1618.06
  19   0  -5 2091.65 1425.18
 -19   0   5  714.72 1313.79
 -19   0   5  994.22 1549.37
  19  -1  -5 3010.19 1275.88
  19  -1  -5 3459.77 1388.29
 -19   1  -5 1979.23 1513.60
 -19   1  -5 1987.16 1397.98
 -19   1   5  249.41 1187.53
 -19   1   5  217.63 1489.00
  19  -2  -5 -766.42  249.19
 -19   2   5 -141.73  100.50
 -19   2   5  -75.85  228.77
  19  -2   5 -434.03  220.52
 -19   3  -5 -122.75  250.17
  19  -3  -5 -463.80  267.55
 -19   3   5   18.75   99.31
  19  -3   5 -675.34  257.80
 -19   3   5  -49.03  268.45
 -19   4  -5   90.54  133.40
 -19   4  -5   -6.30  267.05
  19  -4   5  143.08  242.97
  19  -4   5    3.16  237.07
 -19   5  -5  391.70  134.71
 -19   5  -5 -300.48  283.60
  19  -5   5 -200.82  242.05
  19  -5   5  -36.93  241.23
 -19   6  -5  117.45  136.34
 -19   6  -5  412.16  310.58
  19  -6   5   32.53  254.88
  19  -6   5  123.96  251.67
 -20  -4  -5 -173.17  271.79
  20   4   5 -145.77  178.10
 -20  -4   5 -225.97  140.48
 -20  -4   5   66.01  223.20
  20   4   5   44.64  138.75
 -20  -3  -5  568.39  296.17
  20   3  -5   40.22  198.95
  20   3  -5   31.81  129.97
 -20  -3   5 -120.73  211.62
 -20  -3   5  185.78  136.97
  20   3   5   92.25  202.40
  20   3   5  344.98  149.86
  20   2  -5   16.28  189.85
 -20  -2  -5 -123.24  295.32
 -20  -2  -5   13.15  194.57
  20   2  -5   37.12  140.22
  20   2   5  335.59  151.13
 -20  -2   5  -59.28  123.94
 -20  -2   5   75.84  199.61
  20   2   5  143.99  194.06
  20   1  -5  159.17  167.83
  20   1  -5  162.60  214.42
 -20  -1  -5   58.01  181.73
 -20  -1  -5  336.67  279.47
 -20  -1   5    4.78  199.39
 -20  -1   5   68.41  119.37
  20   1   5   85.40  186.15
  20   1   5  -35.74  156.25
  20   0  -5 -327.86  217.26
 -20   0  -5   37.72  169.87
 -20   0  -5 -334.60  275.05
  20   0  -5  -90.82  206.60
 -20   0   5 -200.37  207.37
  20   0   5    2.49  208.26
 -20   0   5 -340.38  116.45
  20   0   5  595.33  167.70
  20  -1  -5   80.53  219.19
 -20   1  -5  794.05  275.08
  20  -1  -5  -81.54  261.04
 -20   1  -5   91.79  168.10
  20  -1   5  129.98  188.15
 -20   1   5   90.21  119.81
 -20   1   5   64.80  232.69
  20  -1   5  251.34  224.69
 -20   2  -5 -182.45  277.85
  20  -2  -5  237.25  222.50
  20  -2  -5  485.02  278.85
 -20   2   5  245.19  123.83
  20  -2   5   30.16  219.38
 -20   2   5  125.50  256.98
  20  -3  -5  817.66  287.81
 -20   3  -5  -73.84  287.50
 -20   3   5 -134.09  291.62
  20  -3   5  436.38  255.24
 -20   3   5  -36.31  113.22
  21   3  -5  -41.50  133.18
 -21  -3   5  172.64  248.65
  21   2  -5  267.39  218.03
  21   2  -5 -107.84  150.15
 -21  -2   5 -311.79  236.66
  21   1  -5  100.32  177.27
  21   1  -5  290.05  234.16
 -21  -1   5  -91.48  229.75
 -21  -1   5  117.56  124.71
  21   0  -5   64.96  217.52
 -21   0   5  190.79  225.44
   0   0  -6   -1.96    7.45
   0   0  -6    1.82    3.15
   0   0   6   -3.06    5.82
  -1   0  -6    1.37    2.82
   0   1  -6   -3.76    6.36
   0   1  -6   -0.45    2.64
   1   0  -6   -0.98    3.51
   1   0  -6   -1.01    7.52
  -1   0   6    1.08    6.72
   0  -1   6   -0.25    5.71
  -1   1  -6   72.85   47.83
   1   1  -6  156.49   40.54
   1   1  -6  146.62   45.49
  -1   1  -6  124.65   45.86
  -1   1  -6  128.76   41.16
   1  -1   6  125.34   46.61
   1  -1   6   85.18   45.56
  -1  -1   6  146.59   46.49
   1  -1   6  107.32   52.21
   2   1  -6   23.51   12.40
  -1   2  -6   19.64    9.24
  -1   2  -6   32.17   11.29
  -1   2  -6   36.26   12.68
  -1   2  -6   32.00   13.08
   1  -2   6   22.00   10.77
   1  -2   6   26.43   13.10
  -2  -1   6   23.43   12.66
   1  -2   6   13.89   16.52
   2   0  -6  395.05  121.08
   0   2  -6  341.00  106.09
   2   0  -6  372.53  108.36
   0   2  -6  332.28  115.54
   0  -2   6  353.89  114.91
   2   0   6  214.07  129.43
  -2   0   6  270.84  127.27
   1   2  -6   34.40   10.90
  -2   1  -6   31.71   15.46
  -2   1  -6   31.28   13.40
  -2   1  -6   39.62   11.04
   1   2  -6   28.22   12.65
   2  -1   6   31.97   13.28
  -1  -2   6   24.24   12.41
   2  -1   6   33.53   15.83
   2  -1   6   27.64   20.79
  -2   2  -6 1555.15  612.20
  -2   2  -6 1982.54  614.30
  -2   2  -6 1680.68  549.27
   2   2  -6 2086.11  598.24
  -2   2  -6 2275.68  620.75
   2  -2   6 1591.82  566.38
   2  -2   6 1732.14  602.32
  -2  -2   6 1703.63  598.21
   2  -2   6 1340.41  596.30
   2  -2   6  939.11  661.91
   3   2  -6  291.35   77.01
  -2   3  -6  233.60   84.29
   3   2  -6   92.19   91.06
   3   2  -6  184.81   84.72
   3   2  -6  335.16   92.89
  -2   3  -6  268.56   78.57
  -2   3  -6  289.67   93.69
   2  -3   6  265.35  112.27
  -3  -2   6  170.44   84.88
   2  -3   6  274.35   80.98
  -3  -2   6  254.10   87.39
   2  -3   6  192.67   91.84
   3   1  -6   72.49   42.81
  -1   3  -6   83.69   25.13
   3   1  -6   45.92   23.27
   3   1  -6   97.23   26.94
   3   1  -6   48.05   28.72
  -1   3  -6   53.45   23.54
   1  -3   6   80.71   24.26
  -3  -1   6   91.06   27.72
  -3  -1   6   74.98   29.33
  -3   0  -6   -5.75   20.87
   0   3  -6    6.07    4.86
   0   3  -6    0.59    5.50
   3   0  -6   -0.35    4.12
   3   0  -6    0.56    9.67
   3   0   6   -0.68   21.68
   0  -3   6   -1.96    5.50
  -3   0   6    2.59    9.35
   3   0   6    0.40   14.62
   1   3  -6   63.67   23.35
  -3   1  -6   70.35   26.24
  -3   1  -6   68.69   25.45
   1   3  -6   60.53   21.67
  -3   1  -6   68.67   22.11
   3  -1   6   65.29   28.20
   3  -1   6   37.61   34.48
  -1  -3   6   62.61   22.63
   3  -1   6   57.25   25.78
  -3   2  -6  237.84   75.34
   2   3  -6  241.47   79.45
   2   3  -6  213.37  100.75
  -3   2  -6  285.95   86.60
  -3   2  -6  152.60   85.99
  -3   2  -6  250.29   85.82
   3  -2   6  257.76   82.80
   3  -2   6  126.88   92.17
   3  -2   6  226.86   83.62
   3  -2   6  252.51   77.25
   3   3  -6   -3.02   18.41
  -3   3  -6    7.40    6.74
  -3   3  -6   -2.59   19.25
  -3   3  -6    6.99    7.06
   3   3  -6    9.33    9.14
   3  -3   6    5.26    7.77
   3  -3   6   -2.09   38.58
   3  -3   6   19.82   25.34
   4   3  -6   74.55   38.25
   4   3  -6   74.70   41.79
  -4  -3   6   55.20   37.92
   4   2  -6  685.79  233.89
   4   2  -6  332.79  247.99
   4   2  -6  651.91  250.99
  -4  -2   6  780.67  235.85
  -4  -2   6  779.36  242.50
   2  -4   6  560.16  226.99
   4   1  -6  301.68   65.70
  -1   4  -6  152.15   72.32
   4   1  -6   84.92   92.58
  -1   4  -6  241.57   67.31
   4   1  -6  302.64   75.29
  -4  -1  -6   12.28   83.22
   4   1  -6  140.14   77.51
   4   1   6  212.96   86.51
  -4  -1   6  243.57   76.47
   4   1   6  222.82   77.04
   1  -4   6  232.85   70.12
  -4  -1   6  161.09   79.24
   4   0  -6   14.67    8.43
   4   0  -6   15.11   14.19
   0   4  -6   16.68   10.71
  -4   0  -6   15.81   24.37
   0   4  -6   25.95   10.32
   0  -4   6   29.33   11.30
   4   0   6    8.26   29.56
   4   0   6   18.95   18.85
  -4   0   6   25.11   14.78
  -4   0   6   27.44   19.96
  -4   1  -6  227.19   71.66
   1   4  -6  237.90   74.90
  -4   1  -6  230.61   77.13
   4  -1  -6  159.71   72.40
   4  -1   6  219.01   77.55
   4  -1   6  156.15   91.03
  -4   2  -6  706.03  227.99
  -4   2  -6  676.32  254.46
  -4   2  -6  877.92  259.51
  -4   2  -6  689.60  253.47
   4  -2   6  651.57  244.40
   4  -2   6  687.39  234.57
   4  -2   6  386.95  266.39
   4  -2   6  783.95  248.90
  -4   3  -6   94.31   44.65
  -4   3  -6  104.70   39.87
   3   4  -6  138.55   36.87
   4  -3   6   80.92   57.60
  -3  -4   6  120.06   38.31
   4  -3   6   91.63   49.84
   4   4  -6   82.35   56.48
   4   4  -6   97.64   40.89
   4   4  -6  148.97   38.62
   4  -4   6  112.58   57.01
  -4  -4   6  104.29   40.25
   5   4  -6  203.19   69.43
   5   4  -6  217.68   90.90
   5   4  -6  215.54   73.10
  -5  -4   6  195.35   72.63
   5   3  -6  379.16  255.56
   5   3  -6  735.87  230.16
   5   3  -6  736.40  214.66
   5   3  -6  775.21  258.68
  -5  -3   6  564.11  242.90
  -5  -3   6  799.31  226.22
   5   2  -6  220.45   77.21
   5   2  -6   61.96   75.33
  -5  -2   6  238.86   74.81
  -5  -2   6  228.80   71.31
   5   2   6  238.17   85.74
   5   1  -6  292.56  117.32
   5   1  -6  241.73  130.65
   5   1  -6  102.97  114.59
  -5  -1   6  468.58  122.26
  -5  -1   6  423.45  113.49
   5   0  -6   -6.50   15.11
   5   0  -6    6.21   31.52
   5   0  -6  -13.10   52.45
  -5   0   6    4.36   22.26
  -5   0   6   -1.04   15.01
   1   5  -6  413.94  123.98
  -1  -5   6  359.75  127.85
   2   5  -6   91.51   62.42
   2   5  -6  260.42   67.10
  -5   3  -6  675.49  247.89
   3   5  -6  643.53  218.95
   4   5  -6  199.84   70.07
   4   5  -6  181.11   74.01
  -5   4  -6  305.04   82.82
  -4  -5   6  191.91   73.21
   5  -4   6  205.87  106.10
   5   5  -6   18.76   14.14
   5   5  -6   -4.05   40.77
   5   5  -6   12.46   14.78
  -5  -5   6    8.56   15.98
   5  -5   6   50.55   47.35
   6   5  -6   65.06   25.03
   6   5  -6   66.37   26.73
  -6  -5   6   48.70   27.50
   6   4  -6  307.37   93.75
   6   4  -6  288.70   87.02
   6   4  -6  213.60  110.46
  -6  -4   6  346.31   93.31
  -6  -4   6   72.72  105.05
   6   3  -6  110.83   49.48
   6   3  -6  126.20   39.03
   6   3  -6   95.40   42.03
   6   3  -6  126.91   50.91
  -6  -3   6  124.89   49.82
  -6  -3   6   90.14   42.73
  -6  -3   6  155.19   41.76
   6   2  -6  675.52  232.01
   6   2  -6  614.70  198.04
   6   2  -6  709.26  222.69
   6   2  -6  448.72  230.54
  -6  -2  -6   29.31  235.76
   6   2   6  886.53  223.74
  -6  -2   6  638.45  218.67
  -6  -2   6  650.28  229.64
  -6  -1  -6   11.94   39.15
   6   1  -6   -4.01   28.83
   6   1   6   -0.65   24.86
   6   1   6   -3.10   40.73
  -6   0  -6   92.09   47.15
   6   0   6   62.81   46.29
   6   0   6  168.81   63.84
  -6   1  -6   -3.00   26.92
   6  -1   6   -3.56   34.98
   6  -1   6   -3.46   33.49
  -6   2  -6  622.91  236.10
  -6   2  -6  677.41  234.90
   6  -2   6  406.52  243.14
   6  -2   6  653.33  224.61
  -6   3  -6  106.51   40.00
  -6   3  -6  137.93   47.75
   6  -3   6   59.55   60.21
   6  -3   6  120.75   56.09
  -6   4  -6  350.39  120.10
   4   6  -6  349.49  112.10
  -4  -6   6  311.55  111.47
   6  -4   6  382.68  142.93
   6  -4   6  204.08  131.04
  -6   5  -6  102.10   47.57
   5   6  -6    9.21   19.52
   5   6  -6   11.70   16.88
  -5  -6   6   35.44   23.39
   6   6  -6   37.75   19.94
   6   6  -6   13.56   18.05
  -6  -6   6   22.62   24.14
   6  -6   6   45.41   58.40
   7   6  -6    3.92   18.65
   7   6  -6   28.94   19.48
   7   6  -6    0.80   60.23
  -7  -6   6   11.57   22.01
   7   5  -6   36.83   19.38
   7   5  -6   26.18   17.70
   7   5  -6   22.36   53.39
  -7  -5   6   25.54   21.62
   7   4  -6   34.07   18.82
   7   4  -6   38.55   20.87
  -7  -4   6   41.34   22.01
   7   3  -6  191.98   72.51
   7   3  -6  192.93   66.72
  -7  -3   6  202.66   71.36
  -7  -3   6  204.61   74.03
   7   2  -6  119.91   39.21
   7   2  -6  100.83   45.33
  -7  -2  -6   14.94   66.25
  -7  -2   6  120.03   46.91
   7   2   6  182.39   53.57
   7   2   6  110.90   66.89
  -7  -2   6  104.75   48.76
   7   1  -6   55.25   20.18
   7   1  -6   52.27   26.43
   7   1  -6  124.93   43.48
  -7  -1  -6   19.21   47.06
   7   1   6   68.64   34.84
   7   1   6   14.40   51.60
  -7  -1   6   60.02   28.33
  -7  -1   6   36.98   32.12
   7   0  -6   72.02   44.73
   7   0  -6   97.88   55.24
  -7   0  -6   -0.96   32.25
   7   0  -6    4.29    9.08
   7   0   6   12.44   29.96
  -7   0   6   19.44   26.90
   7   0   6  -24.72   47.30
   7  -1  -6  115.86   59.04
   7  -1  -6  119.48   78.07
  -7   1  -6   20.71   38.65
  -7   1   6   14.68   37.90
   7  -1   6  118.42   45.97
   7  -1   6   61.51   44.72
  -7   2  -6  167.99   54.57
  -7   2  -6  123.45   57.81
   7  -2   6  146.14   57.74
   7  -2   6   25.15   60.78
  -7   3  -6  217.37   96.80
   7  -3   6  326.13  104.30
  -7   4  -6   55.25   37.24
   7  -4   6   27.79   59.33
  -7   5  -6   16.73   40.17
   7  -5   6   28.24   90.78
   7  -5   6   40.33   62.65
   7  -6   6   14.67   65.87
   7   7  -6   34.24   25.56
   8   7  -6   10.27   22.89
   8   7  -6   59.76   78.41
   8   6  -6   -1.39   19.47
   8   6  -6   36.15   20.65
   8   6  -6   11.71   66.53
  -8  -6   6  -16.25   25.22
   8   5  -6   14.61   18.94
   8   5  -6   53.85   38.29
   8   5  -6   11.52   18.49
   8   5  -6   16.76   59.59
  -8  -5   6   14.93   22.80
  -8  -5   6   33.87   46.58
   8   4  -6    9.39   46.34
   8   4  -6   35.85   33.74
   8   4  -6    2.70   14.20
   8   4  -6    3.70   16.26
  -8  -4   6    9.74   18.17
  -8  -4   6   14.75   45.83
  -8  -3  -6   29.79   57.91
   8   3  -6  -48.12   34.47
   8   3  -6   28.17   19.38
   8   3  -6   19.10   13.12
  -8  -3   6   12.01   17.36
  -8  -3   6   19.98   17.20
  -8  -3   6   26.18   34.38
   8   2  -6  114.32   39.10
   8   2  -6  106.18   45.47
   8   2  -6   86.78   59.80
  -8  -2  -6   97.31   75.77
   8   2   6  125.63   54.17
  -8  -2   6  174.04   44.07
  -8  -2   6   15.62   50.36
  -8  -2   6  187.78   55.39
   8   2   6   74.16   73.43
  -8  -2   6   93.17   47.89
   8   1  -6  -43.87   23.01
   8   1  -6  -30.25   12.32
  -8  -1  -6  -28.79   46.59
  -8  -1   6  -15.33   25.13
   8   1   6 -103.86   36.36
  -8   0  -6  182.52   63.80
   8   0  -6  204.03   48.62
   8   0  -6   65.01   58.09
  -8   0   6  101.78   64.59
  -8   0   6  120.72   61.73
  -8   1  -6  -16.01   41.85
   8  -1  -6  -13.48   11.81
  -8   1   6  -28.58   36.51
   8  -2  -6  113.25   44.35
  -8   2  -6  151.32   66.16
  -8   2  -6  119.32   60.58
   8  -2  -6  149.24   89.47
   8  -2   6   87.61   67.39
  -8   2   6  118.85   60.02
   8  -2   6  170.48   66.41
  -8   3  -6   50.10   57.88
  -8   3  -6   52.42   38.39
   8  -3   6    1.07   54.74
   8  -3   6  -50.71   55.05
  -8   4  -6   -5.37   40.52
   8  -4   6   40.53   74.04
   8  -4   6  -13.77   61.97
  -8   5  -6    4.32   41.38
   8  -5   6    5.83   68.67
   8  -5   6    8.53   95.36
  -8   6  -6    5.58   46.72
   8  -6   6  -47.17   74.95
   9   7  -6  452.84  142.06
   9   7  -6  271.84  193.90
   9   6  -6  188.81   59.98
   9   6  -6  204.03  101.44
   9   6  -6  129.49   56.40
  -9  -6   6  115.52   63.78
   9   5  -6   62.91   25.87
   9   5  -6   88.26   46.63
   9   5  -6    3.80   67.21
   9   5  -6   29.78   23.66
  -9  -5   6  -14.22   59.17
  -9  -5   6   31.62   28.41
   9   4  -6    7.40   19.14
   9   4  -6   12.65   36.73
   9   4  -6   18.27   17.16
   9   4  -6   21.02   48.56
  -9  -4   6   -0.92   20.70
  -9  -4   6   24.40   51.08
  -9  -4   6    3.29   18.81
  -9  -3  -6    9.94   68.70
   9   3  -6   -3.32   40.09
   9   3  -6   14.85   35.74
   9   3  -6    2.07   20.30
   9   3  -6   20.12   14.66
  -9  -3   6   12.50   20.30
  -9  -3   6   32.43   20.18
  -9  -3   6   53.76   40.30
   9   3   6   59.63   43.86
  -9  -2  -6  120.93   71.51
   9   2  -6   82.11   26.70
   9   2  -6   38.35   49.04
   9   2  -6   76.20   32.57
   9   2  -6   64.46   52.37
  -9  -2   6   80.64   49.21
   9   2   6   -9.00   46.05
  -9  -2   6  103.98   31.86
  -9  -2   6   73.76   35.48
  -9  -2   6   35.27   41.51
   9   1  -6  -13.23   46.16
   9   1  -6   10.61   19.79
   9   1  -6  -41.70   48.72
  -9  -1  -6  -19.54   53.42
   9   1  -6   -4.87    9.75
  -9  -1   6   35.17   32.24
   9   1   6  -24.52   63.14
   9   1   6   35.06   36.80
  -9  -1   6    1.16   48.19
  -9  -1   6    5.47   22.35
   9   0  -6   22.16   61.60
   9   0  -6  -22.56   55.52
   9   0  -6   10.92    9.92
  -9   0  -6  -24.67   42.04
   9   0  -6    1.73   21.44
  -9   0   6  -29.07   34.51
  -9   0   6   -5.27   22.82
   9   0   6    4.38   54.81
   9   0   6    1.91   42.62
   9  -1  -6    8.39   11.06
   9  -1  -6  -29.01   68.75
   9  -1  -6  -34.88   79.70
  -9   1  -6   16.26   47.76
   9  -1   6   17.76   53.08
   9  -1   6   36.45   44.76
  -9   1   6   -7.00   34.99
   9  -2  -6   58.02   89.29
  -9   2  -6   95.70   56.03
   9  -2  -6  100.98   32.94
  -9   2  -6  141.15   64.27
   9  -2   6    8.84   61.78
   9  -2   6  122.27   62.32
  -9   2   6  103.54   51.56
  -9   3  -6   65.78   68.00
  -9   3  -6   13.01   43.47
   9  -3   6  -66.05   59.78
   9  -3   6  -13.19   60.35
  -9   4  -6   -5.91   43.29
   9  -4   6  -19.67   69.89
   9  -4   6  -27.44   79.13
  -9   5  -6   31.75   52.76
   9  -5   6   76.32  107.48
   9  -5   6  198.88   85.61
  -9   6  -6  203.08   82.39
   9  -6   6  164.69  110.96
  10   8  -6  430.28  156.98
  10   7  -6   78.61  102.37
  10   7  -6   76.34   37.01
  10   6  -6   94.55   54.49
  10   6  -6  119.56   51.81
  10   6  -6  309.86  101.53
 -10  -6   6  108.28   58.76
  10   5  -6  408.70  127.90
  10   5  -6  411.08  113.51
  10   5  -6  209.87  105.87
  10   5  -6  289.73  141.87
 -10  -5   6  109.25  133.20
 -10  -5   6  359.40  117.19
 -10  -4  -6   41.46   77.10
  10   4  -6    1.10   18.25
  10   4  -6   15.85   41.12
  10   4  -6  -90.79   51.86
  10   4  -6   -3.81   21.47
 -10  -4   6   40.80   58.95
 -10  -4   6  -15.42   22.47
  10   4   6   77.68   80.65
 -10  -4   6    1.01   24.53
  10   3  -6  311.17  115.39
  10   3  -6  298.16  125.82
  10   3  -6  518.52  132.24
  10   3  -6  148.91  133.03
 -10  -3  -6   10.85  148.17
 -10  -3   6  401.04  126.48
  10   3   6  413.40  128.39
 -10  -3   6  325.04  132.07
 -10  -3   6  552.98  133.24
  10   2  -6   13.01   12.98
 -10  -2  -6  -13.65   72.34
  10   2  -6   -1.51   21.58
  10   2  -6   15.56   55.72
  10   2  -6   31.51   46.88
 -10  -2   6   -4.65   48.36
 -10  -2   6   36.18   23.77
 -10  -2   6   25.33   39.09
  10   2   6    8.49   42.97
 -10  -2   6    2.37   20.25
  10   1  -6   36.27   55.50
 -10  -1  -6   -8.64   60.85
  10   1  -6   74.73   56.75
  10   1  -6   50.63   16.85
  10   1  -6   14.82   26.63
 -10  -1   6    2.65   56.84
  10   1   6    0.94   72.54
 -10  -1   6   39.67   40.02
  10   1   6   52.20   44.56
 -10  -1   6   49.28   30.85
  10   0  -6    5.53   80.29
  10   0  -6  174.89   78.78
  10   0  -6   81.16   53.43
 -10   0  -6  229.76   68.43
  10   0  -6  158.00   42.90
 -10   0   6   78.24   59.35
 -10   0   6  132.42   62.09
  10   0   6  138.55   65.84
  10   0   6   89.40   76.95
  10  -1  -6   32.36   18.23
  10  -1  -6   -1.58   78.84
  10  -1  -6  202.36   90.44
 -10   1  -6   27.58   57.63
 -10   1   6   13.10   41.91
  10  -1   6   65.89   58.12
  10  -1   6   38.25   63.13
  10  -2  -6    6.74   13.53
 -10   2  -6   -3.26   62.97
  10  -2  -6  -26.18   92.56
  10  -2  -6   -1.59   98.80
 -10   2  -6  -20.66   53.06
  10  -2   6   -3.75   62.44
  10  -2   6  -22.22   61.44
 -10   2   6    6.78   42.45
  10  -3  -6   14.97  187.32
 -10   3  -6  540.04  174.56
 -10   3  -6  452.01  152.87
  10  -3   6  386.18  165.98
  10  -3   6  566.65  163.45
 -10   4  -6    4.36   51.20
  10  -4   6  -23.92   88.96
  10  -4   6  105.51   78.99
 -10   5  -6  438.90  127.69
  10  -5   6  175.31  163.87
  10  -5   6  321.73  152.51
 -10   6  -6  166.60  124.31
  10  -6   6  721.94  156.20
  10  -7   6 -249.89  107.20
  11   8  -6   27.82   34.20
  11   7  -6   49.62  110.84
  11   7  -6  111.94   44.55
  11   6  -6    2.05   90.49
  11   6  -6   56.38   33.63
  11   6  -6   94.03   35.31
 -11  -6   6   58.63   74.36
 -11  -6   6   32.17   43.37
  11   5  -6   11.93   26.38
  11   5  -6   24.20   52.33
  11   5  -6   58.97   26.69
  11   5  -6  101.53   71.38
 -11  -5   6   14.61   27.47
 -11  -5   6   36.60   32.28
 -11  -5   6  -18.09   75.74
 -11  -4  -6  -70.63  116.11
  11   4  -6  173.71   72.91
  11   4  -6  392.13   89.89
  11   4  -6  365.65   94.41
  11   4  -6  175.41   77.43
 -11  -4   6  144.59   79.14
 -11  -4   6  313.58  103.07
 -11  -4   6   77.91   79.49
 -11  -3  -6  -35.76   96.24
  11   3  -6   78.94   59.16
  11   3  -6   -1.23   61.58
  11   3  -6   70.55   32.18
  11   3  -6  111.82   37.22
 -11  -3   6  130.51   60.77
  11   3   6   71.94   59.46
 -11  -3   6   63.34   39.09
 -11  -3   6  103.24   38.30
 -11  -3   6   95.62   53.70
 -11  -2  -6   12.68   84.37
  11   2  -6   -0.64   53.75
  11   2  -6   16.35   61.58
  11   2  -6   11.51   17.18
  11   2  -6    6.53   24.78
 -11  -2   6    8.03   43.90
  11   2   6   88.05   48.90
 -11  -2   6   21.59   27.63
 -11  -2   6   25.55   24.81
 -11  -2   6  104.93   56.85
  11   1  -6  353.85  249.16
  11   1  -6  607.02  224.90
  11   1  -6  789.23  249.10
  11   1  -6  467.47  246.37
 -11  -1  -6 1084.06  249.28
 -11  -1   6  520.35  235.85
 -11  -1   6  555.45  282.35
 -11  -1   6 1003.96  255.12
  11   1   6  818.21  235.36
 -11   0  -6   16.45   59.23
  11   0  -6   -6.44   13.05
  11   0  -6   22.91   72.54
  11   0  -6   -7.72   24.24
  11   0  -6  -47.10   72.20
 -11   0   6  -10.56   42.38
 -11   0   6  -16.33   79.66
  11   0   6  -68.26   58.11
 -11   0   6  -27.27   29.00
  11   0   6   75.45   63.61
  11  -1  -6  630.32  253.86
 -11   1  -6  708.26  250.05
 -11   1  -6 1004.22  242.05
  11  -1  -6  541.69  255.51
 -11   1   6  558.30  226.81
  11  -1   6  864.19  235.24
  11  -1   6  273.03  246.79
  11  -2  -6 -114.97  105.94
 -11   2  -6   16.90   75.73
  11  -2  -6   84.75  102.54
 -11   2  -6    9.36   60.34
 -11   2   6  -16.41   46.35
  11  -2   6   46.73   72.54
  11  -2   6  -53.27   67.86
 -11   3  -6  183.31   69.74
  11  -3  -6  169.92  123.61
 -11   3  -6  -70.05  106.30
 -11   4  -6   64.07  128.91
 -11   4  -6  205.78   85.44
  11  -4   6  135.79  120.29
 -11   5  -6   18.59   58.99
  11  -5   6   67.12   99.61
  11  -5   6   21.56  121.19
 -11   6  -6   84.40   68.27
  11  -6   6   85.11  114.00
  11  -6   6  135.76  136.96
  11  -7   6 -159.07  118.71
  12   8  -6   12.68   34.48
  12   7  -6  -16.30  108.10
  12   7  -6  -20.37   31.33
  12   6  -6   41.86   29.86
  12   6  -6   38.76   58.66
  12   6  -6  -14.40   94.37
 -12  -6   6    3.71   40.22
 -12  -6   6   55.02   81.13
  12   5  -6   47.61   28.15
  12   5  -6   14.27   29.92
  12   5  -6  -21.39   73.59
  12   5  -6   74.84   57.86
 -12  -5   6   86.04   88.18
 -12  -5   6   33.43   29.84
 -12  -5   6    1.54   37.62
 -12  -4  -6  -35.03  113.63
  12   4  -6  199.37   73.14
  12   4  -6   23.00   81.17
  12   4   6   80.11   79.20
 -12  -4   6  151.16   62.59
  12   4   6  441.65  126.04
 -12  -4   6  147.29   95.14
 -12  -4   6  167.84   61.47
  12   3  -6   24.69   62.11
 -12  -3  -6   49.02  110.74
  12   3  -6  182.09   68.06
 -12  -3   6  -14.54   59.26
 -12  -3   6   26.78   69.45
  12   3   6  -67.94   63.31
  12   3   6  120.26  111.01
 -12  -2  -6  556.29  192.99
  12   2  -6  516.01  176.71
  12   2  -6  214.33  171.34
  12   2   6  498.77  162.90
 -12  -2   6  271.52  164.67
 -12  -2   6  611.31  175.16
 -12  -1  -6   47.06   81.64
  12   1  -6  -56.91   77.01
  12   1  -6    1.44   75.29
 -12  -1   6   16.74   48.11
  12   1   6    1.24   54.96
 -12  -1   6   35.68   73.79
  12   0  -6  369.88  242.72
  12   0  -6  571.68  246.55
 -12   0   6  957.82  260.34
  12   0   6  780.50  219.96
 -12   0   6  533.37  214.95
  12   0   6  140.63  250.43
  12  -1  -6  -76.48   96.30
 -12   1  -6  -37.06   78.91
 -12   1  -6    2.63   71.39
  12  -1  -6 -124.75  102.92
 -12   1   6   19.42   46.79
  12  -1   6  -99.15   86.84
  12  -2  -6  192.17  189.07
  12  -2  -6  247.11  198.17
 -12   2  -6  561.91  169.01
 -12   2  -6  638.14  181.59
 -12   2   6  342.76  148.82
  12  -2   6  142.34  168.53
 -12   3  -6   31.64   77.54
  12  -3  -6 -108.24  147.32
 -12   3  -6   14.81  109.93
  12  -3   6  496.29  106.89
 -12   3   6   55.55   67.00
 -12   4  -6   99.68   86.33
 -12   4  -6  257.02  137.04
  12  -4   6  160.37  126.93
  12  -4   6  217.28  120.81
 -12   5  -6  339.17   95.17
  12  -5   6  100.38  130.21
  13   6  -6  -54.06   65.73
  13   6  -6   42.42   96.67
 -13  -6   6  -90.20   97.09
  13   5  -6  143.42   85.21
  13   5  -6  102.82   70.81
 -13  -5   6   67.61  103.57
  13   4  -6  -21.76   73.01
  13   4  -6   51.69   59.46
 -13  -4   6  135.49   64.77
  13   4   6 -136.84  125.30
 -13  -4   6  141.89   90.16
  13   3  -6   48.41   86.88
  13   3  -6  216.13   78.73
 -13  -3   6  143.77   86.18
 -13  -3   6   76.15   75.15
  13   2  -6   33.38   84.92
  13   2  -6   26.99   68.62
 -13  -2   6   51.40   55.65
 -13  -2   6   45.83   72.59
  13   1  -6  503.20  181.07
 -13  -1   6  399.22  163.96
 -13  -1   6  475.02  186.30
  13   0  -6   29.95   92.16
  13   0  -6  134.87   94.06
 -13   0   6   21.55   52.89
 -13   0   6  -35.96   98.84
  13   0   6   -1.53   72.17
  13  -1  -6  259.91  182.07
  13  -1  -6  454.94  186.56
 -13   1   6  516.84  200.78
 -13   1   6  346.90  146.45
  13  -2  -6 -218.42  118.99
  13  -2  -6 -164.56  127.79
 -13   2   6   29.05   55.18
  13  -3  -6  -79.15  152.86
 -13   5  -6  -79.63   74.64
  13  -5   6   -1.93  140.44
 -13   6  -6    3.49   72.28
  13  -6   6   13.11  138.27
 -13   7  -6   74.63   73.64
  13  -7   6 -265.69  141.53
 -14  -6   6  -45.04  107.35
  14   5  -6   60.96   72.76
 -14  -5   6  143.81  116.47
 -14  -4  -6  -80.66  135.14
  14   4  -6  -24.34   67.01
  14   4   6  145.90  135.90
 -14  -4   6 -211.05  112.68
  14   4   6   97.36   76.09
 -14  -3  -6   -4.05  136.31
 -14  -3   6  -95.76   94.60
  14   3   6  -44.74  119.49
  14   3   6   45.34   72.99
  14   2  -6  103.56  120.17
 -14  -2  -6  281.58  152.76
  14   2   6   12.59  141.54
 -14  -2   6  110.88  120.44
  14   2   6  172.42  104.61
 -14  -2   6  547.35  102.83
  14   1  -6  -48.94   95.83
 -14  -1  -6  -28.03  112.52
 -14  -1   6  104.85   90.42
  14   1   6 -108.44   72.54
  14   0  -6  103.11  124.31
 -14   0  -6  359.73  121.43
 -14   0  -6  213.80  120.69
 -14   0   6  281.20  129.61
  14   0   6   -1.72  102.94
 -14   1  -6  130.54  104.23
 -14   1  -6    3.32   99.90
  14  -1   6  -24.46   95.59
  14  -1   6 -185.13  103.84
 -14   2  -6   26.49  118.18
 -14   2  -6  140.90  142.18
  14  -2   6   13.92  135.77
 -14   3  -6   -3.30   88.76
  14  -3  -6  398.48  157.08
 -14   3  -6   65.88  132.51
 -14   3   6 -118.51   67.70
 -14   4  -6 -118.88   78.03
 -14   4  -6 -142.20  152.66
  14  -4   6 -234.50  137.04
  14  -4   6   41.98  133.75
 -14   5  -6  168.87   84.51
 -14   5  -6   87.46  172.27
  14  -5   6  -50.30  160.76
  14  -5   6    2.68  141.57
 -14   6  -6  -26.58   78.78
  14  -6   6 -152.68  161.05
  14  -6   6   63.34  145.56
 -14   7  -6  117.54   87.77
  14  -7   6   74.03  156.83
 -15  -6   6  233.98  135.22
  15   5  -6  -31.75  111.54
 -15  -5  -6  210.81  150.06
 -15  -5   6  332.64  124.89
  15   5   6  128.82  173.56
 -15  -5   6  -41.96  102.79
  15   4  -6  -25.04   94.02
 -15  -4  -6  -61.19  142.35
  15   4   6    2.08   81.37
 -15  -4   6  101.91   77.97
  15   4   6   14.46  144.90
  15   3  -6  141.21   90.56
 -15  -3  -6  199.79  152.71
  15   3   6   38.53   81.87
 -15  -3   6   47.23   79.23
  15   3   6   64.90  127.53
 -15  -2  -6 -167.71  146.23
  15   2  -6 -192.96  100.52
  15   2   6  -23.08  106.27
  15   2   6  -57.53   77.87
 -15  -2   6   -2.56   70.46
  15   1  -6  180.27  121.11
 -15  -1  -6  -17.79  138.47
 -15  -1   6  323.62  105.20
 -15  -1   6   38.28   77.36
  15   1   6   42.07   89.44
 -15   0  -6  -12.77  122.57
  15   0  -6  -67.54  121.16
  15   0  -6  140.46  121.73
  15   0   6  -16.90   90.24
 -15   0   6  -34.12   64.18
 -15   0   6   52.39  117.10
  15  -1  -6 -170.24  132.92
 -15   1  -6  -15.33  120.49
 -15   1  -6  -63.14  112.83
  15  -1   6 -164.56  112.35
 -15   1   6   81.23  149.14
 -15   1   6    8.45   69.08
  15  -1   6    2.18  112.82
  15  -2  -6 -161.64  134.85
 -15   2  -6   44.08  100.44
  15  -2  -6  -27.05  158.06
 -15   2  -6 -109.91  135.12
  15  -2   6 -148.60  114.38
 -15   2   6    6.12   64.09
 -15   2   6  107.46  169.29
  15  -2   6 -101.55  142.59
  15  -3  -6   49.28  176.42
 -15   3  -6    3.63   93.79
 -15   3  -6  180.80  147.08
 -15   3   6    6.81   67.15
  15  -3   6   13.61  138.46
  15  -3   6  -41.16  128.47
 -15   4  -6   -7.91  169.93
 -15   4  -6  206.75  101.27
  15  -4   6  244.35  144.63
  15  -4   6   50.30  156.60
 -15   5  -6  154.02  201.25
 -15   5  -6   31.18  100.75
  15  -5   6   38.82  170.01
  15  -5   6   38.90  158.04
 -15   6  -6   33.26   91.15
 -15   6  -6  167.69  210.04
  15  -6   6   70.88  174.85
  15  -6   6   34.90  158.32
 -15   7  -6   86.12   95.06
  15  -7   6  104.60  167.73
 -16  -5  -6 -194.81  165.45
  16   5   6 -224.90  178.68
 -16  -5   6  303.52  103.19
  16   4  -6 -160.92  108.52
 -16  -4  -6 -152.02  163.56
 -16  -4   6  136.01   91.02
  16   4   6   96.92  152.99
 -16  -4   6 -299.91  128.98
  16   4   6 -226.26   94.12
 -16  -3  -6  -71.47  169.13
  16   3  -6  -57.18   84.75
  16   3  -6   21.22   95.70
  16   3   6  188.46  130.27
  16   3   6  -76.83   87.05
 -16  -3   6   17.63   80.49
 -16  -3   6   28.97  116.49
 -16  -2  -6  -97.68  163.38
  16   2  -6    9.04  107.26
  16   2  -6    6.03   98.06
 -16  -2   6   -2.88   76.55
  16   2   6 -141.58  110.56
  16   2   6  -46.25   83.86
 -16  -2   6  -12.78  101.43
  16   1  -6  -95.10  114.71
  16   1  -6 -150.51  132.86
 -16  -1  -6  228.23  151.59
 -16  -1   6   37.17   72.71
  16   1   6    9.87   88.24
 -16  -1   6 -141.51  118.87
 -16   0  -6  -87.78  138.09
  16   0  -6  135.46  132.84
  16   0  -6  -71.33  134.25
  16   0   6   33.92   98.05
 -16   0   6 -177.81  133.31
 -16   0   6   -5.86   72.54
 -16   1  -6 -136.13  138.87
 -16   1  -6  107.68  116.49
  16  -1  -6  210.31  143.43
  16  -1  -6 -119.75  146.55
 -16   1   6   31.04   75.05
  16  -1   6  296.25  124.24
 -16   1   6  245.77  156.70
  16  -2  -6   89.11  166.09
 -16   2  -6  -65.25  107.81
  16  -2  -6  -67.86  147.00
 -16   2  -6  -62.04  146.21
  16  -2   6  202.30  149.50
 -16   2   6  -69.87   72.67
 -16   2   6 -237.95  186.51
  16  -2   6   54.55  130.82
 -16   3  -6    4.06  104.53
 -16   3  -6  136.98  166.09
  16  -3  -6   15.25  199.14
  16  -3   6  141.23  149.43
 -16   3   6   36.50   78.64
  16  -3   6  338.88  153.29
 -16   4  -6    4.41  185.95
 -16   4  -6 -123.87  101.03
  16  -4   6  -22.16  169.79
  16  -4   6 -110.75  158.95
 -16   5  -6 -108.34   96.79
 -16   5  -6  -19.40  208.78
  16  -5   6  428.98  186.25
  16  -5   6  161.75  168.56
 -16   6  -6   50.35  104.02
 -16   6  -6   15.80  229.11
  16  -6   6  198.51  180.28
  16  -6   6  183.83  193.79
 -16   7  -6  103.61  106.25
 -16   7  -6   39.17  245.09
  16  -7   6  133.31  187.94
 -17  -5  -6 -413.92  201.33
 -17  -5   6  227.17  109.71
  17   4  -6   59.99  112.44
  17   4  -6   25.42   80.82
 -17  -4  -6  -46.90  180.43
  17   4   6 -107.30  159.56
  17   4   6   20.16   98.85
 -17  -4   6   81.35   96.31
 -17  -4   6 -152.38  144.78
  17   3  -6  -24.54   90.19
 -17  -3  -6  -63.34  192.08
 -17  -3   6   26.28   92.90
  17   3   6   87.46  134.83
 -17  -3   6  179.04  128.38
  17   3   6   99.70   99.67
 -17  -2  -6 -180.12  187.83
  17   2   6 -168.46  141.76
  17   2   6 -283.84  108.04
 -17  -2   6  -70.69   94.91
 -17  -2   6 -342.32  135.23
 -17  -1  -6  -18.87  135.36
 -17  -1  -6 -200.59  171.54
 -17  -1   6   82.19   81.42
 -17  -1   6 -124.06  133.37
 -17   0  -6 -148.92  175.48
 -17   0   6 -144.09  152.12
 -17   0   6  -74.35   85.30
  17  -1  -6  286.30  171.75
 -17   1  -6 -252.63  169.40
 -17   1   6  -13.58   79.28
 -17   1   6   31.30  172.63
 -17   2  -6 -114.09  128.65
 -17   2  -6  190.22  178.40
  17  -2  -6 -226.21  206.00
  17  -2  -6  -89.57  165.09
  17  -2   6 -300.31  156.73
 -17   2   6 -101.94   91.36
 -17   2   6 -368.05  214.05
  17  -2   6 -283.56  162.75
 -17   3  -6  -58.27  114.11
 -17   3  -6  117.35  182.97
  17  -3  -6  334.66  231.16
  17  -3   6  -69.67  156.55
 -17   3   6  167.12  230.04
 -17   3   6  -55.21   89.06
  17  -3   6  -53.41  172.10
 -17   4  -6  138.09  208.32
 -17   4  -6   77.76  109.38
  17  -4   6 -124.56  179.99
  17  -4   6  103.18  178.37
 -17   5  -6  -62.08  103.58
 -17   5  -6 -139.11  229.29
  17  -5   6  125.69  200.35
  17  -5   6 -218.00  182.13
 -17   6  -6 -132.91  258.78
 -17   6  -6  186.01  122.70
  17  -6   6  212.15  217.38
  17  -6   6  277.19  201.52
 -17   7  -6 -122.02  263.74
 -17   7  -6  113.61  106.44
  17  -7   6   36.73  199.76
 -18  -5  -6 -447.80  211.82
  18   5   6  130.96  180.31
 -18  -4  -6 -269.91  212.88
 -18  -4   6  131.36  163.98
  18   4   6   58.32  158.06
 -18  -4   6   -7.57  106.95
  18   4   6  139.66  111.14
  18   3  -6  -20.96   99.99
  18   3  -6 -105.01  138.74
 -18  -3  -6   19.71  215.98
  18   3   6   58.89  150.00
 -18  -3   6  240.35  101.50
  18   3   6   23.87  110.97
 -18  -3   6  398.97  153.78
 -18  -2  -6 -114.44  219.85
 -18  -2  -6  -53.47  153.96
  18   2  -6  118.43  145.82
  18   2   6   41.90  111.28
 -18  -2   6   21.66  141.32
 -18  -2   6   56.67   89.96
  18   2   6  103.44  147.88
  18   1  -6  -88.46  146.26
 -18  -1  -6  215.60  146.28
  18   1  -6   32.25  148.68
 -18  -1  -6   68.58  206.93
  18   1   6    5.06  113.03
 -18  -1   6  -24.55   87.34
 -18  -1   6   82.77  139.25
  18   1   6    1.80  145.70
  18   0  -6  -61.60  167.05
  18   0  -6 -224.39  180.25
 -18   0  -6   51.79  190.32
 -18   0   6 -113.61  162.12
  18   0   6  -74.30  122.24
 -18   0   6    7.27   89.75
 -18   1  -6  -86.39  185.38
  18  -1  -6 -220.15  170.28
  18  -1  -6   43.21  183.55
 -18   1   6  289.29  189.43
 -18   1   6   -3.77   83.99
  18  -1   6   65.56  143.11
 -18   2  -6  -83.77  198.70
  18  -2  -6 -145.26  174.50
 -18   2  -6 -152.52  134.77
  18  -2  -6  -60.84  214.19
 -18   2   6   47.68   84.41
 -18   2   6    9.89  215.24
  18  -2   6  107.32  159.50
 -18   3  -6 -206.64  127.98
  18  -3  -6 -308.60  241.93
 -18   3  -6  297.37  213.03
  18  -3   6 -202.98  186.44
 -18   3   6  175.78  251.40
  18  -3   6  213.74  204.32
 -18   3   6  -21.46   91.06
 -18   4  -6  252.12  124.94
 -18   4  -6  189.04  230.98
  18  -4   6  129.00  213.87
  18  -4   6 -392.24  201.98
 -18   5  -6  -74.76  123.31
 -18   5  -6   82.98  249.74
 -18   6  -6  161.90  174.60
 -18   7  -6   65.62  119.53
 -18   7  -6  -46.85  284.84
  18  -7   6 -190.40  223.93
 -19  -5  -6  201.97  229.51
  19   5   6   93.95  189.39
 -19  -4  -6   22.26  237.90
  19   4   6  298.15  163.62
  19   4   6 -192.89  125.73
 -19  -3  -6  104.46  240.78
 -19  -3  -6  334.51  183.09
  19   3  -6  -80.91  112.87
  19   3   6   12.16  126.64
 -19  -3   6   17.62  169.25
 -19  -3   6  -44.88  106.10
 -19  -2  -6 -618.48  274.71
 -19  -2  -6 -197.23  181.97
 -19  -2   6 -316.04  175.11
 -19  -2   6  -66.78  115.83
  19   1   6  759.56  302.44
  19   1   6  832.94  330.88
  19   0  -6 -523.60  227.43
 -19   0  -6  279.27  183.36
 -19   0   6 -226.10  109.28
 -19   0   6 -224.76  184.28
  19  -1  -6  881.99  229.15
 -19   1   6    4.20  138.20
 -19   1   6  -14.23  228.82
 -19   2  -6 -189.75  237.35
  19  -2  -6 -558.08  252.70
 -19   2   6    4.39  102.05
 -19   2   6  -75.74  245.85
  19  -3  -6  -35.23  260.95
 -19   3  -6 -151.29  146.68
 -19   3  -6  -11.80  244.18
 -19   3   6  196.71  265.80
  19  -3   6 -402.69  215.19
  19  -3   6  -43.33  214.04
 -19   3   6 -173.88   93.57
 -19   4  -6 -195.04  132.28
 -19   4  -6  210.49  257.67
  19  -4   6   76.60  241.37
  19  -4   6 -180.86  242.92
 -19   5  -6  -71.88  130.38
 -19   5  -6  402.47  277.60
  19  -5   6 -233.89  247.33
  19  -5   6 -220.82  245.73
 -19   6  -6  124.72  141.70
 -19   6  -6  223.87  303.60
  19  -6   6  191.91  248.45
  19  -6   6  -57.51  257.70
 -19   7  -6    6.61  104.62
 -19   7  -6   87.89  319.95
  19  -7   6 -219.43  262.16
  20   4   6   34.81  139.82
 -20  -3  -6 -458.83  282.59
  20   3   6    2.31  144.76
  20   3   6   71.85  144.45
 -20  -3   6 -139.50  122.91
  20   2  -6  -39.44  135.49
 -20  -2  -6  -16.68  286.60
  20   2  -6   -4.70  194.43
 -20  -2   6  -54.06  196.83
  20   2   6  272.26  151.38
 -20  -2   6  115.50  116.25
 -20  -1  -6  243.14  304.29
  20   1  -6 -108.64  165.65
  20   1  -6  105.62  203.51
  20   1   6 -123.96  152.51
  20   1   6 -102.73  182.86
 -20  -1   6   79.62  107.90
 -20  -1   6   89.00  189.86
  20   0  -6  168.66  210.24
 -20   0  -6  315.53  276.74
  20   0  -6  136.47  205.87
 -20   0   6    4.82  203.35
  20   0   6  225.14  195.31
  20   0   6 -199.11  168.82
 -20   0   6 -163.78  111.50
  20  -1  -6  128.26  208.58
  20  -1  -6   63.08  249.56
 -20   1  -6  237.69  284.10
 -20   1   6  -47.52  224.40
 -20   1   6  -13.96  105.67
  20  -1   6  249.94  183.16
  20  -2  -6  105.63  268.55
  20  -2  -6  203.01  207.01
 -20   2  -6 -409.41  277.79
  20  -2   6  142.27  202.93
 -20   2   6   48.85  103.61
 -20   2   6    5.95  260.12
 -20   3  -6  -41.04  283.88
  20  -3  -6 -212.24  287.05
  20  -3   6 -241.76  245.25
 -20   3   6  -20.02  284.14
 -20   3   6 -119.10  106.86
 -21  -2   6 -114.25  132.90
 -21  -2   6 -273.03  242.65
  21   1  -6   -5.99  224.35
  21   1  -6   33.12  177.93
 -21  -1   6 -251.20  222.89
  21   0  -6 -224.59  212.23
 -21   0   6    5.08   88.74
 -21   0   6 -358.65  229.96
 -21   1   6  324.40  261.21
   0   0  -7    0.71    3.70
   0   0  -7    1.17    8.61
   0   0   7   -0.40    7.49
   0   1  -7  118.21   25.37
   0   1  -7   88.10   28.60
   1   0  -7   93.09   25.55
  -1   0  -7   34.33   25.67
   1   0  -7   66.22   29.38
  -1   0   7   53.94   29.88
   0  -1   7   66.20   28.89
  -1   1  -7    0.56   13.31
   1   1  -7    0.45    8.06
  -1   1  -7    0.24    3.06
  -1   1  -7   -2.46    8.22
   1   1  -7    0.30    3.68
   1  -1   7   -2.89   13.58
  -1  -1   7   -1.38    7.91
   1  -1   7    1.80    7.66
  -1   2  -7   34.29   16.39
  -1   2  -7   55.85   16.96
  -1   2  -7   52.18   13.89
  -1   2  -7   40.89   17.83
   2   1  -7   31.01   17.84
   1  -2   7   16.53   20.65
   1  -2   7   37.63   18.34
   1  -2   7   32.86   16.17
  -2  -1   7   40.51   18.17
  -2   0  -7   -0.87    3.57
   0   2  -7   -1.03    7.21
   0   2  -7    0.54    3.58
   2   0  -7   -1.88   10.48
   0  -2   7   -2.40    6.43
   2   0   7   -1.28   17.17
  -2   0   7   -1.36    9.65
  -2   1  -7   45.94   24.06
   1   2  -7   45.17   16.42
  -2   1  -7   44.85   20.02
   1   2  -7   62.20   19.01
  -2   1  -7   49.90   16.85
   2  -1   7   39.37   26.64
   2  -1   7   47.79   21.10
  -1  -2   7   54.66   18.51
   2  -1   7   43.18   20.11
  -2   2  -7    1.51    3.40
   2   2  -7    1.63    8.33
  -2   2  -7    1.20    7.64
  -2   2  -7    3.10   10.95
   2  -2   7   -3.69   16.01
   2  -2   7   -5.18   14.67
   2  -2   7   -1.01    6.60
  -2  -2   7    3.25    7.44
   3   2  -7 1430.68  461.72
   3   2  -7  750.15  512.38
  -2   3  -7 1366.40  425.44
  -2   3  -7 1174.36  393.72
   3   2  -7 1037.55  428.73
  -2   3  -7 1362.26  447.67
   2  -3   7  771.38  440.89
   2  -3   7  912.64  504.39
  -3  -2   7 1176.36  442.39
   2  -3   7 1211.72  404.33
  -3  -2   7 1548.12  441.71
  -3  -2   7 1320.63  430.52
   3   1  -7  207.22   57.18
   3   1  -7  167.60   58.95
  -1   3  -7  156.98   54.40
  -1   3  -7  122.74   51.19
   3   1  -7  175.36   51.02
   1  -3   7  163.43   52.42
  -3  -1   7  143.36   59.04
   1  -3   7  127.89   58.15
   0   3  -7  675.43  197.02
   3   0  -7  674.10  186.33
  -3   0  -7  275.36  215.47
   0   3  -7  494.78  183.68
   3   0   7  608.08  230.67
   3   0   7  508.64  205.07
  -3   0   7  627.54  227.60
   1   3  -7  103.63   44.98
  -3   1  -7  135.34   51.49
  -3   1  -7  156.56   53.16
  -3   1  -7  143.74   47.52
   1   3  -7  157.42   48.48
   3  -1   7  110.86   63.27
  -1  -3   7   97.99   46.94
   3  -1   7  143.49   50.72
   3  -1   7  147.32   54.19
  -3   2  -7 1428.78  447.40
  -3   2  -7 1332.81  388.36
   2   3  -7 1187.90  409.96
  -3   2  -7 1084.12  421.71
   3  -2   7 1044.39  414.51
   3  -2   7 1312.17  399.95
   3  -2   7 1371.05  434.15
   3  -2   7  629.55  464.38
  -3   3  -7    2.22    7.30
  -3   3  -7   -5.14    6.94
  -3   3  -7   -3.97   19.31
   3   3  -7    1.15   16.61
   3  -3   7   -2.50    7.41
   3  -3   7    7.76   24.37
   3  -3   7    4.24   34.41
  -3  -3   7    0.77   14.13
   4   3  -7  586.36  170.63
   4   3  -7  363.06  211.11
   4   3  -7  298.89  201.36
  -3   4  -7  487.39  192.57
   4   3  -7  686.67  184.01
  -3   4  -7  834.75  209.59
   3  -4   7  565.16  185.02
  -4  -3   7  424.03  194.16
  -4  -3   7  495.26  186.92
  -4  -3   7  593.92  180.45
   3  -4   7  469.86  206.74
   4   2  -7    6.72   17.94
  -2   4  -7    5.49    8.66
  -2   4  -7    7.24    8.57
   4   2  -7    6.63   19.59
   2  -4   7    1.45    9.72
  -4  -2   7   -8.69   15.25
  -4  -2   7    0.66   16.06
  -1   4  -7  231.19   85.54
   4   1  -7  251.10  123.12
  -4  -1  -7   20.36   97.88
  -1   4  -7  319.33   78.59
   4   1  -7  188.97   92.22
   1  -4   7  258.52   81.67
  -4  -1   7  325.40   96.67
  -4   0  -7   -4.81   29.74
   0   4  -7   -1.92    9.20
   4   0  -7   -1.40   14.90
   4   0   7    7.64   31.80
   4   0   7    7.58   20.54
  -4   0   7    4.82   14.13
  -4   1  -7  218.40   92.84
  -4   1  -7  311.12   89.61
   4  -1   7  273.11   92.47
   4  -1   7  222.98  111.84
   2   4  -7   14.62    8.82
  -4   2  -7    5.83    4.45
  -4   2  -7    4.47    9.31
  -4   2  -7   -1.05   20.60
   4  -2   7    1.99    7.97
   4  -2   7    1.76    5.27
  -2  -4   7    1.00   10.21
   4  -2   7    6.07   23.24
   4  -2   7   12.12   25.39
   3   4  -7  595.55  189.33
  -4   3  -7  640.12  210.06
   3   4  -7  520.32  244.71
   3   4  -7  613.46  198.90
  -4   3  -7  726.52  209.35
  -4   3  -7  566.61  195.21
   4  -3   7  555.91  227.79
   4  -3   7  630.29  201.84
   4  -3   7  444.29  212.18
  -4   4  -7   -1.49    8.49
   4   4  -7   -4.54    9.26
   4   4  -7   -5.74   26.09
   4   4  -7   -7.83   11.96
   4  -4   7   12.11   34.28
  -4  -4   7   -5.21   11.36
   5   4  -7  397.09  119.04
   5   4  -7  290.69  138.07
  -5  -4   7  355.85  118.41
   5   3  -7  386.83  123.84
   5   3  -7  317.43  109.04
   5   3  -7  314.43  100.01
   5   3  -7  160.11  118.17
  -5  -3   7  309.76  110.53
  -5  -3   7  265.33  115.07
  -5  -3   7  374.08  106.79
   5   2  -7  898.13  307.08
   5   2  -7  970.33  264.66
   5   2  -7  955.29  293.89
   5   2  -7  380.17  312.99
  -5  -2   7  898.32  303.41
  -5  -2   7  841.87  293.20
  -5  -2   7  731.39  300.23
   5   1  -7    0.44    7.19
   5   1  -7    8.70   25.71
   5   1  -7   21.55   41.18
   5   1   7   -0.55   34.77
  -5  -1   7    4.97   19.55
   5   0  -7 1152.26  304.67
   0   5  -7  318.16  264.76
  -5   0   7 1326.77  309.83
   0  -5   7  644.83  273.49
   1   5  -7    8.90   11.26
   1   5  -7   15.93   10.44
  -5   1  -7    0.98    2.68
  -1  -5   7    0.66   12.13
  -5   2  -7 1026.91  342.33
   2   5  -7 1028.95  299.28
  -5   2  -7  852.76  308.30
   2   5  -7  847.17  315.88
   5  -2   7  879.71  315.85
   5  -2   7  910.75  343.10
  -2  -5   7  946.47  308.92
   3   5  -7  295.72  116.06
  -5   3  -7  379.27  124.81
   4   5  -7  348.68  117.68
  -5   4  -7  314.74  126.46
   4   5  -7  371.23  150.31
   4   5  -7  366.16  111.93
  -5   4  -7  341.26  126.88
   5  -4   7  289.61  148.57
   5   5  -7    1.83   13.00
   5   5  -7   -5.41   14.63
  -5   5  -7    4.17   35.82
   5   5  -7  -17.42   40.38
   5  -5   7  -39.29   47.82
  -5  -5   7   10.02   15.53
   6   5  -7   27.39   19.35
   6   5  -7   34.30   20.33
  -6  -5   7   43.35   21.06
   6   4  -7  283.92  102.48
   6   4  -7  136.01  100.63
   6   4  -7  273.62   85.62
   6   4  -7  333.80   79.46
  -6  -4   7  237.97   85.13
  -6  -4   7   74.34   96.17
   6   3  -7  314.16  134.61
   6   3  -7  494.96  154.66
   6   3  -7  468.37  143.80
   6   3  -7  390.41  149.90
  -6  -3   7  382.95  145.12
  -6  -3   7  475.43  149.00
   6   2  -7  322.64  139.06
  -6  -2  -7   23.95  145.11
   6   2  -7  409.55  114.87
   6   2  -7  165.79  140.53
  -6  -2   7  354.26  138.30
  -6  -2   7  389.98  137.90
  -6  -2   7  437.79  131.04
   6   2   7  520.43  154.36
   6   1  -7  151.42   64.77
   6   1  -7  149.56   59.54
   6   1  -7  162.73   51.34
  -6  -1  -7   82.42   70.80
   6   1   7  221.68   75.55
   6   1   7  110.38   61.61
  -6  -1   7  213.96   59.59
  -6  -1   7  155.27   63.87
   6   0  -7   -1.45    8.15
  -6   0  -7  -16.67   32.49
   6   0  -7   39.61   17.58
   6   0   7   23.31   25.38
   6   0   7    8.96   43.31
   6  -1  -7  135.45   48.20
  -6   1  -7  121.16   56.58
  -1  -6   7  143.82   51.44
   6  -1   7  156.20   60.21
   6  -1   7  111.59   69.23
   2   6  -7  470.77  153.86
  -6   2  -7  660.48  169.07
  -6   2  -7  446.18  163.62
   2   6  -7  411.56  145.62
   6  -2   7  521.80  159.10
   6  -2   7  247.74  172.71
  -2  -6   7  440.99  151.64
   3   6  -7  433.76  146.01
  -6   3  -7  415.01  154.62
  -6   3  -7  421.36  158.14
   6  -3   7  469.43  163.40
   6  -3   7  527.45  156.84
   6  -3   7  318.48  151.65
   4   6  -7  334.50   94.50
  -6   4  -7  292.17  107.86
  -6   4  -7  318.84  106.86
   4   6  -7  340.92   99.82
  -4  -6   7  277.29   99.08
   6  -4   7  241.12  117.35
   6  -4   7  178.93  127.43
  -6   5  -7   21.69   40.92
   5   6  -7   44.39   20.77
   5   6  -7   41.87   20.48
   6  -5   7   -7.62   56.88
  -5  -6   7   38.34   23.86
   6   6  -7    1.46   18.15
   6   6  -7   -1.20   16.36
  -6  -6   7  -11.20   19.85
   6  -6   7    2.51   57.52
   7   6  -7  184.03   63.49
   7   6  -7   69.29   31.27
   7   6  -7   40.71   30.39
  -7  -6   7   48.19   33.21
   7   5  -7    3.99   48.59
   7   5  -7   16.79   17.78
   7   5  -7   31.65   19.05
  -7  -5   7   14.50   20.51
   7   4  -7  319.72  107.27
   7   4  -7  343.07  101.66
  -7  -4   7  259.31  107.25
   7   3  -7  328.04  142.10
   7   3  -7  427.23  130.97
  -7  -3   7  353.42  144.71
  -7  -3   7  470.22  139.98
   7   2  -7  488.61  144.53
   7   2  -7  488.61  162.64
  -7  -2  -7   69.00  175.04
   7   2   7  543.11  162.12
  -7  -2   7  457.03  171.60
   7   2   7  539.47  187.49
  -7  -2   7  342.94  160.30
   7   1  -7    5.76   18.47
   7   1  -7    3.09    8.77
  -7  -1  -7   -9.32   48.40
   7   1   7  -40.09   49.31
  -7  -1   7  -11.64   19.32
  -7  -1   7  -35.38   26.14
   7   1   7    0.75   30.54
   7   0  -7   16.00   24.08
  -7   0  -7   27.11   37.06
   7   0  -7   34.11   15.10
   7   0  -7   56.03   48.04
   7   0  -7   46.88   65.52
  -7   0   7   16.03   24.96
  -7   0   7   79.70   32.05
   7   0   7   75.78   32.90
   7   0   7   33.24   51.89
   7  -1  -7    4.32    9.43
  -7   1  -7  -12.44   32.01
   7  -1  -7 -177.35   60.51
  -7   1   7   12.79   32.18
   7  -1   7  -81.39   44.06
   7  -1   7   -3.39   42.72
  -7   2  -7  523.39  184.59
  -7   2  -7  567.74  189.78
   7  -2   7  416.93  180.35
  -7   3  -7  379.43  162.66
  -7   3  -7  333.28  150.60
   7  -3   7  452.65  154.40
  -7   4  -7  323.50  136.40
  -7   4  -7  282.76  134.58
   7  -4   7  413.21  151.70
   7  -4   7  549.19  145.06
   5   7  -7   21.47   19.28
  -7   5  -7   21.87   40.01
   7  -5   7   22.18   59.59
  -5  -7   7    2.57   23.33
   7  -5   7  -28.83   88.83
   6   7  -7   67.18   30.93
  -6  -7   7   62.86   32.86
   7  -6   7   29.26   68.79
   7   7  -7  -62.86   65.12
   7   7  -7    1.78   21.77
  -7  -7   7    6.99   25.64
   8   7  -7  149.36   63.04
   8   7  -7  334.82  100.88
  -8  -7   7   93.01   66.00
   8   6  -7   37.22   63.42
   8   6  -7  -10.86   19.85
   8   6  -7   -4.08   20.28
  -8  -6   7   -5.93   24.16
   8   5  -7   32.40   38.11
   8   5  -7   10.89   18.86
   8   5  -7   50.71   53.86
   8   5  -7   16.92   18.21
  -8  -5   7   -4.95   21.31
  -8  -5   7  -16.09   46.40
   8   4  -7   63.25   59.03
   8   4  -7  109.57   43.44
   8   4  -7  163.62   54.23
   8   4  -7   88.13   39.52
  -8  -4   7   90.56   43.67
  -8  -4   7   91.82   62.49
  -8  -4   7  133.42   43.80
   8   3  -7  -33.93   33.55
  -8  -3  -7   28.87   59.30
   8   3  -7   -4.44   35.52
   8   3  -7    4.13   18.24
   8   3  -7   -5.83   12.22
   8   3   7  -65.07   59.18
  -8  -3   7  -10.51   35.22
  -8  -3   7   -3.72   17.94
  -8  -3   7   -2.09   17.82
  -8  -2  -7   85.30  115.08
   8   2  -7  241.59   96.75
   8   2  -7  283.92  104.35
   8   2  -7  281.62   87.47
  -8  -2   7  216.95   97.37
   8   2   7  309.16   99.79
   8   2   7  297.57  119.74
  -8  -2   7  363.35  102.90
  -8  -2   7  235.18  102.56
  -8  -1  -7   88.16   58.51
   8   1  -7   74.54   36.86
   8   1  -7  132.25   57.32
   8   1  -7   75.17   28.08
  -8  -1   7  112.34   54.27
   8   1   7   87.29   43.86
   8   1   7    4.99   68.07
  -8  -1   7   53.10   40.70
  -8  -1   7   62.89   41.11
   8   0  -7   88.47   50.85
   8   0  -7  -98.64   72.24
  -8   0  -7   -7.22   40.90
   8   0  -7    4.53   22.40
   8   0  -7   11.53   10.49
   8   0   7   87.32   55.31
  -8   0   7  -12.90   30.15
  -8   0   7    3.02   22.61
   8   0   7  -21.63   35.78
  -8   1  -7   77.79   49.93
   8  -1  -7   57.64   30.14
   8  -1  -7  -48.74   93.59
   8  -1  -7  119.85   72.21
  -8   1   7   90.06   47.11
   8  -1   7  218.90   59.92
  -8   2  -7  269.04   95.93
   8  -2  -7  340.05  123.33
  -8   2  -7  261.24   97.08
   8  -2   7  233.75   93.62
   8  -2   7   31.33  101.30
  -8   3  -7   -5.50   53.60
  -8   3  -7  -10.01   40.88
   8  -3   7  -72.37   53.38
   8  -3   7  -52.38   50.58
  -8   4  -7  154.06   62.96
   8  -4   7  110.06   84.08
   8  -4   7  161.79   79.53
  -8   5  -7   12.53   43.13
   8  -5   7  112.71   92.83
   8  -5   7   11.02   68.76
  -8   6  -7   10.53   49.16
   8  -6   7  -57.69   76.38
   8  -7   7   79.61   90.82
   9   8  -7  612.91  220.93
   9   7  -7   52.80   36.62
   9   7  -7   83.34   89.47
  -9  -7   7   76.19   43.23
   9   6  -7  191.79   65.09
   9   6  -7  121.92  103.64
   9   6  -7  271.26   68.91
  -9  -6   7   91.64   71.17
   9   5  -7   47.51   67.20
   9   5  -7  152.88   54.61
   9   5  -7   93.53   34.90
   9   5  -7   74.48   36.74
  -9  -5   7   98.47   39.64
  -9  -5   7    1.70   63.58
   9   4  -7    1.99   16.32
   9   4  -7  -11.26   20.26
   9   4  -7  -18.78   36.25
   9   4  -7  -55.21   44.50
  -9  -4   7    5.49   49.59
  -9  -4   7    0.93   20.66
  -9  -4   7    5.79   19.07
   9   3  -7   38.74   18.16
   9   3  -7   55.82   24.91
   9   3  -7    2.54   44.01
   9   3  -7  -12.20   41.36
  -9  -3  -7  -36.14   71.64
  -9  -3   7   89.05   40.76
   9   3   7   50.56   46.55
  -9  -3   7   -5.80   36.16
  -9  -3   7   22.39   22.73
  -9  -3   7   59.48   25.07
  -9  -2  -7   18.51   69.83
   9   2  -7  -12.00   38.96
   9   2  -7    6.01   11.87
   9   2  -7   -3.84   21.01
   9   2  -7   24.73   47.04
   9   2   7   40.21   67.53
   9   2   7  -30.53   40.81
  -9  -2   7  -35.25   19.09
  -9  -2   7    9.15   22.14
  -9  -2   7    3.94   40.45
  -9  -2   7   17.07   32.55
   9   1  -7   74.67   49.89
   9   1  -7   -0.84   23.78
   9   1  -7   20.14   13.32
   9   1  -7   -4.79   52.21
  -9  -1  -7   19.73   57.22
  -9  -1   7  100.37   51.24
  -9  -1   7  -15.98   33.13
  -9  -1   7   27.12   25.77
   9   1   7   37.35   37.95
   9   1   7   32.62   67.07
   9   0  -7   -2.87   23.29
   9   0  -7   -8.77   73.11
  -9   0  -7   32.63   46.09
   9   0  -7   -0.62   11.21
   9   0  -7  -76.66   57.97
  -9   0   7   -3.29   24.85
   9   0   7  -69.78   60.70
   9   0   7   -4.57   39.94
  -9   0   7   -1.53   33.49
   9  -1  -7   78.00   86.06
   9  -1  -7   27.49   69.34
   9  -1  -7   30.06   14.76
  -9   1  -7   44.30   44.48
  -9   1   7    1.89   36.82
   9  -1   7  -12.29   47.46
   9  -1   7   70.92   54.79
  -9   2  -7   -1.35   50.42
  -9   2  -7   -1.86   47.94
   9  -2  -7    1.98   86.68
   9  -2  -7    5.18   14.57
   9  -2   7  -35.71   53.75
   9  -2   7  -51.06   56.47
  -9   3  -7   57.04   48.16
  -9   3  -7   70.16   65.53
   9  -3   7   89.89   62.00
   9  -3   7  -57.77   62.48
  -9   4  -7   -7.91   45.63
   9  -4   7  -21.62   76.66
   9  -4   7   16.03   68.51
  -9   5  -7  148.70   62.99
   9  -5   7  150.13  113.68
   9  -5   7   49.06   89.49
  -9   6  -7  197.82   79.34
   9  -6   7  134.31  107.06
   9  -6   7  102.70  134.26
   9  -7   7  653.12  210.33
  10   8  -7   45.33   35.66
  10   7  -7  249.79   90.63
 -10  -7   7  237.39   95.93
  10   6  -7  171.93   54.55
  10   6  -7   18.92   94.25
  10   6  -7  124.47   51.98
 -10  -6   7  180.50   58.92
  10   5  -7   17.10   59.51
  10   5  -7   35.28   21.95
  10   5  -7   27.47   24.75
  10   5  -7   23.74   50.04
 -10  -5   7   17.02   25.19
 -10  -5   7   44.91   29.72
 -10  -5   7  -17.44   66.32
  10   4  -7   26.50   64.09
  10   4  -7  211.91   64.80
  10   4  -7  112.26   52.62
  10   4  -7  126.12   48.10
 -10  -4   7  235.86   73.43
 -10  -4   7  164.37   53.85
 -10  -4   7  104.95   53.44
  10   3  -7    9.87   16.15
  10   3  -7   -4.22   44.82
  10   3  -7   19.61   23.11
  10   3  -7  125.57   48.70
 -10  -3  -7  -81.22   81.37
 -10  -3   7  -43.06   39.89
 -10  -3   7   10.02   23.36
 -10  -3   7    0.92   22.25
 -10  -3   7  -15.65   43.43
  10   3   7  -52.48   49.07
  10   2  -7   35.61   27.10
  10   2  -7   75.31   55.03
  10   2  -7   32.25   18.64
  10   2  -7   28.50   46.85
 -10  -2  -7  -32.10   72.64
 -10  -2   7   48.78   30.13
  10   2   7   64.54   47.91
 -10  -2   7   48.87   49.80
 -10  -2   7   51.43   25.47
 -10  -2   7   23.70   39.94
  10   2   7    1.08   78.08
  10   1  -7   87.94   53.76
  10   1  -7   38.52   75.79
  10   1  -7  161.26   72.46
  10   1  -7  128.03   43.32
 -10  -1  -7  209.65   80.21
  10   1   7  156.51   61.45
 -10  -1   7  119.14   62.46
 -10  -1   7  180.12   57.93
  10   1   7   57.52   91.02
 -10  -1   7   90.44   74.56
  10   0  -7   30.03   73.37
  10   0  -7   -2.03   25.91
  10   0  -7  -32.50   64.63
 -10   0  -7   16.54   54.36
  10   0  -7   -4.70   11.99
 -10   0   7    5.30   26.87
  10   0   7 -135.17   49.19
 -10   0   7   10.01   37.31
  10   0   7   21.59   64.75
 -10   1  -7  214.51   73.69
  10  -1  -7  172.45   48.80
  10  -1  -7  162.00   96.52
  10  -1  -7  160.54  105.17
  10  -1   7   62.93   78.72
  10  -1   7   75.99   79.78
 -10   1   7  127.56   64.62
  10  -2  -7   10.54   98.32
 -10   2  -7   80.33   58.92
 -10   2  -7   26.81   65.15
  10  -2  -7   20.83   23.35
 -10   2   7   26.76   48.01
  10  -2   7  204.74   66.34
  10  -2   7  164.94   67.33
 -10   3  -7  111.59   74.83
 -10   3  -7   23.68   51.69
  10  -3   7  -68.74   69.74
  10  -3   7   -3.41   69.26
 -10   4  -7  424.24  112.96
 -10   4  -7  180.79   78.06
  10  -4   7  -39.56  107.66
  10  -4   7  203.59   98.31
 -10   5  -7  -36.38   54.40
  10  -5   7  -76.64   89.04
 -10   6  -7   75.51   65.01
  10  -6   7  -39.86  105.05
  10  -7   7  255.55  142.27
  11   8  -7  176.21   71.86
  11   7  -7   76.58   37.66
 -11  -7   7   31.76   46.04
  11   6  -7  100.06   31.34
  11   6  -7  -75.98   82.08
  11   6  -7   34.24   29.08
 -11  -6   7  -38.17   69.57
 -11  -6   7   25.50   37.16
  11   5  -7  287.96  102.30
  11   5  -7  193.19  119.91
  11   5  -7  406.24  114.23
  11   5  -7  214.79   94.35
 -11  -5   7  301.61  105.37
 -11  -5   7  270.56  103.87
 -11  -5   7  215.07  126.57
  11   4  -7  -14.46   20.04
 -11  -4  -7  -23.18   87.57
  11   4  -7   -6.29   25.32
 -11  -4   7   -1.17   28.94
 -11  -4   7    5.73   25.44
 -11  -4   7  -23.22   63.43
  11   3  -7   70.84   48.96
 -11  -3  -7  162.19  105.42
  11   3  -7  241.48   68.52
  11   3  -7  104.67   43.13
  11   3  -7   71.00   67.47
 -11  -3   7  113.11   52.42
  11   3   7   93.97   68.35
 -11  -3   7  124.99   60.94
 -11  -3   7  207.29   70.47
 -11  -3   7   71.40   49.56
 -11  -2  -7  125.90  121.45
  11   2  -7   34.25   96.40
  11   2  -7  280.72  104.18
  11   2  -7  232.78   86.95
  11   2  -7  202.99   78.26
 -11  -2   7  323.46   86.94
  11   2   7  285.10   94.20
 -11  -2   7  242.46   90.73
 -11  -2   7  265.96   96.96
 -11  -2   7  407.34  100.62
 -11  -1  -7    2.14   73.81
  11   1  -7  -83.83   65.19
  11   1  -7  -68.48   69.13
  11   1  -7   10.11   13.37
  11   1  -7   34.20   26.82
 -11  -1   7   31.53   63.98
  11   1   7    9.13   80.18
 -11  -1   7   14.49   30.13
 -11  -1   7    8.18   40.43
  11   1   7   25.33   48.27
  11   0  -7  451.68  129.68
 -11   0  -7  652.06  152.30
  11   0  -7  163.59  144.82
  11   0  -7  541.19  160.01
  11   0  -7  331.84  162.98
 -11   0   7  253.66  166.04
  11   0   7  349.04  143.43
  11   0   7  186.04  158.86
 -11   0   7  806.32  167.92
 -11   0   7  428.42  140.43
  11  -1  -7  -60.49   93.92
  11  -1  -7    6.12   14.28
 -11   1  -7   28.83   63.89
  11  -1  -7   50.31   91.11
  11  -1   7   25.01   67.14
  11  -1   7   53.33   67.08
 -11   1   7   18.93   45.10
 -11   2  -7  185.27  100.23
  11  -2  -7  258.03  135.11
 -11   2  -7  -47.17  119.74
  11  -2  -7  218.21   66.82
 -11   2   7  222.14   85.74
 -11   3  -7  475.00  124.51
  11  -3  -7  119.63  163.51
 -11   4  -7   -2.46   58.20
 -11   4  -7  -36.48  100.71
 -11   5  -7  351.88  130.01
  11  -5   7  291.17  175.91
  11  -5   7  382.08  156.46
 -11   6  -7   20.74   61.57
  11  -6   7  -25.06  105.34
  11  -6   7  -96.79  132.32
 -11   7  -7   24.31   62.53
  11  -7   7  -31.82  113.63
  12   8  -7  -28.31   37.48
  12   7  -7   61.42   39.86
  12   6  -7   20.19   28.37
  12   6  -7   13.86   31.41
 -12  -6   7   29.15   39.64
 -12  -6   7    2.55   31.33
 -12  -6   7   93.02   81.15
  12   5  -7   45.91   40.37
  12   5  -7  143.06   61.00
  12   5  -7   65.96   37.23
  12   5  -7   -5.64   69.30
 -12  -5   7   97.96   40.47
 -12  -5   7  126.10   46.39
 -12  -5   7   85.19   91.24
  12   4  -7  -16.38   51.37
 -12  -4  -7   97.09  102.00
  12   4  -7    1.35   22.75
  12   4  -7  -75.72   66.09
  12   4  -7    8.86   29.70
 -12  -4   7   -2.36   28.65
 -12  -4   7  -32.25   31.15
 -12  -4   7   37.42   71.21
 -12  -4   7  -30.38   53.47
 -12  -3  -7   -3.37  145.14
  12   3  -7  153.35  117.54
  12   3  -7  384.61  114.14
 -12  -3   7  307.69  115.26
 -12  -3   7  307.36  111.16
  12   3   7  287.93  113.24
 -12  -3   7  332.98  108.95
 -12  -3   7  364.21  118.08
  12   2  -7   11.25   72.10
  12   2  -7   84.42   64.91
 -12  -2  -7   24.47  101.37
  12   2   7    1.31   56.19
 -12  -2   7   -4.15   31.23
 -12  -2   7   26.06   35.78
 -12  -2   7   10.73   51.29
 -12  -2   7    1.51   65.26
  12   1  -7  812.99  303.32
  12   1  -7  443.36  305.06
 -12  -1  -7 1155.98  304.65
  12   1   7  192.28  333.08
  12   1   7  784.11  278.18
 -12  -1   7 1316.19  312.60
 -12  -1   7  613.78  279.28
  12   0  -7   39.51   91.40
  12   0  -7  -53.50   86.68
 -12   0  -7  -54.92   84.93
 -12   0   7    1.99   49.51
 -12   0   7  -32.49   89.28
  12   0   7  -97.27   73.68
  12   0   7 -204.36   68.96
  12  -1  -7  626.85  337.68
 -12   1  -7 1385.29  339.95
  12  -1  -7  732.89  331.06
 -12   1  -7 1443.39  319.20
  12  -1   7  860.14  301.82
 -12   1   7  821.43  298.30
  12  -1   7   72.33  330.08
 -12   2  -7   92.75   87.75
  12  -2  -7  -46.31  117.19
 -12   2  -7    5.42   73.85
  12  -2  -7  -72.75  124.03
 -12   2   7    2.61   52.06
 -12   3  -7  508.69  142.59
 -12   3  -7  343.68  114.83
  12  -3  -7  317.65  173.16
  12  -3   7   73.11  129.12
  12  -3   7  -21.52  132.53
 -12   4  -7  -24.36   62.49
 -12   4  -7 -197.12  118.45
  12  -4   7  149.96  102.43
  12  -4   7  132.66   99.71
 -12   5  -7  100.24  139.85
  12  -5   7   58.85  114.59
  13   5  -7  -28.92   78.88
  13   5  -7  -21.38   65.85
 -13  -5   7  -13.11   98.79
 -13  -4  -7  322.42  110.17
  13   4  -7   -8.57   70.29
  13   4  -7    1.20   54.37
  13   4   7   -1.63  120.81
 -13  -4   7   33.59   78.05
 -13  -4   7  -26.33   60.26
  13   3  -7   12.87   61.44
  13   3  -7  -21.12   68.03
 -13  -3   7  -20.81   69.61
 -13  -3   7  -20.00   55.59
  13   2  -7  352.91  116.03
  13   2  -7   76.06  108.17
 -13  -2   7  167.85   95.30
 -13  -2   7  298.49  108.93
  13   1  -7   90.30   85.06
  13   1  -7    1.07   85.90
 -13  -1   7  -26.49   82.09
 -13  -1   7  -63.18   51.70
  13   0  -7  594.68  200.18
  13   0  -7  277.75  200.09
 -13   0   7  574.59  210.50
 -13   0   7  381.76  169.22
  13  -1  -7  -31.04  109.45
  13  -1  -7   -8.58  111.31
 -13   1   7   -9.65   50.93
  13  -2  -7  128.84  148.18
  13  -2  -7  140.98  159.33
 -13   2   7  291.08   98.32
  13  -3  -7 -133.35  153.44
  13  -4   7  -11.98  115.83
 -13   5  -7  588.97  218.92
  13  -6   7 1772.56  547.78
 -13   7  -7   92.60   85.17
  13  -7   7  170.56  146.68
  14   5  -7  -34.80   68.54
 -14  -5   7  284.46   72.67
 -14  -5   7  -78.68  110.18
  14   4  -7 -116.14   67.81
 -14  -4  -7   -8.65  127.72
 -14  -4   7  153.04   69.94
  14   4   7  -89.70  137.64
 -14  -4   7   96.63   93.02
  14   4   7   -1.94   76.73
  14   3  -7 1542.39  313.89
 -14  -3  -7  203.43  357.84
  14   3   7   62.96  287.47
 -14  -3   7  188.81  327.35
 -14  -3   7  211.74  312.53
 -14  -2  -7  -42.53  131.93
  14   2  -7 -264.19  102.27
  14   2  -7  -38.39   86.48
 -14  -2   7   23.39   82.41
 -14  -2   7  171.63   61.45
  14   2   7 -116.31   70.01
  14   1  -7  105.57  124.05
 -14  -1  -7   81.79  136.20
 -14  -1   7  150.85  121.77
  14   1   7   10.89   98.16
 -14  -1   7  425.31   89.37
 -14   0  -7  -65.16  100.48
 -14   0  -7  127.68  103.45
 -14   0   7  -89.41  111.98
  14   0   7  -44.48   80.67
 -14   1  -7  192.58  122.83
 -14   1  -7 -387.89  152.88
 -14   2  -7 -185.78  117.61
 -14   2  -7  -64.60  102.72
  14  -3   7 3323.65  950.63
  14  -3   7 2836.59  942.82
 -14   4  -7  280.97   99.48
 -14   4  -7  209.03  156.41
  14  -4   7  220.21  136.68
  14  -4   7  -17.19  145.21
 -14   5  -7  -24.95   83.78
 -14   5  -7   92.39  165.89
  14  -5   7 -141.23  132.84
  14  -5   7   37.46  155.98
 -14   6  -7  -18.88   87.07
 -14   6  -7   72.00  189.75
  14  -6   7  199.84  166.34
  14  -6   7  284.08  149.10
 -14   7  -7  124.46   89.88
  14  -7   7   50.54  158.79
 -15  -5   7   37.24   81.74
 -15  -4  -7 -201.08  145.89
 -15  -4   7   92.85   75.10
  15   4   7  -33.78   81.13
  15   4   7 -134.15  143.50
 -15  -3  -7   78.93  148.12
  15   3   7    7.93   80.15
  15   3   7  -20.22  125.89
 -15  -3   7   40.48   70.29
  15   2  -7   37.03  100.48
 -15  -2  -7  100.46  146.26
  15   2   7    7.20   75.69
 -15  -2   7  -32.51   66.01
 -15  -1  -7 -107.68  129.95
  15   1  -7 -144.48  110.92
  15   1   7 -178.45   81.80
 -15  -1   7   25.03   65.15
  15   0  -7  200.84  124.88
  15   0  -7  -49.16  131.18
 -15   0  -7  191.44  116.06
 -15   0  -7  -47.78  121.56
  15   0   7   -1.86   91.70
 -15   0   7 -134.10   69.46
  15   0   7    1.26  106.88
 -15   0   7  572.75  121.00
 -15   1  -7    3.01  118.45
  15  -1  -7  -18.43  140.13
  15  -1  -7 -199.47  134.20
 -15   1   7  -28.48   65.49
 -15   1   7  185.76  143.98
 -15   2  -7  -76.00  107.08
 -15   2  -7   62.90  126.24
  15  -2  -7   64.70  156.80
  15  -2  -7  -75.31  131.54
  15  -2   7  -87.89  138.04
 -15   2   7   -6.25   63.55
  15  -2   7  -24.88  113.21
 -15   2   7    3.87  175.71
 -15   3  -7   20.91  145.04
 -15   3  -7   22.66   99.80
  15  -3  -7    7.27  185.30
  15  -3   7   19.74  132.01
  15  -3   7  242.35  131.08
 -15   4  -7  -45.46   90.53
 -15   4  -7 -307.19  166.16
  15  -4   7  143.66  137.95
  15  -4   7   41.64  144.30
 -15   5  -7  121.20   95.15
 -15   5  -7   46.84  184.82
  15  -5   7   34.08  169.05
  15  -5   7  211.17  153.12
 -15   6  -7  365.67  112.59
 -15   6  -7  255.47  219.60
  15  -6   7   58.51  173.80
  15  -6   7  -29.82  186.65
 -15   7  -7   -4.99  219.61
 -15   7  -7  -36.03   84.80
  15  -7   7 -101.14  169.85
 -16  -4  -7 -266.34  172.97
  16   4   7  -41.64   92.82
  16   4   7 -167.28  162.35
 -16  -3  -7  166.82  170.33
  16   3  -7  122.49   85.10
  16   3  -7  -65.14  100.38
 -16  -3   7 -163.30   80.42
 -16  -3   7 -109.83  105.09
  16   3   7  -57.76  134.16
  16   3   7  -70.35   90.05
  16   2  -7   -1.99   99.46
  16   2  -7  -85.68  110.49
 -16  -2  -7   24.77  165.42
  16   2   7   -6.26   87.13
 -16  -2   7   67.01   73.31
 -16  -2   7   15.05  101.08
 -16  -1  -7  224.03  163.09
  16   1  -7   -2.45  125.92
  16   1  -7  102.74  117.03
  16   1   7   23.83   87.72
 -16  -1   7   33.61   72.42
 -16  -1   7 -115.85  116.41
 -16   0  -7   -3.94  144.77
 -16   0  -7   -4.27  121.52
  16   0  -7   12.81  133.27
  16   0  -7   70.03  135.18
  16   0   7 -117.54   95.18
 -16   0   7   81.90   70.55
 -16   0   7   84.73  126.90
  16  -1  -7 -167.42  141.12
 -16   1  -7  131.30  136.43
  16  -1  -7  -14.45  148.74
 -16   1  -7   81.01  121.50
  16  -1   7   48.47  110.41
 -16   1   7  155.82   70.64
 -16   1   7  206.26  157.06
  16  -1   7 -189.72  120.84
 -16   2  -7   10.98  145.54
  16  -2  -7  104.22  145.37
  16  -2  -7  390.70  182.83
 -16   2  -7  -58.90  112.39
  16  -2   7 -135.84  135.10
 -16   2   7  372.05  183.83
 -16   2   7   33.74   71.10
  16  -2   7   46.57  125.98
 -16   3  -7   11.76  156.55
 -16   3  -7  140.96  110.72
  16  -3  -7 -337.39  207.16
  16  -3   7  -78.51  143.63
  16  -3   7 -276.75  156.69
 -16   4  -7  112.97  107.43
 -16   4  -7 -241.38  190.95
  16  -4   7 -312.71  163.60
  16  -4   7 -120.99  164.76
 -16   5  -7  -37.71  204.71
 -16   5  -7  -26.18  103.88
  16  -5   7  236.35  163.92
  16  -5   7 -285.63  186.99
 -16   6  -7  142.35  102.62
 -16   6  -7 -143.38  226.61
  16  -6   7    8.13  191.99
  16  -6   7   71.92  171.68
 -16   7  -7  172.33   97.88
 -16   7  -7 -321.18  245.63
  16  -7   7    3.59  180.90
 -17  -4  -7 -279.85  187.24
 -17  -4   7   16.20   86.27
  17   4   7  -39.29  167.21
  17   4   7  101.98   99.25
 -17  -3  -7  -99.95  189.86
  17   3  -7    5.56   86.30
  17   3  -7   25.16  118.16
 -17  -3   7  145.45  121.53
  17   3   7   74.87  135.85
 -17  -3   7   47.00   84.60
  17   3   7 -124.70  102.50
 -17  -2  -7 -112.81  192.79
  17   2  -7 -377.24  136.72
  17   2  -7   -2.21  108.85
  17   2   7 -210.56  129.84
 -17  -2   7   18.48   81.06
 -17  -2   7   86.07  118.96
  17   2   7   37.31   97.97
  17   1  -7  -94.30  148.09
 -17  -1   7  -41.76  128.10
  17   1   7   85.08   99.71
 -17  -1   7   18.57   80.02
  17   0  -7  -11.87  155.53
 -17   0  -7   99.37  169.04
 -17   0  -7  205.71  135.43
  17   0   7  -44.27  107.42
 -17   0   7  -28.94   75.41
 -17   0   7  144.46  145.51
  17  -1  -7  -46.67  151.32
 -17   1  -7   75.82  122.52
 -17   1  -7  150.04  160.38
  17  -1  -7 -154.46  168.46
 -17   1   7  132.16  171.09
  17  -1   7 -136.72  127.33
  17  -1   7   91.21  122.71
 -17   1   7   34.27   76.50
  17  -2  -7   77.05  159.35
 -17   2  -7  119.80  171.28
 -17   2  -7    4.67  127.14
 -17   2   7 -187.26   98.86
 -17   2   7 -104.63  208.76
  17  -2   7  389.09  141.44
  17  -2   7  118.36  147.27
 -17   3  -7 -139.31  120.85
  17  -3  -7  153.31  270.63
 -17   3  -7 -227.92  176.59
 -17   3   7  378.83  242.88
  17  -3   7   16.94  164.01
  17  -3   7 -142.93  180.28
 -17   4  -7    4.69  108.90
 -17   4  -7  -52.90  197.52
  17  -4   7  368.28  178.40
  17  -4   7 -168.54  188.51
 -17   5  -7  -58.54  106.79
 -17   5  -7  230.27  221.54
  17  -5   7 -143.42  183.88
  17  -5   7   49.04  197.60
 -17   6  -7  239.39  137.80
 -17   6  -7  -22.51  257.03
  17  -6   7  417.24  224.19
  17  -6   7  154.70  205.19
 -17   7  -7  -16.25  103.29
 -17   7  -7  -59.76  262.16
  17  -7   7 -107.66  201.92
 -18  -4  -7  -80.23  210.97
  18   4   7  -42.40  115.00
  18   4   7 -228.64  162.28
 -18  -3  -7  -53.26  223.52
  18   3   7  -38.23  110.89
  18   3   7   88.43  141.15
 -18  -3   7  -21.07   96.06
 -18  -3   7 -230.84  143.24
  18   2  -7  136.66  115.68
 -18  -2  -7  160.88  225.12
  18   2  -7 -157.23  138.19
 -18  -2  -7  130.55  160.70
 -18  -2   7  160.16   89.92
  18   2   7 -130.74  114.22
 -18  -2   7  222.15  136.70
  18   2   7   39.25  147.48
  18   1  -7   31.66  152.26
 -18  -1  -7 -277.23  210.21
  18   1   7  -58.12  112.38
 -18  -1   7   24.33   84.96
 -18  -1   7  196.76  143.88
  18   0  -7  213.01  162.01
  18   0  -7 -345.98  176.73
 -18   0  -7  -27.77  206.94
  18   0   7  -31.61  119.50
 -18   0   7   35.90   84.82
 -18   0   7  -41.27  162.59
  18  -1  -7  323.39  188.77
  18  -1  -7  -99.96  173.77
 -18   1  -7   60.81  196.56
 -18   1  -7   21.14  140.88
  18  -1   7  -22.70  133.41
 -18   1   7    7.49   82.80
  18  -1   7 -232.07  152.16
 -18   1   7  115.15  181.27
 -18   2  -7   87.40  185.56
  18  -2  -7  -22.76  168.24
  18  -2  -7 -105.57  219.80
 -18   2  -7  -88.83  139.83
  18  -2   7   -2.18  169.93
 -18   2   7   48.17   85.16
 -18   2   7  -54.30  213.07
  18  -2   7 -137.92  156.01
 -18   3  -7  -15.40  128.77
 -18   3  -7 -216.47  209.25
  18  -3  -7 -423.20  248.11
  18  -3   7 -199.54  181.20
  18  -3   7   60.60  181.80
 -18   3   7  210.52  254.73
 -18   4  -7 -168.48  231.68
 -18   4  -7   52.11  131.96
  18  -4   7 -367.08  210.30
  18  -4   7  -75.39  205.41
 -18   5  -7  -23.33  246.07
 -18   5  -7 -365.80  136.06
  18  -5   7  619.40  232.84
 -18   6  -7  -24.76  269.73
 -18   6  -7 -272.23  136.18
 -18   7  -7   19.64  286.43
 -18   7  -7 -107.86  116.85
  18  -7   7 -184.15  225.93
 -19  -4  -7   90.52  243.99
  19   4   7   -6.30  130.70
  19   4   7  236.16  172.03
 -19  -3  -7   90.78  245.30
  19   3   7 -140.84  130.90
  19   3   7   63.63  168.12
 -19  -2  -7  220.80  264.70
  19   2  -7   60.77  121.34
 -19  -2  -7  230.66  177.31
  19   2   7  -26.48  130.00
 -19  -2   7  173.61  159.18
 -19  -2   7  -42.28   97.76
  19   1  -7 -309.51  158.66
 -19  -1  -7  213.50  263.76
 -19  -1   7   66.08  158.80
 -19  -1   7  -23.20   96.19
  19   0  -7 -395.65  225.52
 -19   0  -7 -589.17  273.01
 -19   0   7 -552.83  201.16
 -19   0   7  -59.58  113.85
  19  -1  -7   88.15  217.45
 -19   1  -7   37.64  244.37
 -19   1  -7 -274.45  164.59
 -19   1   7 -183.43  203.90
 -19   1   7  -70.65   93.17
  19  -2  -7 -198.36  232.15
 -19   2  -7 -177.63  154.51
 -19   2  -7  327.61  236.21
 -19   2   7  122.92   88.71
 -19   2   7 -220.12  235.11
  19  -2   7 -197.16  200.01
  19  -2   7    3.54  176.60
 -19   3  -7 -127.72  238.24
  19  -3  -7 -389.89  271.27
 -19   3  -7  288.79  150.40
  19  -3   7 -152.41  216.24
 -19   3   7  486.44  273.82
  19  -3   7  -54.87  208.09
 -19   4  -7  227.61  270.89
 -19   4  -7  299.59  162.75
  19  -4   7  123.06  262.70
  19  -4   7  161.83  254.77
 -19   5  -7   39.32  274.92
 -19   5  -7   48.50  136.04
  19  -5   7  221.86  235.00
  19  -5   7 -356.53  249.01
 -19   6  -7 -177.94  293.29
 -19   6  -7    6.29  139.19
  19  -6   7  224.91  260.83
  19  -6   7  238.90  243.30
 -19   7  -7   28.71  314.79
  19  -7   7  -48.89  245.93
 -20  -2  -7    8.73  297.23
  20   2   7  -86.07  153.09
 -20  -2   7   25.72  110.19
  20   1  -7   15.65  199.78
 -20  -1  -7 -246.25  301.39
  20   1  -7   30.66  166.60
 -20  -1   7   12.97  103.58
 -20  -1   7 -266.20  190.46
  20   1   7   63.51  153.58
  20   0  -7 -276.91  211.74
  20   0  -7   16.18  197.45
 -20   0  -7   15.80  295.37
  20   0   7 -181.35  158.56
 -20   0   7   53.46  103.23
 -20   0   7  508.21  206.16
  20  -1  -7  298.85  203.02
 -20   1  -7 -144.28  272.39
  20  -1  -7   24.39  247.57
 -20   1   7    9.19  102.29
 -20   1   7 -125.62  228.49
  20  -1   7   60.72  172.12
 -20   2  -7  255.35  282.92
  20  -2  -7 -152.52  266.43
  20  -2   7  200.04  193.95
 -20   2   7   41.07  256.20
 -20   2   7   24.27   99.51
  20  -3  -7  278.01  366.21
 -20   3   7  840.56  372.54
 -21  -1   7   41.02  210.85
 -21  -1   7  -48.89  122.44
  21   0  -7 -111.93  209.62
 -21   0   7  -79.28  105.53
 -21   0   7  -16.27  224.01
  21  -1  -7 -358.38  289.52
 -21   1   7 -320.41  244.98
   0   0  -8  301.77  112.33
   0   0  -8  319.77  102.62
   0   0   8  299.45  115.32
   0   1  -8    3.67    9.81
   0   1  -8   -0.61    4.26
   1   0  -8    1.26    4.82
  -1   0  -8    1.50    4.31
   1   0  -8    9.19   12.62
  -1   0   8   -5.84   10.01
   0  -1   8   -4.24    9.20
   1   1  -8  319.49  123.34
   1   1  -8  472.66  137.19
  -1   1  -8  458.25  138.52
  -1   1  -8  453.02  125.59
  -1  -1   8  339.48  140.40
   1  -1   8  364.32  140.99
   1  -1   8  258.11  147.59
  -1   2  -8   27.31   15.55
   2   1  -8   13.26   15.59
  -1   2  -8   38.46   10.29
  -1   2  -8   34.03   14.47
   1  -2   8   20.63   13.28
   1  -2   8    6.63   17.61
  -2  -1   8   22.39   15.38
   1  -2   8   33.24   14.53
   0   2  -8   90.74   27.06
   0   2  -8   79.40   23.84
   2   0  -8  111.69   29.63
  -2   0  -8   19.74   24.36
  -2   0   8   81.79   29.14
   0  -2   8  107.01   26.40
   2   0   8   33.40   32.56
  -2   1  -8   10.34   24.24
  -2   1  -8   31.53   11.17
   1   2  -8   23.13   14.93
   1   2  -8   40.36   11.51
  -2   1  -8   26.88   16.64
  -1  -2   8   32.73   13.82
   2  -1   8   28.75   19.61
   2  -1   8   23.14   23.90
   2  -1   8   33.08   15.54
  -2   2  -8    6.39   13.26
  -2   2  -8   12.11    5.86
   2   2  -8    5.35   11.92
  -2   2  -8   18.08   11.32
   2  -2   8   15.33   10.21
   2  -2   8   15.31   18.89
   2  -2   8   19.77   17.57
  -2  -2   8    3.19   10.73
   3   2  -8   19.58   34.35
  -2   3  -8   13.24    9.15
   3   2  -8   19.26   15.19
  -2   3  -8   12.48   11.17
  -2   3  -8   25.74   19.01
   2  -3   8   22.36    9.98
   2  -3   8   13.35   19.97
  -3  -2   8   40.14   16.07
  -3  -2   8   18.75   14.87
   2  -3   8   29.03   35.53
  -1   3  -8  215.65   67.41
  -1   3  -8  187.47   62.99
  -1   3  -8  406.42   75.22
   1  -3   8  148.02   64.55
   1  -3   8  137.62   67.95
   0   3  -8    9.78    6.13
  -3   0  -8   -1.12   28.50
  -3   0  -8    1.22    4.90
   0   3  -8    1.80    8.93
   0  -3   8    3.69    8.28
   3   0   8    1.13   26.21
   1   3  -8   72.95   60.75
  -3   1  -8  186.59   59.42
  -3   1  -8  179.26   66.32
  -3   1  -8  207.86   66.13
   3  -1   8  158.05   76.59
   3  -1   8  164.57   67.28
   3  -1   8  190.91   62.88
  -3   2  -8   20.96   17.67
  -3   2  -8   25.16    8.74
  -3   2  -8   21.00   13.44
   3  -2   8   23.95   12.80
   3  -2   8   15.46   23.75
   3  -2   8   21.43   23.93
   3   3  -8 1126.80  294.54
  -3   3  -8 1251.33  303.90
  -3   3  -8 1133.58  306.25
   3   3  -8  388.26  314.52
  -3   3  -8 1059.61  281.92
  -3  -3   8 1055.29  295.92
   3  -3   8  801.89  300.41
   3  -3   8  515.69  328.11
   3  -3   8  856.97  287.40
   4   3  -8  391.50  129.79
   4   3  -8  337.06  120.45
   4   3  -8  152.53  137.92
  -3   4  -8  365.24  123.75
  -3   4  -8  371.11  133.10
   4   3  -8  270.26  146.71
  -3   4  -8  614.67  142.72
   3  -4   8  723.61  164.52
  -4  -3   8  387.00  130.41
  -4  -3   8  287.37  134.70
   3  -4   8  358.97  142.12
   3  -4   8  412.11  128.14
   4   2  -8  233.25   74.28
   4   2  -8  198.40   86.65
  -2   4  -8  222.93   81.37
   4   2  -8  133.36  103.36
   4   2  -8  248.22   82.50
  -4  -2   8  225.66   85.78
   2  -4   8  193.89   89.66
   2  -4   8  278.81   78.31
  -4  -2   8  278.08   85.75
   4   1  -8  -10.08   22.77
  -1   4  -8    2.26    8.91
   4   1  -8    8.74    7.06
  -1   4  -8    0.56    6.88
   1  -4   8    0.91    7.99
  -4   0  -8  789.80  448.43
   4   0   8 1301.50  422.21
   1   4  -8   -0.56    7.79
  -4   1  -8    3.79    4.09
  -4   1  -8   -3.78   20.95
   4  -1   8   23.74   35.50
  -1  -4   8   -9.25   10.52
   4  -1   8    8.78   20.96
   2   4  -8  204.94   70.68
  -4   2  -8  322.08   83.43
   2   4  -8  224.52   75.08
  -4   2  -8  173.21   78.55
  -4   2  -8  234.53   71.78
   4  -2   8  190.15   78.82
   4  -2   8  166.57   73.55
  -2  -4   8  216.97   73.81
   4  -2   8  271.67   82.95
   4  -2   8  138.92   88.54
  -4   3  -8  428.74  141.88
   3   4  -8  363.52  151.90
  -4   3  -8  419.17  138.39
   3   4  -8  427.20  129.48
  -4   3  -8  355.51  126.31
  -4   3  -8  423.95  140.15
   4  -3   8  371.75  135.29
   4  -3   8  339.13  129.67
   4  -3   8  392.05  147.21
   4  -3   8  252.98  136.84
   4   4  -8  269.06  122.11
  -4   4  -8  429.51  129.80
   4   4  -8  266.02  115.58
   4   4  -8  366.61  140.29
   4  -4   8  368.49  137.57
   4  -4   8  394.84  125.26
   5   4  -8   16.04   30.02
   5   4  -8   26.80   14.95
   5   4  -8   35.33   17.15
  -4   5  -8   41.69   15.57
  -5  -4   8   -0.73   26.75
  -5  -4   8   45.76   17.85
   5   3  -8  844.70  257.20
  -3   5  -8  797.95  241.29
   5   3  -8  323.17  244.79
   5   3  -8  676.38  233.52
   5   3  -8  714.73  217.18
  -5  -3   8  683.97  235.22
  -5  -3   8  800.28  229.44
   3  -5   8  600.32  258.43
  -5  -3   8  752.57  240.27
   5   2  -8   78.84   40.42
   5   2  -8   66.64   36.09
   5   2  -8  101.63   30.72
   5   2  -8   95.02   48.19
  -5  -2   8   58.91   39.61
  -5  -2   8  122.11   38.21
  -5  -2   8  111.01   36.40
  -5  -1  -8   51.81  235.65
   5   1  -8  690.66  195.29
   5   1  -8  691.44  297.77
   5   1  -8  667.34  229.93
   5   1  -8  597.30  231.02
  -5  -1   8  774.65  243.17
  -5  -1   8  697.40  246.83
   5   0  -8   20.90   17.46
   5   0  -8    1.98    7.59
   0   5  -8   13.08   10.80
   0   5  -8    0.79   11.11
  -5   0   8   37.04   17.79
   0  -5   8   -3.78   12.48
   5   0   8   19.85   39.69
  -5   1  -8  811.37  257.39
   5  -1  -8  709.83  249.94
   1   5  -8  679.14  244.37
   1   5  -8  749.01  257.48
  -1  -5   8  838.61  251.62
  -5   2  -8   90.89   32.47
   2   5  -8   92.32   33.50
   2   5  -8  124.21   35.39
  -5   2  -8   88.47   38.17
   5  -2   8   95.03   38.13
   5  -2   8   92.81   33.11
  -2  -5   8   83.37   34.90
  -5   3  -8  812.84  244.71
  -5   3  -8  352.06  216.00
   5  -3   8  678.07  225.10
   5  -3   8  670.40  231.75
  -5   4  -8   31.62   14.25
  -5   4  -8   15.33   30.19
   4   5  -8   19.02   14.49
   4   5  -8   28.59   17.10
   4   5  -8   39.18   34.81
   5  -4   8    9.67   62.11
  -4  -5   8   26.24   18.25
   5   5  -8  367.95  113.85
  -5   5  -8  363.28  131.40
   5   5  -8  367.40  120.24
   5   5  -8  376.95  146.88
  -5   5  -8  356.38  136.44
   5  -5   8  239.09  144.70
  -5  -5   8  415.50  119.77
   5  -5   8  147.80  172.14
   6   5  -8  163.68   55.86
   6   5  -8  132.82   52.55
   5  -6   8  160.17   79.78
  -6  -5   8  119.14   56.56
   6   4  -8  300.77  118.93
   6   4  -8  349.43  110.91
  -6  -4   8  301.98  122.13
   6   3  -8  322.98  302.04
   6   3  -8  981.83  313.90
   6   3  -8  832.75  289.87
  -6  -3   8  979.25  284.48
  -6  -3   8 1037.40  297.92
  -6  -3   8  843.52  289.00
  -6  -3   8  830.19  293.71
   6   2  -8  359.72  129.29
   6   2  -8  380.96  118.02
   6   2  -8  271.93  122.79
   6   2  -8  321.38  108.89
  -6  -2   8  332.01  121.78
  -6  -2   8  316.14  122.50
   6   2   8  432.18  132.51
  -6  -2   8  349.51  118.74
   6   1  -8   82.65   50.41
  -6  -1  -8   10.02   61.51
   6   1  -8  234.77   68.13
   6   1  -8  119.75   43.89
   6   1  -8   89.83   36.30
   6   1   8  126.66   61.42
  -6  -1   8   89.58   46.48
   6   1   8   97.71   49.12
  -6  -1   8  155.74   46.97
   0   6  -8   59.79   20.66
   6   0  -8   49.57   26.42
   6   0  -8   54.60   17.37
  -6   0  -8   66.69   39.11
   6   0   8   20.33   50.54
  -6   0   8   16.90   27.57
   6   0   8   34.77   31.28
   0  -6   8   32.49   23.28
   6  -1  -8   89.83   38.86
   1   6  -8   87.62   41.08
   1   6  -8  126.76   39.18
  -6   1  -8  136.36   47.53
   6  -1   8  107.81   61.29
   6  -1   8  126.72   48.74
  -1  -6   8  110.17   41.67
  -6   2  -8  210.07  107.85
   2   6  -8  287.40  104.99
   2   6  -8  265.76  110.39
  -6   2  -8  366.83  116.29
   6  -2   8  437.88  126.02
   6  -2   8  331.90  110.82
   6  -2   8  316.00  124.37
  -6   3  -8  965.72  300.77
  -6   3  -8  894.44  308.92
  -6   3  -8 1020.06  318.08
   6  -3   8  898.01  293.58
   6  -3   8  285.99  312.52
   6  -3   8  885.37  301.14
   4   6  -8  264.18  107.89
  -6   4  -8  339.81  129.42
  -6   4  -8  346.87  126.07
   4   6  -8  328.28  115.54
  -4  -6   8  275.02  114.74
  -6   5  -8  188.55   75.25
   5   6  -8  244.12   94.18
   5   6  -8  191.10   67.89
   5   6  -8  195.39   70.63
  -6   5  -8  209.19   80.67
   6  -5   8  257.85   93.64
  -5  -6   8  159.57   71.06
   6  -5   8  316.30  114.84
   6   6  -8    8.92   17.77
   6   6  -8   13.27   16.96
  -6  -6   8   -7.13   21.82
   6  -6   8   46.01   57.85
   7   6  -8    6.16   52.09
   7   6  -8   28.25   19.77
   7   6  -8   -0.79   19.37
  -7  -6   8   -1.10   24.85
   7   5  -8   32.29   21.21
   7   5  -8   31.53   18.59
  -7  -5   8   26.83   23.33
   7   4  -8  562.52  206.48
   7   4  -8  501.95  193.52
  -7  -4   8  686.59  204.98
  -7  -4   8  588.08  210.03
   7   3  -8  224.61   87.67
   7   3  -8  247.68   80.65
  -7  -3   8  271.84   86.38
  -7  -3   8  238.07   89.19
   7   2  -8  478.65  168.17
  -7  -2  -8   22.93  181.07
   7   2  -8  389.24  146.58
   7   2   8  577.06  167.59
  -7  -2   8  623.01  180.06
  -7  -1  -8  204.51  101.97
   7   1  -8  180.46   89.23
   7   1  -8  261.92   75.26
   7   1   8   53.54  108.85
   7   1   8  317.82   86.85
  -7  -1   8  225.70   89.27
  -7  -1   8  239.86   96.55
  -7   0  -8   16.31   40.78
   7   0  -8   -9.88   10.80
   7   0  -8  -60.71   28.00
  -7   0  -8   -2.25    3.43
  -7   0   8  -20.51   24.74
  -7   0   8 -105.59   37.88
   7  -1  -8  245.87   85.17
  -7   1  -8  309.42   96.98
   7  -1   8  209.46   97.13
   2   7  -8  576.39  209.65
  -7   2  -8  550.37  218.38
   7  -2   8  885.73  216.66
   7  -2   8  633.63  233.24
  -2  -7   8  410.34  207.55
   3   7  -8  192.46   70.25
  -7   3  -8  213.24   83.75
  -7   3  -8  188.38   90.50
   7  -3   8    9.96   90.48
   7  -3   8  286.86   84.85
  -7   4  -8  556.48  204.39
   4   7  -8  558.02  181.90
   4   7  -8  484.43  193.80
   7  -4   8  653.13  217.09
   7  -4   8  442.57  227.76
  -7   5  -8   40.03   41.54
   5   7  -8   56.54   23.02
   5   7  -8   55.78   25.01
   7  -5   8   49.73   62.01
   7  -5   8  -50.29   88.56
  -5  -7   8   26.46   27.01
  -7   6  -8  -12.68   44.33
   6   7  -8   -0.85   20.47
   6   7  -8   20.28   18.33
  -6  -7   8   17.86   25.36
   7  -6   8  -55.36   65.16
   7   7  -8  125.61   40.60
   7   7  -8   89.15   42.27
  -7  -7   8   94.08   45.34
   7  -7   8   86.13   81.35
   8   7  -8   -3.17   22.86
   8   7  -8   34.78   23.71
  -8  -7   8   -2.93   29.74
   8   6  -8  138.59   72.01
   8   6  -8   88.98   40.01
   8   6  -8   94.63   38.30
  -8  -6   8   82.19   43.22
   8   5  -8    3.73   19.05
   8   5  -8   24.07   47.70
   8   5  -8  -22.22   38.38
   8   5  -8   -2.27   17.80
  -8  -5   8    9.09   22.35
  -8  -5   8    8.33   45.32
   8   4  -8    0.91   15.01
   8   4  -8    0.74   20.06
   8   4  -8    1.11   33.22
   8   4  -8  -33.14   33.33
  -8  -4   8    4.42   20.31
  -8  -4   8   -6.78   18.51
  -8  -4   8   23.79   41.54
   8   3  -8  545.52  162.75
   8   3  -8  606.12  188.49
   8   3  -8  473.28  179.45
   8   3  -8  270.19  185.01
  -8  -3   8  540.11  183.82
  -8  -3   8  382.75  185.43
  -8  -3   8  580.98  177.64
   8   2  -8   18.51   39.86
   8   2  -8    4.39   10.88
  -8  -2  -8   29.02   61.03
   8   2  -8  -12.51   20.40
   8   2  -8  -25.37   38.03
   8   2   8  105.82   58.27
  -8  -2   8   -9.70   28.48
  -8  -2   8    9.06   21.11
   8   2   8    8.42   41.70
  -8  -2   8   26.54   35.97
   8   1  -8   37.85   80.14
   8   1  -8  125.11   59.20
  -8  -1  -8  104.35   76.17
   8   1  -8  119.57   69.65
   8   1  -8  134.46   49.05
  -8  -1   8  129.79   64.89
  -8  -1   8  184.16   60.27
   8   1   8  253.84   61.89
   8   1   8  167.33   85.57
   8   0  -8  201.10   71.64
   8   0  -8  172.17   42.11
   8   0  -8   49.00   51.32
   8   0  -8    5.57   87.19
  -8   0  -8  152.26   62.55
  -8   0   8   70.06   56.92
   8   0   8  106.67   54.11
   8   0   8  201.86   77.62
  -8   0   8  130.24   55.19
   8  -1  -8  123.87   88.44
  -8   1  -8  149.99   64.80
   8  -1  -8  154.48   51.01
   8  -1   8   55.83   78.46
   8  -1   8  190.85   67.34
  -8   1   8  218.30   67.99
  -8   2  -8   13.31   42.79
  -8   2  -8   14.93   44.39
   8  -2   8   -4.69   48.15
   8  -2   8   68.30   48.97
  -8   3  -8  645.95  232.38
  -8   3  -8  697.61  225.71
   8  -3   8  386.20  229.82
   8  -3   8  837.62  222.43
  -8   4  -8   -3.51   40.44
   8  -4   8  -14.90   69.14
   8  -4   8   17.89   58.23
  -8   5  -8   12.02   42.02
   8  -5   8   -1.30   66.99
   8  -5   8  -21.88   92.96
  -8   6  -8   82.83   58.45
   8  -6   8   74.76  115.99
   8  -6   8  133.09   83.06
   7   8  -8   10.24   24.81
   8  -7   8  -34.16   82.16
   8   8  -8  569.25  205.24
   9   8  -8  -17.84   29.82
   9   7  -8  257.22   92.55
   9   7  -8  238.46   88.19
  -9  -7   8  258.68   96.67
   9   6  -8   76.48   36.75
   9   6  -8   44.86   74.80
   9   6  -8  104.21   34.76
  -9  -6   8   72.59   40.59
   9   5  -8   24.17   50.21
   9   5  -8   -6.80   44.24
   9   5  -8   13.45   19.25
   9   5  -8   23.54   21.80
  -9  -5   8   20.98   24.97
  -9  -5   8   -8.09   55.05
  -9  -5   8    2.65   21.90
   9   4  -8   83.62   38.65
   9   4  -8   21.94   38.52
   9   4  -8   43.66   19.97
   9   4  -8   -3.26   24.30
  -9  -4   8   43.63   25.77
  -9  -4   8   16.67   23.82
  -9  -4   8   20.86   46.74
   9   3  -8   74.63   29.11
   9   3  -8   33.58   44.60
   9   3  -8   51.31   22.36
  -9  -3  -8    8.07   71.06
   9   3  -8   53.02   45.77
   9   3   8   22.94   70.35
  -9  -3   8   57.07   29.41
  -9  -3   8   49.93   42.62
  -9  -3   8   10.29   37.24
  -9  -3   8   59.67   28.16
   9   2  -8   15.04   43.87
   9   2  -8   19.73   12.27
  -9  -2  -8   16.93   68.88
   9   2  -8  -89.05   44.66
   9   2  -8    5.07   21.94
  -9  -2   8  -28.08   41.52
  -9  -2   8    4.91   32.17
   9   2   8 -103.45   69.59
   9   2   8   46.38   43.08
  -9  -2   8   31.67   23.97
  -9  -1  -8   25.84   65.62
   9   1  -8    9.08   12.15
   9   1  -8   27.70   49.40
   9   1  -8    5.64   24.05
   9   1  -8   18.37   61.20
  -9  -1   8  -42.33   32.96
   9   1   8   -6.55   39.52
  -9  -1   8   28.08   50.45
   9   1   8  -93.03   69.93
  -9  -1   8   11.50   26.45
  -9   0  -8   21.16   52.10
   9   0  -8   49.73   76.84
   9   0  -8  -10.76   62.31
   9   0  -8   -8.24   12.11
   9   0  -8   -1.07   25.84
   9   0   8  -56.56   63.82
   9   0   8    9.73   39.88
  -9   0   8   -0.89   26.61
  -9   0   8   61.48   36.10
   9  -1  -8    9.59   72.87
  -9   1  -8   13.57   43.47
   9  -1  -8   -3.61   12.08
   9  -1   8    3.11   48.76
   9  -1   8  -13.47   52.90
  -9   1   8   45.33   38.66
   9  -2  -8   44.17   93.95
   9  -2  -8    6.65   16.20
  -9   2  -8    7.81   50.88
  -9   2  -8   20.97   50.77
   9  -2   8  -26.36   55.34
   9  -2   8  -68.07   56.53
  -9   3  -8   60.00   53.87
  -9   3  -8  112.58   66.61
   9  -3   8  150.72   66.91
   9  -3   8   24.81   63.91
  -9   4  -8   87.88   74.80
  -9   4  -8    1.97   46.20
   9  -4   8   17.86   67.03
   9  -4   8   -2.90   76.46
  -9   5  -8   23.96   46.81
   9  -5   8   27.64   76.24
   9  -5   8 -181.16  103.09
  -9   6  -8  100.78   56.47
   9  -6   8 -169.94  123.33
   9  -6   8  152.53   89.79
   9  -7   8  247.69  133.73
  10   8  -8  318.79  118.41
  10   7  -8  153.07   46.85
  10   7  -8   74.85   48.55
 -10  -7   8  124.18   55.42
  10   6  -8   55.60   34.55
  10   6  -8  108.55   32.62
 -10  -6   8   17.05   61.23
 -10  -6   8   50.90   39.37
  10   5  -8  164.47   68.30
  10   5  -8  195.04   75.55
  10   5  -8   44.82   92.53
 -10  -5   8  205.67   77.67
 -10  -5   8  184.80   78.36
 -10  -5   8  261.31  102.31
  10   4  -8  -28.02   45.53
  10   4  -8   18.25   19.57
  10   4  -8    7.84   40.68
  10   4  -8   25.88   25.19
 -10  -4   8   20.57   26.08
 -10  -4   8   18.26   53.29
 -10  -4   8    5.60   24.49
  10   3  -8   11.05   18.09
  10   3  -8   38.57   46.44
  10   3  -8   22.96   25.15
 -10  -3  -8  -60.74   78.10
  10   3  -8   56.47   47.49
  10   3   8    2.32   79.85
 -10  -3   8   13.14   27.50
 -10  -3   8   49.08   39.25
 -10  -3   8   65.39   44.66
  10   3   8   78.30   51.82
 -10  -3   8   16.35   25.63
  10   2  -8   52.59   22.79
  10   2  -8   66.55   58.11
  10   2  -8  -12.20   55.40
  10   2  -8   72.05   31.76
 -10  -2  -8   28.90   81.63
 -10  -2   8   82.19   30.75
 -10  -2   8  -41.66   41.72
  10   2   8   42.13   50.74
 -10  -2   8   82.86   34.38
 -10  -2   8  106.67   51.74
  10   2   8   39.65   82.36
  10   1  -8   -3.29   56.32
  10   1  -8  -68.42   64.77
  10   1  -8   16.08   12.81
 -10  -1  -8   -2.07   68.84
  10   1  -8   12.18   26.35
  10   1   8   49.25   43.64
  10   1   8  -45.97   74.72
 -10  -1   8  -18.07   37.74
 -10  -1   8   -7.99   58.54
 -10  -1   8    6.32   30.04
  10   0  -8  357.40   92.63
  10   0  -8  329.59  105.24
  10   0  -8  146.67   55.54
  10   0  -8   54.72   65.18
 -10   0  -8  204.03   81.21
 -10   0   8  119.64   73.02
 -10   0   8  197.51   69.36
  10   0   8  208.28   72.91
  10   0   8   97.76   90.52
  10  -1  -8   36.07   98.64
 -10   1  -8   36.90   54.90
  10  -1  -8    0.79   15.15
  10  -1  -8  -37.93   83.00
  10  -1   8  129.25   57.58
  10  -1   8   38.04   58.17
 -10   1   8  -23.38   41.07
 -10   2  -8  113.20   62.25
 -10   2  -8   39.86   64.24
  10  -2  -8   45.98   22.95
  10  -2  -8   55.72  105.45
  10  -2   8  -73.82   66.66
  10  -2   8  113.33   68.80
 -10   3  -8   72.56   54.74
 -10   3  -8   12.13   70.43
  10  -3   8   28.84   68.90
  10  -3   8  -54.96   65.79
 -10   4  -8  -10.19   82.77
 -10   4  -8   37.56   52.95
  10  -4   8    4.35   75.86
  10  -4   8   54.32   86.00
  10  -5   8 1003.41  306.40
 -10   6  -8  100.39   60.34
  10  -6   8   -8.68  127.23
  10  -6   8   39.87   99.17
 -10   7  -8   75.05   70.30
  10  -7   8  150.91  110.52
  11   8  -8   33.40   36.61
  11   7  -8   86.72   40.20
  11   7  -8   84.15   41.19
 -11  -7   8   43.25   48.94
  11   6  -8  215.90   71.50
  11   6  -8  230.36   75.47
 -11  -6   8  224.47   79.47
 -11  -6   8  146.93   76.45
  11   5  -8   35.27   30.58
  11   5  -8   55.84   55.49
  11   5  -8   30.99   26.21
  11   5  -8   -1.10   49.14
 -11  -5   8   24.52   28.68
 -11  -5   8   21.78   33.24
 -11  -5   8  -45.88   73.45
  11   4  -8  111.89   53.35
  11   4  -8   68.11   37.83
  11   4  -8    3.46   55.75
  11   4  -8   65.21   32.31
 -11  -4   8   96.57   38.18
 -11  -4   8   63.25   52.14
 -11  -4   8   30.29   66.73
 -11  -4   8   91.41   38.76
  11   3  -8  -83.56   52.73
  11   3  -8   11.43   20.05
 -11  -3  -8  -50.30   90.70
  11   3  -8   43.94   26.19
  11   3  -8    6.35   53.09
 -11  -3   8   11.22   50.42
 -11  -3   8   56.65   27.77
 -11  -3   8   21.08   29.25
 -11  -3   8   13.66   43.78
  11   2  -8  339.08   93.32
  11   2  -8  109.09   90.62
  11   2   8  471.01   92.41
 -11  -2   8  185.62   89.98
 -11  -2   8  118.89   80.26
  11   1  -8  336.17   91.30
  11   1  -8  102.84  125.27
 -11  -1  -8  281.96  130.88
  11   1  -8  256.87  120.28
  11   1  -8  309.21  108.33
 -11  -1   8  262.21  127.80
 -11  -1   8  226.34  104.20
 -11  -1   8  335.01  122.53
  11   0  -8   12.43   92.08
  11   0  -8   -2.34   15.07
  11   0  -8   73.64   75.41
  11   0  -8   12.68   29.07
 -11   0   8  -56.68   44.88
 -11   0   8   -1.03   31.26
  11  -1  -8  190.76  136.01
  11  -1  -8  446.23   79.13
  11  -1  -8  177.13  141.67
 -11   1  -8 -187.77  124.34
 -11   1   8  229.63   99.72
  11  -2  -8   23.56  119.37
  11  -2  -8   40.16   27.36
 -11   3  -8    7.45   68.22
 -11   3  -8 -203.26   91.11
 -11   4  -8  210.61   63.99
 -11   4  -8  136.56  100.58
  11  -4   8 -138.61   98.68
  11  -4   8  -49.51   89.03
 -11   5  -8 -131.43  118.41
 -11   5  -8   62.56   59.63
  11  -5   8  -21.07  119.59
  11  -5   8   79.94   97.17
 -11   6  -8   69.62   75.12
  11  -6   8  131.71  139.99
  11  -6   8  -11.99  117.97
 -11   7  -8  114.59   71.52
  11  -7   8   19.51  116.59
  12   8  -8   78.90   46.27
  12   7  -8   38.11   33.24
  12   7  -8  -16.85   30.51
 -12  -7   8    0.98   35.35
 -12  -7   8   25.69   46.33
  12   6  -8    9.15   33.32
  12   6  -8   12.97   29.76
 -12  -6   8   33.13   38.98
 -12  -6   8   17.69   32.41
  12   5  -8  -11.51   27.53
  12   5  -8  -27.31   33.36
 -12  -5   8   -9.16   35.07
 -12  -5   8  -46.86   31.98
 -12  -5   8   33.93   81.35
  12   4  -8    3.31   58.27
  12   4  -8   19.27   24.09
  12   4  -8  -15.96   50.45
  12   4  -8    9.47   30.70
 -12  -4   8   45.18   31.22
 -12  -4   8   -8.60   52.72
 -12  -4   8  -49.02   33.49
 -12  -4   8  -12.60   70.96
  12   3  -8   26.98   21.41
  12   3  -8    6.10   31.29
  12   3  -8  -20.46   57.64
 -12  -3  -8  -58.56  102.32
  12   3  -8   41.41   58.18
 -12  -3   8   25.45   57.09
 -12  -3   8   58.04   32.67
  12   3   8  -40.48   61.84
 -12  -3   8   24.88   31.19
 -12  -3   8    8.62   50.33
  12   2  -8  373.38  132.68
  12   2  -8  116.87  133.20
 -12  -2  -8  284.05  154.29
  12   2  -8  430.76  106.92
  12   2  -8  222.80  119.77
 -12  -2   8  253.59  118.16
  12   2   8  321.25  121.84
 -12  -2   8  450.03  120.50
 -12  -2   8  273.64  137.15
  12   2   8  120.31  159.73
 -12  -2   8  538.38  132.24
  12   1  -8  -28.18   74.77
  12   1  -8  -59.81   79.56
 -12  -1  -8   -2.63   90.71
  12   1   8    5.36   86.58
 -12  -1   8  -20.27   45.87
 -12  -1   8  -33.66   72.47
 -12  -1   8    6.32   34.27
  12   1   8   30.00   56.36
 -12   0  -8 1208.44  338.76
  12   0  -8  629.79  357.13
  12   0  -8  852.50  354.65
 -12   0   8  504.83  324.88
  12   0   8  556.26  365.80
 -12   0   8 1304.84  368.90
  12   0   8 1027.57  318.32
  12  -1  -8  -12.09  103.87
  12  -1  -8 -145.05  104.71
 -12   1  -8  -55.72   81.62
 -12   1  -8   35.38   79.22
  12  -1   8  201.80   80.93
  12  -1   8  103.93   81.36
 -12   1   8   11.74   50.91
  12  -2  -8  416.43  195.34
 -12   2  -8  559.94  166.79
 -12   2  -8  640.67  167.49
 -12   2   8  441.48  149.40
  12  -2   8   77.52  165.48
 -12   3  -8   68.11   93.79
 -12   3  -8   94.84   73.79
  12  -3   8 -169.21   91.14
  12  -3   8  -38.07   87.76
 -12   4  -8  138.80   69.50
 -12   4  -8  -26.10  115.73
  12  -4   8  -81.46   97.79
 -12   5  -8  131.33  131.97
  12  -5   8   44.65  108.38
  12  -8   8  -22.79  130.34
  13   9  -8   16.86   43.89
 -13  -7   8   34.89   45.44
 -13  -7   8  158.85   55.67
 -13  -5   8  -62.09   79.92
  13   4  -8   65.57   54.71
  13   4  -8  -25.12   66.68
 -13  -4  -8  -44.25  114.30
 -13  -4   8   11.69   56.81
 -13  -4   8   62.82   78.91
  13   3  -8  153.12   68.77
  13   3  -8   11.98   69.91
 -13  -3   8   70.10   58.97
 -13  -3   8   23.67   72.20
  13   2  -8  -25.76   81.41
  13   2  -8   95.34   80.62
 -13  -2   8    9.85   55.18
 -13  -2   8  115.32   71.57
  13   2   8    6.49  102.60
  13   1  -8  174.15  152.60
  13   1  -8  419.63  149.50
 -13  -1   8  245.12  128.21
 -13  -1   8  545.87  152.42
  13   0  -8  -34.96   97.53
  13   0  -8 -147.54  106.32
 -13   0   8  -36.12  101.10
 -13   0   8   51.10   52.63
  13  -1  -8  474.33  163.27
  13  -1  -8  123.65  157.28
 -13   1   8  212.40  115.48
  13  -2  -8 -202.45  142.99
 -13   2   8   28.76   54.37
  13  -3  -8  148.27  170.04
 -13   4  -8   46.64   75.12
  13  -4   8 -132.82  119.48
 -13   5  -8  809.99  292.08
  13  -5   8  886.22  275.37
 -13   6  -8  -31.18   81.25
 -13   6  -8   -7.42  160.33
  13  -6   8 -226.83  133.41
 -13   7  -8   -3.80   77.59
  13  -7   8  208.28  142.54
  13  -8   8 -342.65  170.55
 -14  -4  -8  119.12  132.20
 -14  -4   8   50.75   69.25
 -14  -4   8   31.80   90.31
 -14  -3  -8   42.18  134.36
 -14  -3   8  -58.89   84.36
  14   3   8  -50.81   74.57
 -14  -3   8   41.57   65.71
  14   2  -8  811.51  223.31
 -14  -2  -8  196.04  245.47
 -14  -2   8  101.05  195.88
 -14  -1  -8  139.30  132.13
  14   1  -8  400.80  110.41
  14   1  -8   23.36  111.21
 -14  -1   8  368.94   73.60
  14   1   8 -133.44   88.60
 -14  -1   8   -8.43  104.69
  14   0  -8 -193.34  113.26
 -14   0  -8   14.93  113.03
 -14   0   8   94.40  107.68
 -14   1  -8  -34.90  141.58
 -14   1  -8   93.33  118.89
 -14   4  -8  284.65  148.18
 -14   4  -8   10.28   83.80
  14  -4   8   42.69  134.38
  14  -4   8  -40.85  129.12
 -14   5  -8  103.34   96.93
 -14   5  -8  422.47  172.44
  14  -5   8  -39.28  168.74
  14  -5   8  174.26  144.03
 -14   6  -8  -48.99  174.82
 -14   6  -8  -68.51   78.89
  14  -6   8 -189.73  164.16
  14  -6   8  118.84  137.72
 -14   7  -8   49.28   82.70
  14  -7   8  -71.44  149.29
  14  -7   8  205.73  175.57
  14  -8   8   30.15  154.69
 -15  -4  -8 -204.63  142.33
  15   4   8    3.77  148.39
 -15  -3  -8   84.75  148.32
  15   3   8    2.00   79.36
 -15  -2  -8  123.86  143.78
 -15  -2   8   45.94   66.02
  15   2   8   -9.32   79.01
 -15  -1  -8  -58.08  132.19
  15   1  -8  120.22  117.68
 -15  -1   8  -89.55   63.70
  15   1   8  -84.60   78.69
  15   1   8    4.63   95.65
 -15   0  -8  141.15  132.62
 -15   0  -8  -51.43  137.36
  15   0  -8   13.24  129.56
 -15   0   8   21.32   75.44
  15   0   8   10.09  117.50
  15   0   8    3.62   94.87
 -15   1  -8 -187.24  137.83
 -15   1  -8  -59.73  123.20
  15  -1  -8   -5.28  137.46
  15  -1  -8 -137.51  127.79
 -15   1   8  235.15  149.21
 -15   1   8    2.90   61.06
 -15   2  -8   18.86  123.85
 -15   2  -8    7.81  113.76
  15  -2  -8 -288.79  166.57
  15  -2   8  -81.95  109.71
 -15   2   8   16.09   65.23
  15  -2   8  -79.49  124.92
 -15   3  -8  209.20  140.02
 -15   3  -8  -15.48  101.92
  15  -3  -8 -258.25  191.86
  15  -3   8  -97.21  135.26
  15  -3   8   -1.56  125.72
 -15   4  -8   41.04  154.91
 -15   4  -8   -3.84   94.97
  15  -4   8  -92.52  148.01
  15  -4   8   56.17  134.94
 -15   5  -8  123.55  176.74
 -15   5  -8  163.19   93.45
  15  -5   8  -85.00  144.61
  15  -5   8 -187.59  171.26
 -15   6  -8  155.52   91.75
 -15   6  -8 -194.10  196.01
  15  -6   8  102.91  177.70
  15  -6   8 -186.65  154.83
 -15   7  -8  348.14  266.90
 -15   7  -8  171.07  160.83
  15  -7   8  506.37  216.32
  15  -7   8  563.36  234.83
  15  -8   8   39.56  167.98
 -16  -4  -8  422.16  177.24
  16   4   8 -359.66  169.13
 -16  -3  -8   26.41  176.65
  16   3   8 -106.21   95.72
 -16  -3   8 -250.52   89.01
  16   2  -8   92.02  105.78
 -16  -2  -8  160.43  169.11
  16   2  -8  -46.91  110.23
 -16  -2   8 -125.33  102.95
 -16  -2   8  173.31   72.00
  16   2   8   24.94   88.86
  16   1  -8   75.85  125.44
 -16  -1  -8   26.57  153.46
  16   1  -8   22.36  127.59
  16   1   8  -49.50  113.53
  16   1   8    1.98   86.51
 -16  -1   8   63.73   67.01
 -16  -1   8   26.23  113.36
 -16   0  -8  270.95  130.36
  16   0  -8   90.10  132.46
 -16   0  -8   62.96  143.67
  16   0  -8  -36.07  132.99
 -16   0   8 -162.52  127.06
  16   0   8   22.50   92.06
 -16   0   8  -29.36   69.59
  16   0   8    1.42  116.04
  16  -1  -8  -82.01  152.69
 -16   1  -8  -15.33  143.69
 -16   1  -8 -100.37  121.57
  16  -1  -8  -35.95  139.05
 -16   1   8  125.95   68.74
  16  -1   8   -6.82  106.88
  16  -1   8   14.50  116.93
 -16   1   8   64.03  159.93
 -16   2  -8 -269.12  124.56
  16  -2  -8    6.83  181.90
 -16   2  -8   44.26  140.18
 -16   2   8 -209.92  184.36
 -16   2   8    3.45   72.38
  16  -2   8 -225.22  124.58
  16  -2   8   73.96  122.18
  16  -3  -8 -379.17  216.41
 -16   3  -8  -46.34  160.72
 -16   3  -8  -64.65  118.25
  16  -3   8 -224.10  153.55
  16  -3   8   25.54  162.96
 -16   4  -8    4.18  213.99
 -16   4  -8  159.15  158.45
  16  -4   8  564.68  202.01
  16  -4   8  680.41  206.08
 -16   5  -8  -57.88  107.05
 -16   5  -8 -206.29  197.58
  16  -5   8  -29.71  189.16
  16  -5   8 -293.14  169.04
 -16   6  -8  298.14  107.82
 -16   6  -8  -49.70  217.62
  16  -6   8   13.25  169.91
  16  -6   8 -136.10  192.82
 -16   7  -8  -49.15   96.02
 -16   7  -8  138.16  232.92
  16  -7   8 -256.16  177.44
 -16   8  -8  100.12  266.70
  16  -8   8  318.31  206.20
 -17  -4  -8  193.46  199.68
  17   4   8  289.39  180.62
 -17  -3  -8 -214.31  196.64
  17   3   8  -12.31  101.29
  17   3   8    3.27  141.00
 -17  -2  -8  153.30  195.04
  17   2  -8  128.91  110.73
  17   2  -8   64.04  123.75
 -17  -2   8   -2.99   78.47
  17   2   8  121.00  100.06
 -17  -2   8  -98.58  111.50
 -17  -1  -8  171.59  145.78
 -17  -1  -8 -326.01  193.16
  17   1  -8   68.74  136.89
  17   1  -8   22.85  144.66
 -17  -1   8  -30.59   74.75
  17   1   8   -2.30   96.13
 -17  -1   8  -96.97  122.47
  17   0  -8  152.02  152.95
 -17   0  -8   48.65  136.56
 -17   0  -8 -217.58  178.45
  17   0  -8   49.29  149.26
  17   0   8  -32.09  103.38
 -17   0   8   96.32   73.42
 -17   0   8  -73.21  146.44
  17   0   8  -40.15  133.25
 -17   1  -8   -4.86  131.21
  17  -1  -8  101.59  149.79
 -17   1  -8  -30.75  166.52
  17  -1  -8 -201.60  174.42
  17  -1   8  -42.15  115.14
 -17   1   8  -58.47   75.29
 -17   1   8  -77.54  168.69
  17  -1   8  -29.73  125.59
  17  -2  -8  -86.92  231.31
 -17   2  -8  -62.99  156.57
 -17   2  -8   62.32  124.93
 -17   2   8   11.17   79.56
  17  -2   8 -183.32  138.44
  17  -2   8 -100.91  148.87
 -17   2   8  523.67  210.53
 -17   3  -8 -357.45  187.98
 -17   3  -8  -42.62  126.92
  17  -3   8 -179.85  171.76
  17  -3   8 -237.73  166.21
 -17   3   8  -89.96  238.24
 -17   4  -8  -66.65  115.93
 -17   4  -8 -146.99  200.90
  17  -4   8  -62.26  178.76
  17  -4   8   71.21  177.67
 -17   5  -8   76.82  217.42
 -17   5  -8   39.36  115.40
  17  -5   8  -53.42  175.86
  17  -5   8 -119.57  206.58
 -17   6  -8  153.47  232.60
 -17   6  -8 -138.36  111.34
  17  -6   8   74.03  185.14
  17  -6   8  198.42  209.33
 -17   7  -8  221.45  249.79
 -17   7  -8   43.41  113.17
 -18  -4  -8 -590.56  226.84
  18   4   8 -177.02  175.66
 -18  -3  -8 -175.19  210.26
  18   3   8  187.74  139.54
  18   3   8 -173.02  114.10
 -18  -2  -8 -174.76  229.41
 -18  -2   8   29.14  129.43
  18   2   8  -43.34  116.05
 -18  -2   8   62.98   82.30
 -18  -1  -8  412.40  221.90
  18   1  -8   99.53  148.25
  18   1  -8  101.45  160.35
 -18  -1   8  -61.81   85.52
  18   1   8 -205.59  115.99
 -18  -1   8   -6.67  138.43
  18   0  -8   97.22  174.62
  18   0  -8  250.65  161.35
 -18   0  -8  -87.02  155.94
 -18   0  -8  200.91  202.99
 -18   0   8   11.13  155.58
  18   0   8  -25.93  117.57
  18   0   8  -55.38  146.42
 -18   0   8   17.81   83.35
  18  -1  -8  150.64  165.85
 -18   1  -8 -304.65  207.04
 -18   1  -8  -43.25  144.84
  18  -1  -8   36.61  193.46
  18  -1   8 -103.77  127.78
 -18   1   8   56.22   81.62
 -18   1   8 -106.06  183.06
  18  -1   8 -128.25  142.50
  18  -2  -8 -317.38  219.13
 -18   2  -8   32.11  136.10
 -18   2  -8  -20.29  192.15
  18  -2   8    8.26  168.10
 -18   2   8   56.63   84.29
 -18   2   8   69.07  219.84
  18  -2   8  -55.62  145.11
 -18   3  -8 -217.07  206.56
  18  -3  -8 -246.81  248.78
 -18   3  -8 -106.14  132.45
  18  -3   8  287.58  178.84
 -18   3   8 -233.03  250.10
  18  -3   8   14.08  181.60
 -18   4  -8 -192.64  148.66
 -18   4  -8  199.04  224.17
  18  -5   8 6784.86 2033.04
 -18   6  -8 -228.72  144.31
 -18   6  -8 -473.07  277.08
  18  -6   8 -314.60  232.91
 -18   7  -8   54.17  122.02
 -18   7  -8  -38.36  274.84
  18  -7   8 -167.56  223.08
 -19  -4  -8    7.66  230.57
  19   4   8  117.76  174.40
 -19  -3  -8  -61.28  247.99
  19   3   8  -33.67  167.90
  19   3   8   40.95  134.05
 -19  -2  -8   23.05  261.18
  19   2   8 -264.81  137.05
  19   1  -8  109.82  158.90
 -19  -1  -8   -7.19  260.67
  19   1   8   49.99  137.12
 -19  -1   8  -91.44   93.07
 -19  -1   8   -7.63  157.89
 -19   0  -8 -639.38  273.65
  19   0  -8   30.59  201.29
  19   0  -8 -349.13  185.06
 -19   0  -8 -175.84  181.36
 -19   0   8 -227.67  184.07
 -19   0   8  -95.13   98.18
  19   0   8 -183.81  150.60
 -19   1  -8 -179.50  169.95
 -19   1  -8 -275.45  251.94
  19  -1  -8 -177.32  218.95
  19  -1  -8 -172.71  185.15
 -19   1   8 -475.85  209.66
  19  -1   8 -130.92  150.41
 -19   1   8   -4.14   95.53
  19  -1   8 -167.89  179.13
 -19   2  -8  -80.10  237.43
 -19   2  -8   83.31  161.61
  19  -2  -8   22.80  238.13
  19  -2   8  188.19  165.49
 -19   2   8   17.69   89.14
 -19   2   8 -294.30  236.81
  19  -2   8   36.37  199.42
 -19   3  -8   17.62  157.93
 -19   3  -8   58.86  234.32
  19  -3  -8 -297.30  276.09
  19  -3   8  -35.01  189.67
 -19   3   8  202.96  269.92
  19  -3   8  499.70  214.71
 -19   4  -8  -83.23  142.35
 -19   4  -8    6.18  248.55
  19  -4   8   57.26  239.29
  19  -4   8 -342.89  235.06
 -19   5  -8  294.62  143.24
 -19   5  -8 -269.17  276.63
  19  -5   8   14.53  245.78
  19  -5   8  138.43  250.86
 -19   6  -8   40.45  285.29
 -19   6  -8   76.82  148.07
  19  -6   8  471.99  257.98
  20   1   8 -155.46  157.70
  20   0  -8  -74.80  189.95
  20   0  -8   53.35  227.21
  20   0   8 -131.42  159.92
 -20   0   8 -257.11  199.83
 -20   0   8  -17.51  101.21
  20  -1  -8  171.79  251.12
  20  -1  -8   53.92  198.31
 -20   1   8 -129.39  218.12
  20  -1   8 -116.65  166.81
 -20   1   8  192.89   99.68
  20  -2  -8  189.83  264.34
 -20   2   8    9.72  101.67
 -20   2   8  355.67  256.52
 -21   0   8   93.17  109.44
  21  -1  -8 -267.86  293.32
 -21   1   8  -28.75  241.50
   0   0  -9   -1.80    5.92
   0   0  -9   -7.83   15.00
   0   0   9    4.28   12.35
   1   0  -9  875.42  287.24
   0   1  -9  972.55  286.93
   0  -1   9 1043.69  288.91
  -1   0   9  825.10  290.39
  -1   1  -9   -3.09   14.29
   1   1  -9   -1.28   14.45
  -1   1  -9   -3.76    4.91
   1  -1   9  -10.94   19.66
  -1  -1   9    0.95   12.53
   1  -1   9    1.31   12.50
  -1   2  -9   53.37   16.23
  -1   2  -9   29.30   27.10
  -1   2  -9   46.57   21.08
   1  -2   9   28.09   22.27
   1  -2   9   45.40   26.58
   1  -2   9   48.70   20.30
  -2   0  -9    2.34    6.01
   0   2  -9   11.20    5.94
   0   2  -9   -3.03   13.14
   0  -2   9    0.73   11.19
  -2   1  -9    1.79   31.82
  -2   1  -9   67.37   23.81
  -2   1  -9   58.79   17.30
   2  -1   9   38.35   30.23
   2  -1   9   49.47   22.93
  -2   2  -9    4.70    5.28
  -2   2  -9    8.57   17.02
   2   2  -9   -2.12    6.62
  -2   2  -9   -2.34   12.69
   2  -2   9    4.93   15.57
   2  -2   9   -2.75   22.75
   2  -2   9   -3.96   11.63
   3   2  -9   74.59   26.29
  -2   3  -9   62.87   27.87
  -2   3  -9   50.87   24.78
  -2   3  -9   61.56   26.04
  -2   3  -9   47.60   20.87
   3   2  -9   42.02   25.76
   2  -3   9   37.49   37.47
   2  -3   9   70.78   28.16
   2  -3   9   54.73   22.14
   2  -3   9   58.45   23.66
  -3  -2   9   64.56   25.75
  -1   3  -9   88.44   28.50
   3   1  -9   49.43   25.24
  -1   3  -9   78.95   27.89
  -1   3  -9   86.26   31.40
  -1   3  -9   93.77   25.30
   1  -3   9   58.12   28.94
   1  -3   9  111.62   45.65
   1  -3   9   70.61   26.44
   1  -3   9   68.96   27.60
  -3   0  -9   16.61   11.18
   3   0  -9   42.22   12.32
   0   3  -9   22.34   15.09
   3   0   9   61.31   29.22
  -3   1  -9   34.97   36.60
  -3   1  -9   56.89   21.20
  -3   1  -9   45.26   28.28
   3  -1   9   52.38   26.97
   3  -1   9   65.40   39.16
   3  -1   9   60.60   29.90
  -3   2  -9   83.82   28.88
   2   3  -9   92.55   23.61
   2   3  -9  105.79   27.27
  -3   2  -9   53.76   28.64
  -3   2  -9   64.83   23.50
   3  -2   9   88.89   27.90
   3  -2   9   32.50   30.97
  -2  -3   9   64.98   26.15
   3  -2   9   21.90   36.40
  -3   3  -9   -3.01   18.28
  -3   3  -9   17.70   19.83
  -3   3  -9   -2.92    6.49
   3   3  -9    0.77    9.01
   3   3  -9   -3.46   16.75
  -3   3  -9   -1.15   11.04
   3   3  -9    0.55   12.85
   3  -3   9   10.62   22.24
  -3  -3   9   -0.57   12.02
  -3  -3   9    5.34   10.58
  -3  -3   9   -1.57   11.28
   3  -3   9   -2.85    7.37
   3  -3   9   -3.03    9.31
   3  -3   9   -4.14   26.26
  -3   4  -9  232.51   58.79
   4   3  -9   95.16   59.80
   4   3  -9  123.26   52.09
  -3   4  -9  142.13   52.35
   4   3  -9  116.67   58.51
  -3   4  -9  197.20   48.28
   4   3  -9  138.43   47.06
  -4  -3   9  164.93   53.92
   3  -4   9   83.34   49.74
  -4  -3   9  140.71   51.63
   3  -4   9  202.55   80.97
   3  -4   9  141.49   58.95
  -4  -3   9  102.28   54.16
  -2   4  -9    0.55    7.05
  -2   4  -9    2.69    9.86
   4   2  -9    2.27   18.00
   4   2  -9    3.41    7.21
   4   2  -9    3.89   16.38
  -2   4  -9   15.58   28.38
   4   2  -9   -4.35   43.46
   2  -4   9    3.11    9.00
  -4  -2   9   13.62   17.24
  -4  -2   9    6.86   14.33
   2  -4   9  -16.82   23.04
  -4  -2   9    6.77   17.76
   4   1  -9  124.02   31.23
   4   1  -9  103.52   38.01
   4   1  -9   50.56   41.85
  -4  -1   9   51.99   38.32
   1  -4   9  113.89   38.28
   4   0  -9    6.31   18.65
  -4   0  -9   -5.27   33.74
  -4   0  -9   -4.74    5.33
   4   0  -9   -3.69    7.31
   0   4  -9    2.21    8.39
   0  -4   9   -2.85   10.18
  -4   0   9   -1.33   17.21
   0  -4   9    7.92   12.23
   4   0   9   13.18   26.58
  -4   1  -9   82.33   37.95
   1   4  -9   72.82   27.17
   1   4  -9   74.96   29.77
  -4   1  -9   91.80   28.22
  -1  -4   9   64.00   28.76
   4  -1   9   70.12   34.76
   2   4  -9    5.44    9.47
  -4   2  -9    5.80   18.85
   2   4  -9   -0.49   11.18
  -4   2  -9    6.88   13.30
  -4   2  -9    6.65    4.87
   4  -2   9   -8.43   25.47
   4  -2   9    9.34   11.74
  -2  -4   9   12.11   11.42
   3   4  -9  109.83   58.58
  -4   3  -9  207.09   59.80
  -4   3  -9  165.87   57.91
  -4   3  -9  117.19   50.97
   3   4  -9  143.69   53.49
  -4   3  -9  128.55   58.40
   4  -3   9  204.81   55.17
   4  -3   9  161.14   59.19
   4  -3   9  153.82   52.08
   4   4  -9   -4.01    9.71
  -4   4  -9    1.03   10.40
   4   4  -9  -10.83   21.02
  -4   4  -9    0.62    9.65
   4   4  -9   -7.70   13.30
   4  -4   9   -5.94   11.31
  -4  -4   9   -1.92   13.74
   4  -4   9   -3.88   34.10
   5   4  -9  341.11   93.22
   5   4  -9  302.19   99.57
  -4   5  -9  367.72  105.76
   5   4  -9   47.20  113.69
  -5  -4   9  343.57   98.58
  -5  -4   9  256.78  101.07
   5   3  -9  568.85  178.46
   5   3  -9  660.08  211.70
   5   3  -9  322.26  208.31
  -5  -3   9  525.92  194.00
   3  -5   9  642.25  211.99
  -5  -3   9  526.60  196.09
  -5  -3   9  613.60  197.21
   5   2  -9  169.62   90.71
   5   2  -9  292.04   86.99
   5   2  -9  228.94  113.38
   5   2  -9  240.01   77.61
  -5  -2   9  228.35   90.70
  -5  -2   9  221.43   91.53
   2  -5   9  234.77   96.79
  -5  -2   9  255.48   89.77
   5   1  -9  194.30   67.40
  -1   5  -9  264.79   74.29
  -1   5  -9  205.74   69.28
  -5  -1  -9  -13.70   87.82
   5   1  -9  169.12   82.17
   5   1  -9  213.98   79.64
  -5  -1   9  244.25   84.35
   1  -5   9  244.29   71.89
  -5  -1   9  276.72   86.44
   5   1   9  223.45   89.81
   5   0  -9  131.61   57.74
   0   5  -9  170.02   53.73
  -5   0  -9  128.10   66.02
   0   5  -9  154.39   52.45
   5   0  -9  207.95   51.97
   0  -5   9  179.40   53.36
  -5   0   9  133.16   58.84
   5   0   9  240.51   67.25
  -5   1  -9  256.66   77.44
   1   5  -9  221.08   77.10
   5  -1  -9  138.90   74.64
   1   5  -9  282.78   73.17
   5  -1   9  179.57   98.26
  -1  -5   9  221.79   75.55
   2   5  -9  228.29   81.90
  -5   2  -9  245.05   83.30
   2   5  -9  257.31   86.15
  -5   2  -9  344.19   96.19
  -2  -5   9  178.32   84.95
   5  -2   9  249.04   84.51
   5  -2   9  253.39   96.90
  -5   3  -9  434.37  189.07
  -5   3  -9  627.16  213.53
   3   5  -9  533.39  191.46
  -5   3  -9  586.91  207.34
   3   5  -9  589.64  237.02
   5  -3   9  531.94  204.96
   5  -3   9  547.06  194.12
   5  -3   9  614.25  214.90
   4   5  -9  332.24  110.88
  -5   4  -9  363.74  121.82
   4   5  -9  292.24  115.04
  -5   4  -9  376.87  123.41
   4   5  -9  324.25  133.56
  -4  -5   9  407.19  114.75
   5   5  -9   -1.81   13.65
  -5   5  -9    9.56   11.74
   5   5  -9    5.81   16.36
  -5   5  -9   -1.74   36.74
  -5  -5   9   -1.60   17.17
   6   5  -9  -45.76   39.97
   6   5  -9   29.58   20.22
   6   5  -9   54.28   18.30
  -6  -5   9    6.94   22.94
   5  -6   9   76.53   52.15
   6   4  -9  508.41  130.35
   6   4  -9  358.92  168.92
   6   4  -9  491.15  142.54
   6   4  -9  167.32  153.00
  -6  -4   9  221.90  153.80
  -6  -4   9  512.96  144.93
   6   3  -9  687.76  212.77
   6   3  -9  709.20  225.90
  -3   6  -9  610.86  230.29
  -6  -3   9  803.99  222.74
  -6  -3   9  692.22  227.63
  -6  -3   9  597.67  230.65
   6   2  -9  491.59  114.85
   6   2  -9  320.32  131.19
   6   2  -9  357.82  126.61
  -2   6  -9  334.26  126.53
   6   2  -9  212.84  149.10
  -6  -2   9  356.27  131.24
  -6  -2   9  327.20  131.97
  -6  -2   9  410.15  129.23
  -1   6  -9  245.41   89.68
   6   1  -9  261.47   93.65
  -1   6  -9  257.05   85.47
   6   1  -9  223.19   96.80
  -6  -1  -9   80.59  102.89
   6   1  -9  531.50  121.38
   6   1  -9  293.64   83.57
   6   1   9  295.61  104.99
   6   1   9  306.52   94.30
   1  -6   9  237.72   88.33
  -6  -1   9  209.76   98.25
  -6  -1   9  316.87   97.54
   0   6  -9   -4.05   12.84
  -6   0  -9  -23.20   41.90
   6   0  -9   -5.97   21.98
   0   6  -9    0.59   12.71
   6   0  -9   -1.73    8.41
  -6   0  -9    1.90    4.91
  -6   0   9  -12.29   19.65
   6   0   9   23.09   46.59
   0  -6   9    1.66   16.29
   6   0   9   -2.61   29.40
   1   6  -9  244.14   78.33
   1   6  -9  241.78   82.17
  -6   1  -9  186.35   80.93
  -6   1  -9  266.93   87.11
   6  -1  -9  179.71   79.04
   6  -1   9  322.57   84.51
   6  -1   9  182.13  102.00
  -1  -6   9  223.01   81.19
   2   6  -9  363.51  128.39
  -6   2  -9  396.79  132.73
  -6   2  -9  349.20  125.78
   6  -2   9  353.96  127.36
   6  -2   9  345.46  146.03
   6  -2   9  421.35  132.89
  -6   3  -9  608.82  203.67
  -6   3  -9  543.10  201.15
  -6   3  -9  625.81  208.49
   3   6  -9  489.94  183.87
   6  -3   9  317.72  191.98
   6  -3   9  596.99  203.49
  -3  -6   9  493.98  181.74
   4   6  -9  552.46  177.93
   4   6  -9  556.54  222.58
  -6   4  -9  599.48  187.05
  -6   4  -9  574.86  197.03
   4   6  -9  558.61  170.36
   6  -4   9  677.84  194.32
   6  -4   9  225.12  205.25
   5   6  -9   63.67   44.53
   5   6  -9   52.74   23.71
   5   6  -9   15.64   21.53
  -6   5  -9   35.07   38.59
  -6   5  -9   57.92   20.91
   6  -5   9   51.80   80.23
  -5  -6   9   54.03   25.67
   6  -5   9   46.60   54.92
  -6   6  -9  -32.78   42.93
  -6   6  -9    5.74   13.30
   6   6  -9    3.56   16.29
   6   6  -9  -10.63   19.20
   6  -6   9  -45.42   56.79
  -6  -6   9   27.36   21.45
   7   6  -9   16.42   18.32
   7   6  -9   -3.23   21.04
   6  -7   9   48.58   62.35
  -7  -6   9    7.83   24.21
   7   5  -9  280.26   92.43
   7   5  -9  274.27   98.03
   5  -7   9  333.22  120.74
  -7  -5   9  192.83   98.56
   7   4  -9   -9.49   14.35
   7   4  -9    6.56   19.47
  -7  -4   9   17.59   18.61
  -7  -4   9   -4.98   17.39
   7   3  -9 1483.17  615.64
   7   3  -9 1662.43  569.98
  -7  -3   9 2213.03  606.68
  -7  -3   9 1659.35  630.25
   7   2  -9    4.78   20.95
   7   2  -9   12.69   10.98
  -7  -2  -9    2.21   55.56
  -7  -2   9   18.92   21.07
   7   2   9   76.92   52.46
  -7  -1  -9  158.41  166.67
  -1   7  -9  428.66  154.49
   7   1  -9  443.60  140.61
   7   1  -9  473.49  162.97
   7   1   9  400.97  179.28
  -7  -1   9  550.39  164.99
  -7  -1   9  448.27  176.16
   7   1   9  550.54  153.78
   7   0  -9  -45.06   28.82
  -7   0  -9   27.97   45.14
  -7   0  -9   -2.72    4.29
   7   0  -9   -1.25   10.34
   0   7  -9    6.66   15.17
  -7   0   9  -90.11   36.04
  -7   0   9  -12.44   26.61
   7   0   9  -76.23   35.73
   1   7  -9  433.88  152.65
  -7   1  -9  451.08  155.32
   7  -1  -9  164.19  186.04
  -1  -7   9  409.88  150.44
   7  -1   9  531.07  151.60
   2   7  -9   11.36   16.64
   2   7  -9   28.71   18.27
  -7   2  -9    8.20   35.07
  -2  -7   9   -2.16   21.34
   7  -2   9   58.96   44.18
   7  -2   9  -50.96   41.28
   3   7  -9 1632.38  511.22
  -7   3  -9 1897.06  603.61
  -7   3  -9 1349.67  594.31
   3   7  -9 1546.13  547.45
  -3  -7   9 1656.82  538.58
   7  -3   9 1862.94  567.83
   7  -3   9  826.06  614.24
  -7   4  -9    1.58   36.01
   4   7  -9    1.58   18.51
  -7   4  -9   -8.79   51.69
   7  -4   9    0.77   61.88
   7  -4   9  -44.35   50.36
   5   7  -9  311.55  100.79
   5   7  -9  256.18  105.33
  -7   5  -9  254.15  115.45
   7  -5   9  372.86  128.98
  -5  -7   9  271.11  106.26
   7  -5   9  394.73  143.22
   6   7  -9   12.78   19.88
   6   7  -9   -0.86   21.67
  -7   6  -9   -9.58   43.85
   7  -6   9   80.50  103.59
  -6  -7   9   -4.86   24.30
   7  -6   9  -11.29   64.24
   7   7  -9  -10.88   23.84
   7   7  -9   15.03   24.37
   7  -7   9   78.89   72.01
  -7  -7   9   14.32   26.26
   8   7  -9  368.66   99.96
   8   7  -9  242.11  104.57
  -8  -7   9  264.86  107.39
   8   6  -9   75.85   32.51
   8   6  -9   43.16   30.11
  -8  -6   9   83.62   36.54
   8   5  -9    0.43   40.15
   8   5  -9  -19.65   37.75
   8   5  -9   14.47   19.34
   8   5  -9  -19.82   21.22
  -8  -5   9   -5.14   21.37
  -8  -5   9    4.17   23.87
  -8  -5   9   -3.95   42.61
   8   4  -9    5.27   42.30
   8   4  -9   94.90   43.85
   8   4  -9  126.21   35.28
   8   4  -9   76.25   29.31
  -8  -4   9   53.83   50.53
  -8  -4   9   75.54   34.11
  -8  -4   9   65.77   34.53
   8   3  -9   -1.50   38.84
   8   3  -9   20.12   14.38
   8   3  -9   -9.69   36.24
   8   3  -9   14.77   22.89
  -8  -3   9   22.63   21.79
  -8  -3   9   47.61   29.80
  -8  -3   9    0.76   33.48
  -8  -3   9   30.21   20.59
  -8  -2  -9   28.08  109.68
   8   2  -9  234.45   96.97
   8   2  -9  149.87  105.78
   8   2  -9  231.48   90.95
   8   2  -9  249.24   78.99
  -8  -2   9  250.14   90.63
  -8  -2   9  267.58   97.82
   8   2   9  321.39   94.35
  -8  -2   9  248.15   96.47
   8   2   9  255.56  113.40
  -8  -1  -9  186.55   84.46
   8   1  -9  180.61   74.76
   8   1  -9  123.35   64.84
   8   1  -9  196.55   53.91
   8   1  -9   93.50   94.83
   8   1   9  147.39   88.99
   8   1   9  177.46   66.91
  -8  -1   9   84.29   70.63
  -8  -1   9  197.37   67.27
   8   0  -9   -9.62   11.90
   8   0  -9  -39.62   56.07
   8   0  -9    8.81   25.07
  -8   0  -9    7.32   47.73
   8   0  -9  -16.72   80.48
   8   0   9   23.20   34.72
   8   0   9  -79.87   61.78
  -8   0   9    8.01   25.61
  -8   0   9   38.10   34.07
   8  -1  -9  120.32   96.93
  -8   1  -9  176.16   72.88
   8  -1  -9  153.63   58.11
   8  -1   9  188.42   70.98
   8  -1   9  203.76   87.52
  -8   2  -9  302.25  105.33
   8  -2   9   96.96  114.62
   8  -2   9  422.36  106.85
  -8   3  -9    1.22   46.60
  -8   3  -9   20.69   43.42
   8  -3   9   18.14   53.39
   8  -3   9   45.66   56.62
  -8   4  -9   96.32   53.11
   4   8  -9   98.68   38.92
  -8   4  -9   65.54   70.59
   8  -4   9   84.62   77.96
   8  -4   9  127.43   66.82
   5   8  -9    4.74   23.28
  -8   5  -9   43.01   42.89
   8  -5   9   23.35   89.09
   8  -5   9   23.31   66.15
  -5  -8   9  -18.91   27.44
   6   8  -9   86.62   34.89
  -8   6  -9   72.22   54.88
   8  -6   9   68.96  116.82
   8  -6   9   60.30   78.75
  -6  -8   9   56.82   39.36
   7   8  -9  273.87  100.03
   8  -7   9  239.01  134.95
  -7  -8   9  285.84  102.31
   8   8  -9    8.57   28.41
  -8  -8   9  -33.19   35.20
   9   8  -9  490.50  137.16
  -9  -8   9  236.92  142.38
   9   7  -9   45.91   25.68
   9   7  -9   11.18   27.46
  -9  -7   9    1.57   33.52
   9   6  -9  -19.45   26.46
   9   6  -9  -42.03   25.80
  -9  -6   9   11.85   30.71
   9   5  -9  115.76   41.03
   9   5  -9   80.69   36.68
  -9  -5   9   21.60   63.17
  -9  -5   9   90.45   40.79
  -9  -5   9  116.86   43.44
   9   4  -9  147.64   54.99
   9   4  -9  154.51   60.67
   9   4  -9   93.14   69.06
   9   4  -9  268.28   70.00
  -9  -4   9  130.91   60.68
  -9  -4   9   75.46   64.92
  -9  -4   9  161.29   61.72
  -9  -4   9  184.09   74.88
   9   3  -9   15.52   44.71
   9   3  -9  -30.24   39.35
   9   3  -9   36.90   15.75
   9   3  -9   10.64   24.84
  -9  -3   9    0.89   38.13
  -9  -3   9    2.31   32.38
  -9  -3   9   20.84   24.60
  -9  -3   9   -6.51   23.27
   9   2  -9   14.88   25.70
   9   2  -9   70.99   45.18
   9   2  -9  -60.10   53.24
   9   2  -9   34.46   15.78
  -9  -2  -9  -15.08   73.22
  -9  -2   9   47.93   33.95
  -9  -2   9   39.30   43.12
   9   2   9  -44.36   70.27
  -9  -2   9   29.17   27.84
   9   2   9   70.92   46.28
   9   1  -9   -5.66   13.04
   9   1  -9  -16.84   25.61
   9   1  -9  -32.43   72.08
  -9  -1  -9    8.70   67.97
   9   1  -9  -25.93   51.37
  -9  -1   9  -17.44   34.55
  -9  -1   9   22.38   52.73
   9   1   9   30.56   41.55
  -9  -1   9    2.70   28.93
   9   1   9   89.79   70.22
   9   0  -9   -7.43   62.72
   9   0  -9    2.96   12.43
   9   0  -9   19.89   27.02
   9   0  -9   24.32   81.70
  -9   0  -9   11.54   55.63
   9   0   9  -93.90   67.96
  -9   0   9   12.57   36.49
  -9   0   9   12.48   27.42
   9   0   9   16.50   38.10
   9  -1  -9   15.83   13.82
  -9   1  -9   39.85   47.08
   9  -1  -9  -38.41   75.39
   9  -1   9   24.48   58.02
   9  -1   9  -22.16   45.13
  -9   2  -9   34.71   49.85
  -9   2  -9   60.84   53.93
   9  -2   9    3.37   58.25
   9  -2   9   10.70   57.48
  -9   3  -9   -8.55   56.85
  -9   3  -9  -11.87   50.71
   9  -3   9  -10.19   61.36
   9  -3   9   47.16   63.42
  -9   4  -9  225.44   83.83
  -9   4  -9  191.89  102.58
   9  -4   9  126.90  103.46
   9  -4   9  247.42   95.76
  -9   5  -9   77.50   58.92
   9  -5   9  131.82  101.57
   9  -5   9   69.19   82.79
  -9   6  -9   -4.99   51.75
   9  -6   9 -182.49   85.99
   9  -7   9   17.16   89.16
   9  -8   9  146.29  141.80
   9   9  -9    5.04   33.21
  10   8  -9   42.84   33.34
 -10  -8   9   -8.13   42.46
  10   7  -9   49.81   42.39
  10   7  -9   94.85   39.35
 -10  -7   9  115.67   48.96
  10   6  -9  330.18  121.15
  10   6  -9  379.11  129.06
 -10  -6   9  397.43  132.07
 -10  -6   9  328.01  131.96
  10   5  -9   11.86   28.16
  10   5  -9   10.67   22.33
 -10  -5   9  -12.32   63.16
 -10  -5   9   21.54   30.24
 -10  -5   9   22.41   26.06
  10   4  -9   38.46   27.14
  10   4  -9   34.92   42.73
  10   4  -9  -97.64   45.42
  10   4  -9   16.96   19.75
 -10  -4   9   -4.04   56.28
 -10  -4   9   41.55   27.76
 -10  -4   9  -52.15   38.71
 -10  -4   9   33.99   26.81
  10   3  -9   17.64   51.39
 -10  -3  -9   35.96   81.01
  10   3  -9    6.21   46.02
  10   3  -9   13.33   26.93
  10   3  -9   25.48   17.52
 -10  -3   9   42.24   43.70
 -10  -3   9   23.11   27.52
 -10  -3   9   -5.07   25.54
  10   3   9   33.59   81.17
 -10  -3   9   27.72   37.43
 -10  -2  -9   30.02   82.32
  10   2  -9   41.27   52.30
  10   2  -9    4.11   16.55
  10   2  -9  -34.31   59.02
  10   2  -9   13.04   27.25
 -10  -2   9    4.25   37.22
 -10  -2   9    1.10   48.97
  10   2   9    4.41   79.52
  10   2   9   57.49   48.84
 -10  -2   9   -8.72   29.70
  10   1  -9   61.24   62.05
  10   1  -9   -8.85   76.65
 -10  -1  -9   66.29   75.98
  10   1  -9   80.60   26.35
  10   1  -9   58.42   37.40
 -10  -1   9   71.10   43.08
 -10  -1   9   58.10   43.78
 -10  -1   9   47.83   63.64
  10   1   9   85.01   50.88
  10   1   9   71.76   81.39
  10   0  -9    6.07   29.42
  10   0  -9  -82.92   89.10
  10   0  -9    8.16   14.46
 -10   0  -9  -40.30   63.96
  10   0  -9  -78.93   71.39
  10   0   9    9.86   45.23
 -10   0   9   -1.88   39.59
 -10   0   9   22.76   30.65
  10   0   9  -61.82   73.42
  10  -1  -9   71.62   28.34
  10  -1  -9  187.96   91.08
 -10   1  -9   87.66   62.84
  10  -1   9   14.48   67.40
 -10   1   9   34.60   50.90
  10  -1   9  102.39   58.33
  10  -2  -9  -14.01  109.26
 -10   2  -9   10.46   57.70
 -10   2  -9   22.35   58.47
  10  -2  -9   -9.07   17.04
  10  -2   9  -18.89   64.50
  10  -2   9   38.24   68.68
 -10   3  -9  -11.55   64.96
 -10   3  -9  -22.48   56.28
  10  -3   9  -40.26   68.30
  10  -3   9   16.85   70.05
 -10   4  -9   -6.81   58.63
 -10   4  -9  -40.48   87.38
 -10   5  -9 -113.05  102.19
 -10   5  -9   11.83   53.99
 -10   6  -9  307.52  134.30
  10  -6   9  299.56  175.62
  10  -6   9  345.95  160.88
 -10   7  -9  119.61   78.18
  10  -7   9  204.31  111.55
  10  -8   9  128.04  110.16
  11   8  -9   65.87   41.54
  11   7  -9   10.30   30.26
  11   7  -9   25.84   29.99
 -11  -7   9   -1.85   41.17
  11   6  -9   30.93   28.08
  11   6  -9   14.07   31.44
 -11  -6   9    3.21   37.11
 -11  -6   9   14.66   30.68
  11   5  -9   59.62   32.24
  11   5  -9   89.57   36.95
 -11  -5   9   55.49   40.05
 -11  -5   9   40.04   35.65
  11   4  -9   23.88   22.34
  11   4  -9    7.56   48.76
  11   4  -9   25.92   52.82
  11   4  -9   -1.05   30.40
 -11  -4   9   16.72   30.33
 -11  -4   9  -37.28   57.51
 -11  -4   9   -8.77   43.76
 -11  -4   9    1.23   30.24
  11   3  -9   13.84   20.65
 -11  -3  -9   35.55   91.38
  11   3  -9  -32.34   53.83
  11   3  -9   41.89   56.41
  11   3  -9   25.84   29.43
  11   3   9  -38.61   93.12
 -11  -3   9   37.65   50.14
 -11  -3   9   15.03   41.99
 -11  -3   9  -15.68   27.71
  11   3   9   35.49   56.00
 -11  -3   9  -11.44   31.07
  11   2  -9   99.59   39.06
  11   2  -9  119.01   49.19
  11   2  -9  -25.32   81.16
  11   2  -9   83.01   74.28
 -11  -2  -9  -32.94   99.35
 -11  -2   9  260.14   69.21
 -11  -2   9  156.85   47.06
 -11  -2   9  101.61   55.56
 -11  -2   9   62.32   55.52
  11   1  -9  -18.84   30.78
  11   1  -9    8.17   15.63
  11   1  -9  -17.92   80.95
  11   1  -9    1.25   65.17
 -11  -1  -9 -194.04   98.45
 -11  -1   9  -24.18   34.11
 -11  -1   9  -94.35   67.60
 -11  -1   9  -24.27   41.67
  11   0  -9  388.63   90.07
  11   0  -9  452.63  141.60
 -11   0  -9  107.79  124.44
  11   0  -9  351.78  130.52
  11   0  -9  126.71  104.72
 -11   0   9  262.03  121.46
 -11   0   9  200.88  106.08
  11  -1  -9  103.57   97.82
  11  -1  -9    9.12   17.29
 -11   1   9   19.00   47.08
  11  -2  -9  121.02   43.29
  11  -2  -9  177.81  128.43
 -11   2  -9   35.48   88.31
 -11   2  -9  124.37   80.41
 -11   3  -9  -26.75   80.75
 -11   3  -9  -83.78   67.04
  11  -3   9 -141.00   84.89
 -11   4  -9   50.38  104.99
 -11   4  -9  -10.19   76.51
  11  -4   9  186.99   98.81
  11  -4   9  387.99  110.54
 -11   5  -9   65.94  111.22
 -11   5  -9   26.21   61.05
  11  -5   9   59.17  117.55
  11  -5   9  -98.05   94.19
 -11   6  -9   -5.76   62.50
  11  -6   9   19.54  130.33
  11  -6   9   53.72  101.79
 -11   7  -9   52.46   63.95
  11  -7   9  -64.52  108.47
  12   9  -9   10.42   40.93
  12   7  -9   29.00   38.00
  12   7  -9   12.75   35.99
 -12  -7   9    9.03   37.44
 -12  -7   9  130.78   52.97
  12   6  -9    3.66   34.59
  12   6  -9  -18.85   30.03
 -12  -6   9  -19.32   40.48
 -12  -6   9   -8.33   32.81
  12   5  -9   -8.16   31.71
  12   5  -9   28.37   27.57
 -12  -5   9   -4.52   32.09
 -12  -5   9   18.73   36.57
  12   4  -9   21.10   25.33
  12   4  -9   48.17   33.19
 -12  -4   9   28.52   33.19
 -12  -4   9   17.84   63.07
 -12  -4   9  -20.08   51.22
 -12  -4   9   -4.12   36.54
  12   3  -9   16.57   34.28
  12   3  -9   -0.71   64.69
  12   3  -9   -3.49   59.78
  12   3  -9   32.35   21.84
 -12  -3   9  -14.90   32.50
 -12  -3   9  -22.07   46.39
  12   3   9  -30.11   62.34
 -12  -3   9  100.65   56.91
 -12  -3   9   13.51   34.46
  12   2  -9   30.16   35.07
 -12  -2  -9   88.74  107.46
  12   2  -9   10.51   69.50
  12   2  -9    7.15   20.80
  12   2  -9  -33.87   75.52
 -12  -2   9  -37.60   63.43
  12   2   9    1.28   84.08
 -12  -2   9   35.54   37.45
  12   2   9   92.44   60.44
 -12  -2   9   60.92   46.45
 -12  -2   9   86.35   31.70
  12   1  -9  445.89  147.14
  12   1  -9  278.94  134.64
  12   1  -9  250.16  155.82
  12   1  -9  363.18  116.69
 -12  -1  -9  505.30  163.03
 -12  -1   9  458.22  149.01
 -12  -1   9  339.55  129.37
  12   1   9  250.10  129.99
 -12  -1   9  337.64  157.19
  12   0  -9 -216.05  106.66
  12   0  -9  -13.29   88.97
 -12   0  -9   54.72   81.92
 -12   0   9  -39.01   90.34
 -12   0   9  -11.70   36.32
  12   0   9   -0.91   76.39
  12   0   9  -77.69   61.02
 -12   0   9  -44.99   49.31
  12  -1  -9  386.64  162.79
 -12   1  -9  539.90  139.89
  12  -1  -9  364.59  167.70
  12  -1   9  -18.86  143.75
 -12   1   9  323.59  124.80
  12  -1   9  307.59  129.28
  12  -2  -9   83.54  129.20
 -12   2  -9 -106.11   80.36
 -12   2  -9   25.64   80.88
  12  -2   9   12.63   83.57
  12  -2   9   -3.52   89.16
 -12   3  -9    5.72   78.19
 -12   3  -9  -61.29   92.99
  12  -3   9  -47.26   92.22
  12  -3   9  269.28   86.26
 -12   4  -9   39.77  109.33
 -12   4  -9  277.28   75.59
  12  -4   9  -75.82   99.89
 -12   5  -9  -22.82  126.89
  12  -5   9   -9.87  106.04
  12  -8   9   51.12  128.27
  13   9  -9   10.90   45.32
 -13  -7   9  -18.12   39.29
 -13  -6   9   -1.97   45.71
 -13  -6   9    5.02   36.18
 -13  -5   9  199.84   85.87
 -13  -5   9  150.24   87.52
 -13  -3  -9  201.28  120.68
  13   3  -9  116.51   70.45
  13   3  -9  -31.36   76.20
 -13  -3   9    9.32   66.32
  13   3   9  113.42  118.91
 -13  -3   9   28.44   57.83
  13   2  -9  232.38   85.28
  13   2  -9   -6.07   86.31
 -13  -2   9   94.06   73.47
 -13  -2   9   58.27   56.03
  13   2   9  -28.48  110.18
  13   1  -9  -41.88  100.71
  13   1  -9   -1.57   82.72
  13   1   9    1.18   97.59
 -13  -1   9  -40.97   81.71
 -13  -1   9   -4.11   50.49
  13   0  -9  152.71  138.13
  13   0  -9  365.16  155.76
 -13   0   9  265.47  142.84
 -13   0   9  241.86  106.80
  13  -1  -9 -295.42  119.98
  13  -1  -9   98.02  116.30
 -13   1   9  -52.40   54.17
  13  -2  -9 -136.21  142.57
 -13   3  -9 -121.63   90.97
  13  -3   9   50.39  103.81
 -13   4  -9   -3.15   82.38
  13  -4   9 -188.77  123.67
 -13   5  -9  204.37  173.05
 -13   5  -9  105.27  211.90
  13  -5   9  629.82  217.13
  13  -5   9 1158.02  202.36
 -13   6  -9  -75.74   73.52
 -13   6  -9   -7.11  155.04
  13  -6   9  130.45  162.13
  13  -6   9  -33.07  129.85
 -13   7  -9  -18.82   72.81
  13  -7   9  133.13  134.12
  13  -7   9   20.93  160.46
  13  -8   9   85.09  143.21
 -14  -4  -9 -184.56  129.51
 -14  -3  -9   -4.28  129.07
 -14  -3   9  -14.81   58.40
 -14  -3   9   22.19   76.88
  14   3   9  -54.40   75.43
  14   3   9  134.93  128.71
 -14  -2  -9  205.35  136.35
  14   2  -9 -208.04  100.49
  14   2  -9 -128.48   93.98
 -14  -2   9  -82.68   79.97
  14   2   9   75.58  117.03
 -14  -2   9  -34.13   56.50
  14   2   9   69.39   74.33
  14   1  -9 -219.05  102.09
 -14  -1  -9  -33.06  134.29
 -14  -1   9  147.52   54.77
  14   1   9   38.89   74.89
  14   1   9  -97.65   95.50
 -14  -1   9  -53.85   90.49
 -14   0  -9 -121.33  123.45
  14   0  -9  -79.92  111.62
 -14   0   9  -86.76  110.68
  14   0   9  -72.85  101.43
 -14   1  -9  -31.62  116.04
 -14   1  -9   14.32  117.61
  14  -1   9 -145.71  111.73
 -14   2  -9  -21.53  109.42
 -14   2  -9   29.50  111.58
 -14   3  -9  -39.08   96.49
 -14   3  -9 -128.39  124.44
  14  -3   9  -74.89  124.88
  14  -3   9  119.22  116.96
 -14   4  -9   67.22  134.00
 -14   4  -9   -3.53   93.14
  14  -4   9 -164.87  123.49
  14  -4   9   -6.55  133.52
 -14   5  -9  -94.07   82.87
 -14   5  -9  103.29  154.62
  14  -5   9   27.19  129.81
  14  -5   9  -57.90  151.12
 -14   6  -9   23.68  168.41
 -14   6  -9  -75.96   81.60
  14  -6   9   -2.21  162.28
  14  -6   9   50.12  134.84
 -14   7  -9 -196.58  202.63
 -14   7  -9  228.92   88.45
  14  -7   9   -2.48  175.32
  14  -7   9   30.45  148.26
  14  -8   9  302.67  193.22
 -15  -4  -9   44.62  137.51
 -15  -3  -9   47.73  149.00
  15   3   9   22.68   80.26
 -15  -2  -9  157.26  149.65
  15   2   9  -67.04  113.31
  15   2   9  -71.34   82.39
  15   1  -9   52.77  121.12
 -15  -1  -9   12.55  148.44
  15   1   9  -18.53   94.68
  15   1   9 -192.59   78.41
 -15  -1   9   22.59   59.85
 -15   0  -9  -40.31  149.32
 -15   0  -9   56.01  144.87
  15   0  -9  146.51  141.02
 -15   0   9  124.89   89.17
  15   0   9  119.47  103.00
  15   0   9 -176.44  131.80
  15  -1  -9   11.58  129.13
 -15   1  -9  -46.18  124.79
  15  -1  -9   61.65  143.59
 -15   1  -9  -43.88  121.97
  15  -1   9 -122.58   95.93
 -15   1   9  302.89  147.52
 -15   1   9   17.88   61.90
  15  -1   9   48.32  106.93
 -15   2  -9  -51.95  114.29
  15  -2  -9 -231.42  168.96
 -15   2  -9  164.41  125.36
  15  -2   9 -129.31  109.17
  15  -2   9    6.64  110.79
 -15   3  -9  110.65  105.33
 -15   3  -9 -129.09  131.36
  15  -3   9 -210.48  140.63
  15  -3   9   31.02  127.94
 -15   4  -9   50.42  148.97
 -15   4  -9  -93.43   96.72
  15  -4   9   84.79  138.94
  15  -4   9 -247.29  140.60
 -15   5  -9  -15.93  173.02
 -15   5  -9  123.83   99.52
  15  -5   9   71.86  168.00
  15  -5   9  126.01  146.98
 -15   6  -9  138.88   99.17
 -15   6  -9  135.14  189.49
  15  -6   9 -308.40  158.93
  15  -6   9 -321.48  186.86
 -15   7  -9  112.81  203.16
 -15   7  -9   58.22   89.62
  15  -7   9   66.79  183.52
  15  -7   9  -82.49  164.82
 -15   8  -9 -118.92  214.17
  15  -8   9  114.93  166.46
 -16  -4  -9 -236.37  167.00
 -16  -3  -9  128.32  187.80
  16   3   9    2.28  104.96
 -16  -2  -9  -52.31  177.38
  16   2   9  -53.81   95.63
 -16  -2   9 -263.62   82.02
 -16  -2   9 -315.33  110.00
  16   2   9  -46.88  123.41
 -16  -1  -9  -90.91  166.68
  16   1  -9   97.53  124.67
  16   1   9  -73.42   89.21
  16   1   9  108.21  116.06
 -16  -1   9  129.32  113.64
 -16  -1   9   61.24   67.08
 -16   0  -9  253.76  132.31
  16   0  -9   -7.55  131.32
 -16   0  -9  109.66  153.89
  16   0  -9  -77.39  132.93
  16   0   9 -201.23  117.31
  16   0   9  148.92   92.71
 -16   0   9 -116.54  130.90
 -16   0   9  -47.48   67.84
 -16   1  -9  -53.54  122.31
 -16   1  -9 -148.04  149.84
  16  -1  -9 -234.32  143.18
  16  -1  -9 -340.33  157.69
  16  -1   9    2.16  102.14
 -16   1   9  166.76  161.52
  16  -1   9    1.45  118.87
 -16   1   9   22.49   67.78
 -16   2  -9   -3.61  145.87
  16  -2  -9 -250.80  191.26
 -16   2  -9   71.24  126.81
 -16   2   9  126.49  194.89
 -16   3  -9   57.72  213.16
  16  -3  -9  627.33  265.97
 -16   3  -9  132.43  182.16
  16  -3   9 1026.52  214.96
  16  -3   9  138.04  202.08
 -16   4  -9 -130.93  119.57
 -16   4  -9 -131.26  181.23
  16  -4   9 -323.51  175.55
  16  -4   9   31.94  168.18
 -16   5  -9  327.86  186.99
 -16   5  -9   76.19  105.33
  16  -5   9 -202.71  157.20
  16  -5   9   46.82  187.88
 -16   6  -9 -221.71  206.97
 -16   6  -9  -51.47  104.63
  16  -6   9   65.95  195.94
  16  -6   9  -71.52  164.74
 -16   7  -9  268.35  232.47
 -16   7  -9   93.80  105.26
  16  -7   9  -47.51  179.66
  16  -7   9  156.02  204.49
 -16   8  -9  -32.42  231.17
  16  -8   9  -52.68  180.49
 -17  -4  -9  141.09  186.88
 -17  -3  -9 -547.81  203.49
  17   3   9 -174.73  102.05
 -17  -2  -9  -89.05  192.73
  17   2   9  113.20  102.57
  17   1  -9  -45.47  144.22
 -17  -1  -9 -169.28  153.25
 -17  -1  -9  -93.21  191.02
  17   1   9   29.84   99.21
  17   1   9    1.56  128.99
 -17  -1   9  146.68   73.06
 -17  -1   9 -228.96  123.82
  17   0  -9  -85.36  148.85
  17   0  -9  -60.13  145.09
 -17   0  -9  -53.36  174.37
 -17   0  -9  -89.14  139.97
 -17   0   9   25.78   73.15
  17   0   9  -92.77  131.40
 -17   0   9   89.02  139.55
  17   0   9  -40.97  100.60
 -17   1  -9  263.39  176.54
 -17   1  -9   29.81  140.54
  17  -1  -9 -161.69  170.20
  17  -1  -9   17.65  147.62
  17  -1   9    2.40  110.39
  17  -1   9  -94.83  130.60
 -17   1   9   80.24   74.74
 -17   1   9 -261.98  174.17
 -17   2  -9 -206.60  133.82
 -17   2  -9   39.36  166.13
  17  -2  -9 -223.91  213.13
  17  -2   9  -29.19  142.48
 -17   2   9   77.38  202.95
  17  -2   9  115.83  129.76
 -17   3  -9  127.69  133.74
 -17   3  -9    4.36  180.73
  17  -3   9  114.85  167.00
  17  -3   9  263.42  162.38
 -17   4  -9  -14.69  121.56
 -17   4  -9 -177.41  191.49
  17  -4   9  -78.91  188.54
  17  -4   9  -25.17  178.65
 -17   5  -9  129.25  210.91
 -17   5  -9   75.40  122.20
  17  -5   9  194.72  208.40
  17  -5   9   29.03  186.05
 -17   6  -9  -78.26  112.43
 -17   6  -9    5.34  219.68
  17  -6   9  -88.40  189.65
  17  -6   9  167.46  210.46
 -17   7  -9 -209.45  253.32
 -17   7  -9 -235.11  132.28
 -17   8  -9  165.96  259.47
  17  -8   9 -292.00  204.54
 -18  -4  -9 1301.37  508.97
 -18  -3  -9 -313.34  237.30
  18   3   9  200.62  121.97
 -18  -2  -9 -236.86  225.52
  18   2   9  -45.94  114.55
 -18  -1  -9 -138.57  162.93
 -18  -1  -9  112.58  232.25
 -18  -1   9  109.02   82.57
  18   1   9  -72.49  113.05
  18   1   9 -195.62  147.29
 -18   0  -9   11.07  155.55
  18   0  -9  396.74  158.90
 -18   0  -9  161.63  221.32
  18   0  -9  164.17  177.27
  18   0   9  -53.42  147.99
 -18   0   9  -24.86   81.17
  18   0   9  -15.60  115.90
 -18   0   9    7.33  160.76
  18  -1  -9  -90.64  161.04
 -18   1  -9  151.77  202.75
  18  -1  -9  452.02  188.26
 -18   1  -9   -5.51  149.83
  18  -1   9  125.52  143.61
  18  -1   9 -116.98  125.43
 -18   1   9   26.65   79.40
 -18   1   9   12.64  184.19
 -18   2  -9 -181.00  211.93
  18  -2  -9  300.39  214.54
 -18   2  -9 -163.45  149.96
 -18   2   9  -59.05  213.78
  18  -2   9   63.79  145.28
  18  -2   9 -184.10  168.49
 -18   3  -9 -158.05  206.15
 -18   3  -9 -140.45  144.73
  18  -3   9 -406.64  173.35
  18  -4   9 1818.89  622.14
 -18   5  -9 -280.77  241.44
 -18   5  -9  105.96  129.13
 -18   6  -9  148.61  252.08
 -18   6  -9 -155.62  131.29
  18  -6   9  304.30  232.62
  18  -6   9   -4.27  218.31
 -18   7  -9   85.11  139.79
 -18   7  -9  143.21  276.01
  18  -7   9  339.13  253.91
  18  -7   9  166.30  226.64
 -18   8  -9  181.51  300.28
  18  -8   9 -734.28  244.90
 -19  -4  -9   31.09  236.19
  19   4   9  -88.94  175.45
 -19  -3  -9   23.23  247.05
  19   3   9  -91.96  134.80
 -19  -2  -9  140.48  276.55
  19   2   9   24.38  133.54
 -19  -1  -9   83.91  272.29
 -19  -1  -9   67.91  177.96
  19   1   9  133.40  139.70
 -19   0  -9 -376.82  171.30
 -19   0  -9  -20.74  260.41
 -19   0   9 -112.59  168.01
 -19   0   9   43.25   87.69
  19   0   9  221.98  166.88
  19   0   9    2.95  134.96
 -19   1  -9 -122.80  167.19
  19  -1  -9  266.66  210.69
 -19   1  -9  -86.91  249.76
  19  -1   9  -18.72  171.99
  19  -1   9   82.51  143.73
 -19   1   9  -58.14   83.53
 -19   1   9   23.10  200.61
  19  -2  -9  493.70  242.21
 -19   2  -9  -48.86  242.42
 -19   2  -9   91.20  157.99
  19  -2   9 -119.33  162.40
  19  -2   9  -86.72  197.12
 -19   2   9 -117.19  233.02
 -19   3  -9  -29.83  160.24
 -19   3  -9 -282.32  244.43
  19  -3   9 -293.16  209.23
  19  -3   9    3.64  180.29
 -19   4  -9   60.53  237.23
 -19   4  -9  189.24  148.16
  19  -4   9  -38.83  212.20
  19  -4   9  -29.71  236.64
 -19   5  -9  194.65  148.09
 -19   5  -9 -266.60  257.12
  19  -5   9  -14.92  259.21
  19  -5   9   52.44  250.12
 -19   6  -9 -280.11  287.95
 -19   6  -9 -161.51  153.85
  19  -6   9 -141.12  240.66
  20  -1  -9  255.85  234.56
 -20   1   9   32.04   98.99
 -20   1   9   61.38  218.07
  20  -2  -9  243.17  267.78
 -20   2   9 -283.94  247.91
   0   0  10 1727.46  632.25
   0   1 -10    9.63   17.39
  -1   0 -10    0.48    6.98
   0  -1  10  -16.85   15.25
  -1   1 -10  492.60  166.86
  -1   1 -10  483.92  149.18
   1  -1  10  426.13  169.12
   1  -1  10  386.91  170.83
   2   1 -10   58.18   24.36
   2   1 -10   37.38   31.28
  -1   2 -10   91.62   29.96
  -1   2 -10   85.35   24.55
   1  -2  10   72.13   29.34
   1  -2  10   69.20   36.50
  -2  -1  10   58.14   31.21
   2   0 -10  823.37  244.63
  -2   1 -10   87.26   25.96
   1   2 -10   98.46   25.66
  -2   1 -10   40.06   32.71
   2  -1  10   70.31   37.85
   2  -1  10   48.74   31.76
  -2   2 -10  170.26   62.80
   2   2 -10  159.09   60.93
   2   2 -10  170.80   54.56
  -2   2 -10  149.65   55.74
  -2   2 -10  160.74   64.55
   2  -2  10  124.80   70.31
  -2  -2  10  146.18   61.51
   2  -2  10  139.76   62.16
   2  -2  10  228.79   60.45
  -2   3 -10  147.00   68.77
  -2   3 -10  219.90   73.75
  -2   3 -10  235.77   73.42
   3   2 -10  151.92   72.75
   3   2 -10  186.79   72.26
  -2   3 -10  192.17   65.27
   2  -3  10  192.92   71.12
   2  -3  10   84.00   79.48
   2  -3  10  187.77   67.08
  -3  -2  10  195.43   73.73
   2  -3  10  282.84   70.20
   3   1 -10   17.92   23.45
  -1   3 -10   49.89   18.29
  -1   3 -10   40.63   19.82
   1  -3  10   39.66   18.57
  -3  -1  10   26.91   21.65
   1  -3  10   55.64   30.21
   0   3 -10   -0.43    6.58
   3   0 -10    2.93   21.43
  -3   0 -10   -3.21    5.83
  -3   0  10   -1.37   16.79
   3   0  10    2.53   28.66
  -3   1 -10   -3.25   32.84
   1   3 -10   55.62   17.36
  -3   1 -10   17.35   21.10
  -3   1 -10   29.77   11.71
   1   3 -10   34.05   12.38
   3  -1  10   40.16   31.87
   3  -1  10   19.58   18.63
   3  -1  10   21.53   25.36
  -1  -3  10   17.99   15.81
  -3   2 -10  229.11   82.97
  -3   2 -10  198.82   78.36
  -3   2 -10  232.01   73.61
   2   3 -10  244.13   77.44
   3  -2  10  238.83   82.23
   3  -2  10  222.43   76.71
   3  -2  10  179.80   90.38
  -2  -3  10  207.33   76.87
  -3   3 -10    8.63   17.47
   3   3 -10   19.09   14.57
  -3   3 -10    4.50    6.66
  -3   3 -10    9.85   13.13
  -3   3 -10   -4.36   20.67
   3  -3  10   26.57   23.26
  -3  -3  10  -10.12   13.76
   3  -3  10   -4.09    8.25
   3  -3  10  -14.85   29.24
   3  -3  10    8.40   10.76
   4   3 -10   -6.69   16.31
  -3   4 -10   -1.63   11.30
   4   3 -10    2.27    9.08
  -3   4 -10    1.12    8.10
  -3   4 -10   -8.17   24.10
   4   3 -10  -16.50   34.25
   4   3 -10    4.40   15.35
  -4  -3  10   -0.49   15.46
   3  -4  10   45.31    9.38
   3  -4  10  -60.71   28.48
  -4  -3  10   -1.89   15.65
  -4  -3  10    0.49   13.67
   4   2 -10   82.79   35.46
  -2   4 -10  188.71   48.61
   4   2 -10   80.33   41.51
   4   2 -10   80.68   42.66
   2  -4  10  204.22   74.54
   2  -4  10   70.05   43.00
  -4  -2  10  154.94   42.21
   4   1 -10  131.86   53.54
   4   1 -10  169.08   43.78
  -1   4 -10  137.95   44.87
   4   1 -10   97.71   57.92
  -4  -1  10  128.89   55.18
   1  -4  10  105.13   49.90
   1  -4  10  123.59   46.23
   4   0 -10    8.11    8.46
   4   0 -10   10.04   20.55
   0   4 -10    4.58    9.24
  -4   0 -10    1.45    6.14
   0   4 -10    7.04   11.22
   0  -4  10   12.68   11.01
  -4   0  10    0.73   18.47
   1   4 -10  120.97   50.31
  -4   1 -10  107.31   59.55
   1   4 -10  141.36   47.22
  -4   1 -10  153.38   49.35
  -1  -4  10  170.17   49.01
   4  -1  10  136.15   54.19
   2   4 -10  105.21   37.61
  -4   2 -10   77.50   37.81
  -4   2 -10  180.67   45.20
  -4   2 -10   95.63   43.88
   2   4 -10  135.53   40.64
  -2  -4  10   97.08   40.26
   4  -2  10  131.30   44.22
  -2  -4  10  110.58   39.86
   4  -2  10  104.78   44.35
  -4   3 -10    2.64   20.86
   3   4 -10    9.58   13.53
  -4   3 -10   41.21   21.83
  -4   3 -10   -7.45   14.47
   3   4 -10   -3.50    9.58
  -4   3 -10    2.61    6.77
  -3  -4  10   -4.87   13.53
   4  -3  10  -55.60   30.46
   4  -3  10    2.23    8.42
   4  -3  10  -10.17   11.98
   4   4 -10  184.92   72.59
  -4   4 -10  256.67   69.63
  -4   4 -10  221.49   77.86
   4   4 -10  113.87   78.67
   4   4 -10  230.52   67.90
  -4   4 -10  162.00   82.48
   4  -4  10  249.74   71.97
   4  -4  10  210.24   81.38
   4  -4  10  214.24   75.09
  -4  -4  10  185.28   73.07
  -4  -4  10  210.60   71.77
   5   4 -10  375.46  101.16
  -4   5 -10  311.17  116.43
   5   4 -10    0.85  126.92
   5   4 -10  359.35  109.29
  -5  -4  10  284.14  110.03
  -5  -4  10  397.11  107.83
   5   3 -10   38.13   31.69
   5   3 -10  106.54   19.09
   5   3 -10   73.33   26.10
   5   3 -10  -65.76   42.66
  -5  -3  10   54.76   27.28
  -5  -3  10   53.95   26.34
   3  -5  10  -57.90   43.89
  -5  -3  10   29.99   24.34
   5   2 -10  298.79  105.86
   5   2 -10  493.84  139.96
   5   2 -10  247.21  102.97
   5   2 -10  288.91   93.54
  -2   5 -10  396.80   95.97
  -2   5 -10   61.13  101.74
  -5  -2  10  334.04  106.43
   2  -5  10  308.72   98.76
  -5  -2  10  283.55  106.42
  -5  -2  10  335.08  111.89
   2  -5  10  235.77  110.55
   5   1 -10   15.30    9.77
  -1   5 -10   -2.98   11.11
   5   1 -10   15.38   31.56
   5   1 -10   -0.90   20.46
  -1   5 -10   19.83   12.90
   5   1  10   27.74   38.38
   1  -5  10   15.67   13.04
   1  -5  10  -27.58   24.25
  -5  -1  10   11.25   19.43
   5   0 -10   -6.30   23.04
  -5   0 -10   -3.89    5.66
   0   5 -10   -2.99   10.89
   5   0 -10   -3.59    8.63
  -5   0 -10   12.16   43.76
   0   5 -10   -5.71   12.25
   0  -5  10    3.08   12.58
   5   0  10   37.82   30.43
   5   0  10   23.59   39.05
  -5   0  10    3.91   20.56
   1   5 -10   18.39   14.47
  -5   1 -10   74.74   34.66
   1   5 -10   16.71   12.77
  -5   1 -10   14.22    7.95
  -1  -5  10   19.22   14.78
   5  -1  10   58.41   45.34
  -5   2 -10  211.39  105.37
  -5   2 -10  288.48   91.22
   2   5 -10  318.32   89.39
   2   5 -10  286.52   93.53
   5  -2  10  292.80  106.09
  -2  -5  10  335.44   92.39
   5  -2  10  132.78  111.50
   3   5 -10   54.44   30.06
   3   5 -10   64.85   23.61
   3   5 -10   92.91   25.95
  -5   3 -10   59.18   27.91
  -5   3 -10   63.58   21.98
  -5   3 -10   37.95   38.07
   5  -3  10   70.08   22.99
  -3  -5  10   47.54   26.27
   5  -3  10   41.84   26.27
   4   5 -10  318.74  131.74
  -5   4 -10  545.44  143.47
  -5   4 -10  405.94  138.47
  -5   4 -10  306.29  130.60
   4   5 -10  434.68  127.02
   4   5 -10  328.77  145.68
  -5   4 -10  384.75  145.69
   5  -4  10  401.04  137.54
   5  -4  10  505.86  135.24
   5  -4  10  414.01  141.90
   5   5 -10    5.58   15.26
   5   5 -10   12.53   28.74
   5   5 -10   10.76   17.62
  -5   5 -10    4.88   34.19
  -5   5 -10   21.30   13.27
   5  -5  10   -8.42   80.70
  -5  -5  10  -10.87   18.92
   5  -5  10  -16.71   44.18
   6   5 -10   96.31   36.83
   6   5 -10  102.02   39.27
  -6  -5  10   92.07   39.95
   5  -6  10  105.81   64.19
  -6  -5  10   94.85   40.50
   6   4 -10   32.01   28.80
   6   4 -10    7.89   28.16
   6   4 -10   36.46   16.46
   6   4 -10   35.75   21.79
  -6  -4  10   37.47   20.91
  -6  -4  10   29.03   33.23
  -6  -4  10   53.62   22.20
  -6  -4  10   27.86   24.43
   6   3 -10 1360.13  422.37
   6   3 -10  672.44  441.85
   6   3 -10 1201.27  365.54
  -3   6 -10 1138.22  406.69
   6   3 -10 1139.55  393.62
  -6  -3  10 1175.84  401.44
  -6  -3  10 1108.57  401.56
  -6  -3  10 1189.70  401.95
  -2   6 -10  206.21   52.33
   6   2 -10  115.76   62.33
   6   2 -10  158.23   49.26
   6   2 -10  117.17   56.85
  -2   6 -10  152.96   54.92
  -6  -2  10  201.24   63.12
  -6  -2  10  126.47   62.54
  -6  -2  10  128.43   58.87
  -1   6 -10  532.40  138.16
  -1   6 -10  464.94  144.88
   6   1 -10  435.47  151.76
   6   1 -10  483.13  152.78
   6   1  10  363.33  162.24
  -6  -1  10  290.36  158.82
   1  -6  10  411.80  142.02
   0   6 -10   80.41   25.35
   6   0 -10   31.87   33.56
  -6   0 -10   18.59   55.06
   6   0 -10   80.39   22.78
   0   6 -10   89.09   25.31
   6   0  10   32.50   40.80
   0  -6  10   58.88   26.51
  -6   0  10   70.74   31.94
  -6   1 -10  365.68  134.32
   1   6 -10  346.37  127.08
  -6   1 -10  374.61  138.45
   6  -1  10  411.96  133.30
  -1  -6  10  438.23  131.00
  -6   2 -10  142.64   47.98
   2   6 -10  130.93   51.21
   2   6 -10  150.52   48.69
  -6   2 -10  163.66   59.00
  -2  -6  10  110.18   50.78
   6  -2  10  126.83   48.65
   3   6 -10 1308.78  372.69
  -6   3 -10 1163.20  411.19
  -6   3 -10  910.86  372.21
   3   6 -10 1106.96  354.95
  -6   3 -10 1489.92  425.85
  -6   3 -10 1080.88  390.19
   6  -3  10  439.29  417.22
  -3  -6  10 1080.44  369.03
   6  -3  10 1241.16  381.20
   6  -3  10 1102.90  383.81
   6  -3  10 1162.58  418.99
   4   6 -10   38.16   20.99
  -6   4 -10   44.53   19.14
  -6   4 -10   26.31   42.55
  -6   4 -10   60.70   35.30
   6  -4  10   14.22   45.95
   6  -4  10   26.51   16.39
   6  -4  10  -10.11   56.13
  -6   5 -10  101.37   42.91
  -6   5 -10  120.78   52.97
   5   6 -10  143.84   41.18
   5   6 -10   86.88   38.54
  -5  -6  10  116.59   42.57
   6  -5  10   57.60   64.70
   6  -5  10   87.07   90.69
  -6   6 -10   14.03   42.64
   6   6 -10   22.91   21.03
  -6   6 -10    9.68   14.77
   6   6 -10    9.58   19.40
  -6  -6  10   15.54   23.44
   6  -6  10   10.46   58.24
   7   6 -10    0.84   21.99
   7   6 -10   21.68   20.32
   6  -7  10   21.16   60.78
  -7  -6  10   20.11   25.46
   7   5 -10   83.84   30.22
   7   5 -10   57.15   34.75
  -5   7 -10   86.82   32.24
  -7  -5  10   58.86   33.16
  -7  -5  10  103.87   34.63
   5  -7  10   48.19   62.05
  -4   7 -10  621.96  219.89
   7   4 -10  691.39  206.62
  -7  -4  10  534.05  209.71
   4  -7  10  375.50  234.91
   7   3 -10    1.68   21.10
   7   3 -10    2.91   11.82
  -3   7 -10    0.61   15.18
  -7  -3  10   14.75   19.59
   7   2 -10  962.55  289.74
   7   2 -10  776.22  319.59
  -2   7 -10  868.76  319.60
   7   2  10 1004.01  343.74
  -7  -2  10  770.86  337.09
   7   1 -10  276.06   99.96
  -7  -1 -10   22.25  109.78
   7   1 -10  285.61   83.34
  -1   7 -10  236.25   93.53
   7   1  10  281.29  116.15
  -7  -1  10  275.40  104.94
   7   1  10  312.70   96.95
  -7  -1  10  246.76  108.30
   7   0 -10   19.70   52.18
   7   0 -10   -4.11   11.12
   0   7 -10  -11.18   15.00
   0   7 -10   -1.38   17.06
   7   0 -10   12.84   25.45
  -7   0 -10    3.18   48.96
   7   0  10  -30.60   34.18
   0  -7  10    3.30   20.23
   7   0  10   61.69   56.18
  -7   0  10   -6.26   24.76
   1   7 -10  225.07  104.37
   1   7 -10  328.64   99.45
  -7   1 -10  334.82  110.75
   7  -1  10  330.38  128.91
  -1  -7  10  218.74  103.41
   7  -1  10  345.97  105.53
  -7   2 -10  759.75  283.76
   2   7 -10  790.30  262.34
   7  -2  10 1049.93  277.78
   7  -2  10  394.08  319.04
   3   7 -10    6.09   18.46
  -7   3 -10   21.17   38.85
  -7   3 -10   -3.89   37.98
   3   7 -10    3.83   16.85
   7  -3  10   -4.03   43.37
   7  -3  10   11.82   47.34
  -3  -7  10   14.83   20.64
   4   7 -10  719.76  223.70
  -7   4 -10  697.86  238.98
  -7   4 -10  672.82  253.74
   7  -4  10  451.95  254.98
   7  -4  10  749.05  241.11
   5   7 -10   54.99   32.67
   5   7 -10  109.24   31.60
  -7   5 -10   98.49   47.99
   7  -5  10  108.16   62.26
   7  -5  10   33.67   84.20
  -5  -7  10   41.26   34.40
   6   7 -10   14.03   22.10
   6   7 -10    5.76   22.68
  -7   6 -10   -4.52   43.50
  -6  -7  10   17.11   27.83
   7  -6  10 -112.25   98.74
   7  -6  10   66.17   65.86
   7   7 -10   15.67   23.78
   7   7 -10   12.21   23.65
  -7  -7  10   13.11   28.95
   7  -7  10  -19.93   70.11
   8   7 -10   29.50   29.31
   8   7 -10   16.21   26.34
   7  -8  10  107.90   76.67
  -8  -7  10   15.52   33.32
   8   6 -10   10.89   22.31
   8   6 -10    1.77   23.20
  -8  -6  10   21.10   28.59
   8   5 -10   -2.27   19.14
   8   5 -10   19.34   23.14
  -8  -5  10  -11.92   24.80
  -8  -5  10   -2.02   21.88
   8   4 -10  119.68   57.86
   8   4 -10   49.48   63.79
   8   4 -10  184.55   67.43
   8   4 -10  153.25   50.97
  -8  -4  10  198.54   57.52
  -8  -4  10  139.72   60.28
  -8  -4  10  132.93   66.70
  -8  -4  10  160.50   58.60
   8   3 -10  130.54   56.51
   8   3 -10   82.92   42.67
   8   3 -10  134.30   34.86
   8   3 -10    0.48   56.14
  -8  -3  10   40.64   45.75
  -8  -3  10  150.80   41.27
  -8  -3  10   84.32   43.52
  -8  -3  10   94.75   48.63
   8   2 -10  131.60   61.82
  -8  -2 -10    2.46   79.11
   8   2 -10  138.48   44.01
   8   2 -10  179.39   78.29
   8   2 -10  142.51   53.09
  -8  -2  10  168.27   56.61
  -8  -2  10   92.38   60.25
   8   2  10   92.04   79.81
  -8  -2  10  151.73   56.61
   8   1 -10   47.77   54.89
   8   1 -10   85.87   80.36
   8   1 -10  109.55   29.21
  -8  -1 -10    6.49   72.29
   8   1 -10   76.23   39.65
   8   1  10   96.21   70.66
  -8  -1  10   74.27   44.08
  -8  -1  10   60.07   42.10
   8   1  10   94.18   48.91
   8   0 -10  127.53   36.96
  -8   0 -10   61.98   65.85
   8   0 -10   18.85   71.47
   8   0 -10   69.63   49.16
   8   0  10  143.78   51.19
  -8   0  10  106.78   53.14
   8   0  10  126.66   75.90
   8  -1 -10   70.65   25.05
   1   8 -10   47.30   29.32
   8  -1 -10   69.22   79.28
  -8   1 -10   84.41   49.72
   8  -1  10   55.34   43.81
   8  -1  10   -2.67   62.51
   2   8 -10   63.71   48.29
  -8   2 -10  125.02   61.42
   8  -2  10  129.81   67.63
   8  -2  10  251.11   64.89
  -2  -8  10   79.70   50.70
   3   8 -10  138.15   46.31
  -8   3 -10  105.54   63.28
  -8   3 -10  116.06   63.36
   8  -3  10  117.89   72.44
  -3  -8  10   66.84   47.69
   8  -3  10  174.11   67.12
  -8   4 -10  182.17   93.18
  -8   4 -10  267.69   83.88
   4   8 -10  168.10   70.80
   8  -4  10  282.98   89.84
   8  -4  10  161.07   98.87
   5   8 -10   22.50   22.89
  -8   5 -10    1.93   45.21
   5   8 -10   -1.62   23.10
  -5  -8  10   -8.55   29.00
   8  -5  10   62.10   87.16
   8  -5  10  -18.68   65.79
   6   8 -10  -11.90   23.87
  -8   6 -10   16.13   47.85
   6   8 -10   10.81   25.54
   8  -6  10   11.84  102.60
  -6  -8  10  -10.55   32.20
   8  -6  10   19.90   72.46
   7   8 -10    5.16   29.60
   7   8 -10   44.74   30.14
  -7  -8  10   46.53   38.08
   8  -7  10  223.26   85.06
   8   8 -10  372.72  130.59
   8   8 -10  415.70  137.61
   8  -8  10  425.59  173.61
  -8  -8  10  309.45  141.85
   9   8 -10   35.52   30.66
   9   8 -10  -22.08   29.71
  -9  -8  10   37.04   38.99
   9   7 -10   51.79   37.18
   9   7 -10   95.27   40.63
  -9  -7  10   91.68   45.67
   9   6 -10  122.78   54.64
   9   6 -10  136.53   57.06
  -9  -6  10  166.80   57.70
  -9  -6  10  133.42   59.46
   9   5 -10  136.54   49.68
   9   5 -10  136.87   44.69
  -9  -5  10  128.46   50.11
  -9  -5  10   75.73   49.35
   9   4 -10   -4.27   18.25
   9   4 -10   -0.95   26.58
  -9  -4  10   14.80   25.22
  -9  -4  10   -3.36   45.20
  -9  -4  10  -11.10   24.59
  -9  -4  10  -34.65   32.61
   9   3 -10  139.84   50.83
   9   3 -10  109.78   65.02
   9   3 -10  120.83   43.54
   9   3 -10   53.16   65.32
  -9  -3  10  109.89   53.83
  -9  -3  10  115.04   49.59
  -9  -3  10  130.61   54.69
  -9  -3  10  155.82   58.03
   9   2 -10   45.12   31.54
   9   2 -10   62.33   19.66
   9   2 -10  -36.70   61.63
  -9  -2 -10  -52.29   73.74
   9   2 -10   27.35   48.06
   9   2  10   46.94   48.95
  -9  -2  10   29.36   33.04
   9   2  10   98.60   73.61
  -9  -2  10   23.63   37.47
  -9  -2  10   78.36   45.76
   9   1 -10   -7.61   79.10
  -9  -1 -10   51.38   74.04
   9   1 -10   47.94   20.39
   9   1 -10   36.77   55.87
   9   1 -10   32.18   32.78
   9   1  10   81.86   73.78
  -9  -1  10   56.90   38.73
  -9  -1  10   33.94   34.99
   9   1  10   72.80   47.64
   9   0 -10    5.65   13.80
   9   0 -10   17.88   28.95
  -9   0 -10  -23.60   60.76
   9   0 -10   60.31   66.66
  -9   0  10  -11.41   29.45
   9   0  10  -97.85   70.09
   9   0  10   23.98   41.70
  -9   0  10   59.05   38.50
   9  -1 -10   37.19   17.06
  -9   1 -10   33.78   49.73
   9  -1 -10 -115.28   81.70
   9  -1  10    1.41   60.44
   9  -1  10    9.78   44.78
  -9   2 -10   68.68   51.70
   9  -2  10   -3.27   59.39
   9  -2  10   83.36   58.77
  -9   3 -10  138.69   73.39
  -9   3 -10  207.77   75.05
   9  -3  10  208.31   78.72
   9  -3  10   42.71   81.79
  -9   4 -10   12.15   52.86
  -9   4 -10   17.33   67.04
   9  -4  10  -23.64   64.04
   9  -4  10   98.98   76.51
  -9   5 -10  114.21   61.67
  -9   5 -10  147.61   94.38
   9  -5  10   72.62  101.53
   9  -5  10   87.18   82.10
  -9   6 -10  170.93   68.07
   9  -6  10 -182.44  126.47
   9  -6  10  198.74   94.74
  -9   7 -10   86.23   64.21
   7   9 -10  113.01   43.79
   9  -7  10   47.54   96.28
   8   9 -10   31.47   31.71
   9  -8  10  -74.53   90.46
   9   9 -10   26.78   36.68
  10   8 -10  121.67   53.93
  10   8 -10   36.85   57.53
 -10  -8  10  356.70   65.73
  10   7 -10   56.45   33.14
  10   7 -10   40.53   32.44
 -10  -7  10   23.87   42.44
  10   6 -10  -12.64   29.69
  10   6 -10  -25.96   27.35
 -10  -6  10  -12.58   29.26
 -10  -6  10    1.47   33.53
  10   5 -10   50.91   44.56
  10   5 -10   89.74   38.69
 -10  -5  10  103.59   43.61
 -10  -5  10  151.55   45.87
  10   4 -10  103.24   52.80
  10   4 -10  134.71   45.87
 -10  -4  10  161.90   53.25
 -10  -4  10  117.70   53.21
 -10  -3  10  146.78   86.86
 -10  -2 -10  -87.36   85.53
  10   2 -10    7.58   51.85
  10   2 -10  -67.10   66.52
  10   2 -10   24.34   29.00
  10   2 -10   11.07   14.93
 -10  -2  10    2.90   36.84
 -10  -2  10    1.09   48.55
  10   2  10   50.77   81.43
  10   2  10   23.08   50.50
 -10  -2  10    4.74   29.96
  10   1 -10    2.44   29.17
  10   1 -10  -14.23   59.79
  10   1 -10   21.47   81.97
 -10  -1 -10  -12.41   78.13
  10   1 -10   -5.73   14.92
  10   1  10   46.22   80.98
 -10  -1  10  -49.17   58.85
 -10  -1  10   12.57   33.65
 -10  -1  10  -10.20   39.23
  10   1  10   13.19   47.55
  10   0 -10   60.09   78.50
  10   0 -10   94.66   32.95
  10   0 -10   -1.32   45.12
 -10   0 -10  244.60   74.83
  10   0 -10    1.45   98.07
  10   0  10   16.22   82.02
  10   0  10  187.99   54.75
 -10   0  10   87.75   49.40
 -10   0  10   87.81   51.04
  10  -1 -10 -152.23   91.39
  10  -1 -10  -11.07   15.61
 -10   1 -10   21.08   59.23
  10  -1  10 -127.94   63.18
  10  -1  10  -32.36   49.51
 -10   2 -10   57.43   63.48
 -10   2 -10  -10.36   57.29
  10  -2  10  -28.72   66.58
  10  -2  10   -6.13   63.40
 -10   3 -10  -59.71  101.05
 -10   3 -10  -53.70   99.67
 -10   4 -10  138.01   65.67
 -10   4 -10   34.51   84.22
  10  -4  10 -211.56   85.27
 -10   5 -10  107.82   61.20
 -10   5 -10   74.20   94.33
  10  -5  10  -46.45  102.26
  10  -5  10  -19.47   86.46
 -10   6 -10  -57.42   57.41
  10  -6  10 -200.29   91.45
  10  -6  10  -46.62  124.30
 -10   7 -10  100.50   60.78
  10  -7  10  -36.24   99.96
  10  -8  10  -11.71  105.67
  11   9 -10  133.00   61.41
  11   7 -10   69.48   37.38
  11   7 -10   18.13   35.20
 -11  -7  10    7.42   44.21
 -11  -7  10   11.72   37.03
  11   6 -10  -43.44   31.48
  11   6 -10   25.07   35.47
 -11  -6  10   80.30   33.77
 -11  -6  10   70.28   40.09
  11   5 -10   16.13   35.06
  11   5 -10   45.46   27.57
 -11  -5  10   21.19   32.11
 -11  -5  10   34.16   36.98
  11   4 -10   -1.11   32.37
  11   4 -10   32.33   22.59
 -11  -4  10   18.04   31.37
 -11  -4  10    8.91   33.39
  11   3 -10   13.30   30.94
 -11  -3 -10  -13.32   91.76
  11   3 -10   -4.36   20.76
 -11  -3  10   23.88   43.34
  11   3  10   38.56   92.73
 -11  -3  10  -24.64   30.77
 -11  -3  10    4.59   48.89
 -11  -3  10    3.80   33.65
  11   2 -10  -29.30   31.19
  11   2 -10  -61.81   59.95
  11   2 -10  -63.10   70.16
 -11  -2 -10    6.14   93.98
  11   2 -10    9.54   18.11
  11   2  10  -21.70   92.38
 -11  -2  10   49.69   35.07
 -11  -2  10   -6.41   41.91
  11   2  10  -39.21   56.71
 -11  -2  10   37.05   54.18
  11   1 -10  203.06   68.75
 -11  -1 -10  162.46  105.82
  11   1 -10   11.91  107.88
  11   1 -10  171.62   54.88
  11   1 -10  127.46   88.88
  11   1  10   15.61  108.58
 -11  -1  10  220.92   89.18
 -11  -1  10  151.42   71.78
 -11  -1  10  155.68   78.53
  11   1  10  208.06   75.81
  11   0 -10   -4.72   17.81
  11   0 -10  -10.70   83.44
 -11   0 -10  -34.63   77.67
  11   0 -10  -85.26   99.33
  11   0 -10    5.44   32.25
  11   0  10  -41.92   51.58
 -11   0  10   -3.54   34.44
 -11   0  10    6.39   44.12
  11  -1 -10  214.52  116.07
  11  -1 -10  236.78   47.25
 -11   1 -10  218.39   86.93
  11  -1  10 -150.40   86.92
  11  -1  10   59.71   73.74
  11  -2 -10   35.90  123.32
 -11   2 -10    3.43   68.41
 -11   2 -10  -23.37   69.71
  11  -2 -10    6.72   19.20
  11  -2  10 -178.99   78.09
  11  -2  10 -196.39   79.18
 -11   3 -10   59.19  116.05
 -11   3 -10   31.22  111.58
  11  -3  10  540.44  122.12
  11  -3  10  590.28  126.77
 -11   4 -10   18.15   66.12
 -11   4 -10   31.26   85.90
  11  -4  10  -75.59   85.77
  11  -4  10   19.67   92.79
 -11   5 -10    7.83   60.39
 -11   5 -10   62.52  104.22
  11  -5  10  -71.36   92.27
  11  -5  10   42.52  108.21
 -11   6 -10   37.24   63.24
 -11   6 -10  -85.26  121.78
  11  -6  10  -51.68  100.52
  11  -6  10   46.43  136.14
  11  -7  10   75.89  111.66
  12   9 -10   54.68   46.85
  12   8 -10   26.68   36.52
 -12  -8  10  -17.27   53.08
  12   7 -10   25.59   38.69
 -12  -7  10    2.08   36.77
  12   6 -10   48.10   37.92
  12   6 -10   50.16   33.23
 -12  -6  10  -22.56   36.37
 -12  -6  10   30.30   43.31
  12   5 -10    3.25   27.86
  12   5 -10   27.30   36.94
 -12  -5  10  -14.30   39.38
 -12  -5  10   -2.90   35.21
  12   4 -10   23.92   34.38
  12   4 -10   20.11   27.31
 -12  -4  10   58.19   36.05
 -12  -4  10   30.75   37.14
  12   3 -10  -18.39   23.74
  12   3 -10   42.84   35.66
 -12  -3  10   36.97   46.21
 -12  -3  10  -25.52   55.30
 -12  -3  10  -11.48   37.75
 -12  -3  10  -31.06   36.22
 -12  -2 -10  -67.55  108.52
  12   2 -10   19.05   22.63
  12   2 -10   38.93   36.44
  12   2 -10  130.26   71.60
  12   2 -10  -46.28   81.18
 -12  -2  10  -21.26   46.85
 -12  -2  10   30.52   43.38
  12   2  10  -30.92   62.49
 -12  -2  10   37.69   33.29
 -12  -2  10   92.65   63.33
  12   1 -10   12.37   17.72
  12   1 -10   -4.09   36.63
 -12  -1 -10   43.08  103.03
  12   1 -10  -48.92   76.35
  12   1 -10  -60.82   93.98
 -12  -1  10   68.23   74.42
  12   1  10  -27.33   57.60
 -12  -1  10   74.87   47.70
 -12  -1  10   12.00   38.37
  12   0 -10  167.76  114.74
  12   0 -10   69.67  129.36
 -12   0 -10  176.99  112.76
  12   0 -10  234.79   63.43
 -12   0  10  165.17  100.20
 -12   0  10   90.54   83.84
  12   0  10  162.46   85.86
  12  -1 -10   18.27   20.60
  12  -1 -10   27.64  107.50
 -12   1 -10 -167.50   82.94
 -12   1  10  -29.16   49.11
  12  -1  10    9.13   63.84
 -12   2 -10   55.46   84.70
 -12   2 -10  167.16   87.66
  12  -2 -10  203.63  138.28
  12  -2  10  -33.38   83.52
 -12   3 -10  198.75   81.07
 -12   3 -10    8.50   91.19
 -12   4 -10  -73.55  103.43
  12  -4  10 -121.48   99.47
 -12   7 -10   24.02   69.12
  12  -7  10 -462.54  176.54
  12  -8  10 -168.68  125.55
  13   9 -10   64.45   47.34
 -13  -9  10  -30.80   47.11
  13   8 -10   37.89   43.49
 -13  -8  10  -43.25   42.82
 -13  -8  10  -75.16   56.72
  13   6 -10   37.81   40.80
 -13  -6  10    8.62   40.97
  13   5 -10  -30.79   31.71
  13   5 -10  -11.88   39.04
 -13  -5  10  -22.61   44.00
 -13  -5  10   -3.18   38.90
 -13  -4  10   -1.58   54.00
 -13  -4  10   66.07   57.00
 -13  -3 -10 -173.48  122.95
  13   3  10    1.51  122.54
  13   3  10 -115.37   72.37
  13   2 -10  -86.22   83.28
 -13  -2 -10 -119.91  122.39
  13   2  10   23.03  108.66
 -13  -2  10   91.02   53.17
 -13  -2  10    9.57   73.05
  13   1 -10  166.93   94.45
  13   1 -10   32.48  111.62
  13   1  10  201.16  105.62
 -13  -1  10  -14.78   91.26
 -13  -1  10   87.75   62.65
  13   0 -10 -186.50  114.22
  13   0 -10 -152.53  101.09
 -13   0  10   56.22  101.28
 -13   0  10  -38.51   51.82
  13   0  10  -25.09   86.19
  13  -1 -10   82.41  129.06
 -13   1 -10  295.11  104.94
  13  -1  10   70.83   98.91
 -13   1  10   91.23   67.68
  13  -2 -10  106.28  148.86
 -13   2 -10  -42.58   96.28
  13  -2  10   58.33   98.54
 -13   3 -10  -82.01   96.40
  13  -3  10 -291.49  120.03
 -13   4 -10  903.46  286.23
 -13   5 -10   39.58  131.49
 -13   5 -10   55.30   78.39
  13  -5  10    6.98  145.47
  13  -5  10  -70.82  120.59
 -13   6 -10   40.96  149.57
 -13   6 -10  110.78   78.71
  13  -6  10  -96.28  155.66
  13  -6  10  -76.06  126.53
 -13   7 -10   44.55   81.03
 -13   7 -10   97.25  168.22
  13  -7  10  128.84  131.63
  13  -7  10   49.87  158.24
  13  -8  10   46.21  137.55
 -14  -3 -10   34.80  129.72
  14   3  10  -93.11   75.97
  14   3  10   48.70  127.68
 -14  -2 -10  246.98  140.31
 -14  -2  10  -10.74   54.73
 -14  -2  10  -50.61   79.40
  14   2  10   15.70   72.91
  14   2  10  123.96  118.14
  14   1 -10  138.10  100.52
  14   1 -10 -218.63  115.92
 -14  -1 -10 -171.19  130.75
 -14  -1  10  -94.30   94.23
  14   1  10 -154.25  104.79
 -14  -1  10   35.04   57.23
  14   1  10  -45.32   73.43
  14   0 -10  -74.37  115.73
 -14   0 -10  -99.60  123.47
  14   0  10  -54.58   92.59
  14   0  10   -1.57   76.02
 -14   0  10  -32.10  112.03
 -14   1 -10  -18.29  111.41
 -14   1 -10  -31.28  113.15
  14  -1  10  -98.64   86.78
  14  -1  10  -29.68  103.40
 -14   2 -10   64.62  110.65
 -14   2 -10  -44.06  102.76
  14  -2  10   83.87  107.36
  14  -2  10  -26.84   99.98
 -14   3 -10 -128.00  100.79
 -14   3 -10   16.87  121.48
  14  -3  10  -19.46  118.01
  14  -3  10  -76.55  124.73
 -14   4 -10   33.80  136.21
 -14   4 -10   43.03   97.48
  14  -4  10   15.56  135.74
  14  -4  10  301.60  130.79
 -14   5 -10  -83.73   86.95
 -14   5 -10  -17.12  144.59
  14  -5  10   29.45  131.42
  14  -5  10  126.31  155.21
 -14   6 -10   90.99  162.79
 -14   6 -10   19.18   86.88
  14  -6  10  -58.64  134.61
  14  -6  10  163.35  164.64
 -14   7 -10  182.35   91.25
 -14   7 -10   90.48  184.20
  14  -7  10  -10.75  147.43
  14  -7  10   14.58  177.77
 -14   8 -10 -131.71  205.38
  14  -8  10  318.41  163.00
 -15  -3 -10  106.34  144.28
  15   3  10 -138.52  138.29
  15   3  10  -85.50   82.38
 -15  -2 -10  221.10  156.14
  15   2  10  -59.96   81.27
  15   2  10  124.13  121.99
 -15  -1 -10   26.70  150.51
  15   1  10 -171.68  106.00
 -15  -1  10   17.93   59.61
  15   1  10   38.02   78.43
 -15   0 -10    7.86  147.69
  15   0 -10   37.23  136.61
  15   0  10  -45.24  119.28
  15   0  10   78.01   95.62
 -15   0  10  280.64  122.89
 -15   0  10   75.10   79.53
 -15   1 -10  -97.69  118.03
  15  -1 -10 -133.19  143.88
 -15   1 -10  -24.69  132.19
 -15   1  10   86.49   62.71
  15  -1  10  -70.38  106.92
  15  -1  10  161.43   89.41
 -15   1  10  -78.14  147.98
  15  -2 -10  186.65  174.07
 -15   2 -10  186.54  127.19
 -15   2 -10   85.97  119.91
  15  -2  10   61.02  114.36
  15  -2  10  -83.04  106.61
 -15   3 -10   36.14  134.17
 -15   3 -10   24.29  106.74
  15  -3  10  210.18  129.02
  15  -3  10  -49.82  128.07
 -15   4 -10  -59.78  148.37
 -15   4 -10  132.51  103.32
  15  -4  10  255.02  148.39
  15  -4  10 -133.25  146.25
 -15   5 -10   81.49   97.23
 -15   5 -10 -137.81  164.91
  15  -5  10  103.51  142.93
  15  -5  10  130.20  166.18
 -15   6 -10  122.29  126.34
 -15   6 -10  -42.08  207.77
  15  -6  10  433.70  175.42
  15  -6  10  427.09  201.23
 -15   7 -10   59.09  193.73
 -15   7 -10   84.67   94.71
  15  -7  10  149.44  160.07
  15  -7  10  -68.17  188.63
 -15   8 -10  326.16  212.02
 -15   8 -10   91.74   94.93
  15  -8  10 -133.32  165.36
 -16  -4 -10   72.61  159.65
 -16  -3 -10 -329.77  175.85
  16   3  10   13.61  139.27
  16   3  10  121.90   93.89
 -16  -2 -10  387.83  344.30
  16   2  10  195.28  341.60
  16   2  10  181.06  248.57
 -16  -1 -10  208.04  179.65
 -16  -1  10  -14.08   68.78
  16   1  10 -210.42  112.65
 -16   0 -10 -167.49  136.27
  16   0 -10 -191.82  140.55
 -16   0 -10   36.13  167.02
 -16   0  10  -84.49   68.38
 -16   0  10  120.94  134.02
 -16   1 -10  -56.90  157.78
  16  -1 -10 -149.55  162.66
 -16   1 -10  -18.14  129.71
 -16   1  10   -9.91   66.37
 -16   1  10  279.41  162.46
 -16   2 -10  154.57  394.18
 -16   2 -10  240.12  379.49
  16  -2 -10 1117.77  413.84
 -16   2  10  447.89  416.77
 -16   3 -10   54.19  121.52
 -16   3 -10 -231.95  157.60
 -16   4 -10   32.18  161.74
 -16   4 -10  -39.84  110.48
  16  -4  10 -294.89  168.43
  16  -4  10 -138.55  156.21
 -16   5 -10   40.61  107.75
 -16   5 -10  -30.22  182.42
  16  -5  10   22.21  162.85
  16  -5  10  -69.12  180.90
 -16   6 -10   37.57  114.61
 -16   6 -10   60.80  206.70
  16  -6  10  291.15  177.77
  16  -6  10  191.55  201.69
 -16   7 -10  139.92  219.51
 -16   7 -10  206.93  105.35
  16  -7  10  134.63  173.75
  16  -7  10 -301.26  206.18
 -16   8 -10  126.71  104.96
 -16   8 -10   52.69  225.89
  16  -8  10 -144.25  180.38
 -17  -4 -10   24.90  180.32
 -17  -3 -10   12.16  189.12
  17   3  10  125.09  106.77
 -17  -2 -10   48.22  198.73
  17   2  10  103.63  106.30
  17   2  10   63.54  123.31
 -17  -1 -10   34.86  201.39
  17   1  10 -224.15  127.19
  17   1  10    9.47  101.53
 -17   0 -10  -80.69  145.40
 -17   0 -10   26.02  179.90
 -17   0  10   22.64  139.32
  17   0  10 -125.27  131.39
 -17   0  10  141.45   73.87
  17   0  10   77.60  104.91
 -17   1 -10  -98.38  176.18
 -17   1 -10   40.46  140.79
  17  -1 -10   75.04  171.12
  17  -1  10  169.64  134.15
  17  -1  10   45.12  112.42
 -17   1  10   39.15   74.74
 -17   1  10  137.97  167.52
  17  -2 -10   61.65  208.83
 -17   2 -10  123.59  179.23
 -17   2 -10  156.66  138.88
 -17   2  10  126.92  199.37
  17  -2  10    2.55  124.86
  17  -2  10   42.46  142.95
 -17   3 -10   15.06  131.45
 -17   3 -10   78.98  173.21
  17  -3  10   58.04  166.48
  17  -3  10  132.68  147.67
 -17   4 -10   54.63  123.31
 -17   4 -10  -41.83  180.32
  17  -4  10  -91.00  181.74
  17  -4  10 -125.14  179.14
 -17   5 -10    4.89  204.13
 -17   5 -10  -30.43  116.05
  17  -5  10  279.61  208.89
  17  -5  10 -141.16  183.47
 -17   6 -10  -89.20  118.05
 -17   6 -10    5.22  222.41
 -17   7 -10  257.15  190.38
 -17   7 -10  132.09  306.75
 -17   8 -10  184.60  253.91
  17  -8  10 -346.41  201.52
 -18  -3 -10 2103.61  701.72
 -18  -2 -10 -625.21  269.37
  18   2  10 -329.59  132.70
 -18  -1 -10 -333.32  234.08
 -18  -1 -10   28.05  160.45
  18   1  10  -65.74  147.97
  18   1  10   63.98  115.78
 -18   0 -10  135.10  231.82
 -18   0 -10  -56.03  158.14
  18   0  10 -109.66  147.79
  18   0  10  196.41  116.22
  18  -1 -10 -266.97  190.92
 -18   1 -10   86.65  213.48
 -18   1 -10 -112.38  159.24
  18  -1  10   53.35  123.97
 -18   1  10   -3.86   78.19
 -18   1  10  -70.78  186.69
 -18   2 -10 -278.83  224.13
 -18   2 -10 -200.19  171.43
 -18   2  10   98.02  231.96
 -18   3 -10  699.02  409.72
 -18   3 -10  291.30  359.02
  18  -3  10  606.01  339.45
 -18   4 -10 -194.03  224.98
 -18   4 -10 -263.79  154.46
 -18   5 -10  -44.27  225.81
 -18   5 -10   74.20  131.40
  18  -5  10   17.74  228.66
  18  -5  10 -309.05  229.11
 -18   6 -10 -311.47  141.04
 -18   6 -10 -462.49  251.07
  18  -6  10  589.34  238.97
  18  -6  10  -99.27  219.94
 -18   7 -10 -304.99  130.49
 -18   7 -10  340.49  250.39
  18  -7  10   -4.14  216.14
  18  -7  10  168.96  245.35
 -18   8 -10   44.28  276.44
  18  -8  10  175.92  226.85
 -19  -3 -10 -531.38  258.95
  19   3  10 -156.55  138.15
 -19  -2 -10  -18.88  191.58
 -19  -2 -10  628.77  270.39
  19   2  10 -225.14  166.73
  19   2  10  112.54  135.68
 -19  -1 -10 -214.69  268.16
 -19  -1 -10   24.97  173.70
  19   1  10   45.19  129.43
  19   1  10  -23.37  163.65
 -19   0 -10  -31.28  182.31
 -19   0 -10 -193.51  273.64
  19   0  10  212.59  164.46
  19   0  10 -232.94  138.18
 -19   1 -10  368.25  174.24
 -19   1 -10 -127.10  249.95
 -19   1  10  -42.02   86.74
  19  -1  10  211.48  171.10
  19  -1  10  -24.20  142.72
  19  -2 -10  151.54  242.44
 -19   2 -10  161.26  170.71
 -19   2 -10  -65.34  242.54
  19  -2  10 -265.96  162.06
 -19   2  10  -68.86  230.22
  19  -2  10 -302.38  192.16
 -19   3 -10 -211.36  239.97
 -19   3 -10 -104.60  163.79
  19  -3  10  190.98  210.15
  19  -3  10  -46.47  177.70
 -19   4 -10  352.24  157.51
 -19   4 -10   12.22  241.34
  19  -4  10 -442.55  237.02
  19  -4  10  -71.24  196.06
 -19   5 -10  374.07  157.14
 -19   5 -10   76.17  254.62
  19  -5  10   52.96  244.40
  19  -5  10 -120.38  258.01
 -19   6 -10   52.05  274.80
  19  -6  10  110.89  244.06
 -20   2  10   17.25  249.51
   0   1 -11  263.89  204.71
   1   0 -11  609.83  205.35
   1   0 -11  788.92  225.89
  -1   0  11  949.00  230.96
   1   1 -11    5.91    7.62
   1   1 -11   26.08   19.14
   1  -1  11    6.79   22.53
  -1  -1  11   14.91   16.87
   2   1 -11  185.94   54.75
   2   1 -11  183.27   65.42
  -2  -1  11  126.24   66.22
   1  -2  11  145.43   71.71
  -2   0 -11   20.07    6.81
   0   2 -11    1.37    7.26
   2   0 -11   -2.97    8.24
   2   0 -11  -11.52   21.06
   0  -2  11    3.18   13.87
  -2   0  11   -4.33   16.79
   1   2 -11  203.22   65.23
  -2   1 -11  113.74   68.78
  -2   1 -11  208.00   59.63
   2  -1  11  139.38   68.38
  -1  -2  11  177.73   65.48
   2  -1  11  177.77   71.73
  -2   2 -11   -6.95   27.98
   2   2 -11    8.09   17.53
  -2   2 -11   12.08   17.06
   2   2 -11   -1.56    8.06
   2  -2  11    4.30   14.32
   2  -2  11   18.75   21.02
  -2  -2  11   12.57   15.46
   2  -2  11  -30.44   28.14
   3   2 -11   53.10   23.57
   3   2 -11   20.34   19.46
  -2   3 -11   50.45   23.17
  -2   3 -11   38.10   22.35
  -3  -2  11   63.25   22.43
   2  -3  11   -3.98   22.59
   2  -3  11   13.25   29.37
  -1   3 -11    0.48   20.23
  -1   3 -11    5.45   14.07
   3   1 -11   -6.54   20.02
  -1   3 -11    0.44    7.15
  -3  -1  11   -6.87   18.45
   1  -3  11   11.08   20.72
   1  -3  11  -14.33   15.11
   3   0 -11   43.49   31.19
  -3   0 -11   12.17   21.46
   0   3 -11   73.86   21.48
   0   3 -11   68.67   26.29
   3   0  11  150.72   36.23
   0  -3  11   74.38   24.70
  -3   0  11   52.24   28.89
  -3   1 -11   -1.25   32.92
   1   3 -11    3.42    8.30
  -3   1 -11    5.43    6.22
   1   3 -11   15.65   14.98
  -1  -3  11   -2.68   13.41
   3  -1  11    0.73   30.02
   3  -1  11   13.99   15.17
   2   3 -11   42.23   20.20
   2   3 -11   59.59   25.73
  -3   2 -11   51.57   34.89
  -3   2 -11   75.56   19.96
  -3   2 -11   54.41   28.06
   3  -2  11   39.53   28.76
   3  -2  11   66.33   39.69
  -2  -3  11   58.38   23.77
   3  -2  11   49.46   25.73
   3   3 -11    4.93   18.21
  -3   3 -11   -3.40   17.52
  -3   3 -11    9.05   19.29
  -3   3 -11   43.97    9.58
  -3   3 -11   15.16   22.16
   3  -3  11  -15.34   15.71
  -3  -3  11   -6.58   16.24
   3  -3  11   36.32   11.15
   4   3 -11   21.52   19.31
   4   3 -11    1.99   15.91
   4   3 -11   10.08   10.68
  -3   4 -11   25.18   24.49
  -3   4 -11   25.16   21.80
  -4  -3  11    9.77   16.76
  -4  -3  11    8.52   15.68
  -4  -3  11   10.23   14.76
  -2   4 -11  320.49   97.07
   4   2 -11  208.93  106.27
   4   2 -11  276.69  105.43
   4   2 -11  239.67   94.06
  -2   4 -11  313.30  110.46
  -2   4 -11  217.49  102.49
  -4  -2  11  264.75  108.16
   2  -4  11  440.76  102.79
   4   1 -11    3.81   21.22
   4   1 -11    5.15    8.95
  -1   4 -11    5.06    8.67
  -1   4 -11    1.55   12.98
  -1   4 -11    9.70   12.11
   1  -4  11    2.50   11.35
   1  -4  11   -6.72   12.27
   1  -4  11   -8.38   15.36
  -4  -1  11   -5.11   20.28
   0   4 -11    4.84   13.09
   0   4 -11   -0.58    9.31
   4   0 -11    1.13   22.90
  -4   0 -11   -0.82    6.60
   4   0 -11    0.63    8.31
   0  -4  11    4.83   11.55
   0  -4  11   -1.58   12.30
  -4   0  11    8.77   19.47
  -4   1 -11    5.24    5.82
   1   4 -11   -4.51   13.75
   1   4 -11    9.84   10.41
  -1  -4  11    2.09   13.02
  -1  -4  11    8.72   12.08
  -4   2 -11  234.06  106.13
   2   4 -11  203.01  108.73
  -4   2 -11  324.75  110.85
  -4   2 -11  305.01  119.19
   2   4 -11  253.56  103.11
   4  -2  11  271.91  118.84
  -2  -4  11  343.72  108.37
   4  -2  11  447.81  108.32
  -2  -4  11  329.42  106.58
   3   4 -11    4.52   16.80
  -4   3 -11   15.75    8.45
  -4   3 -11    6.14   17.96
   3   4 -11   18.12   12.21
  -4   3 -11    9.53   21.99
   4  -3  11   24.68   15.58
   4  -3  11   13.65   10.73
  -3  -4  11   12.73   15.72
  -3  -4  11   14.75   15.29
   4  -4  11  -12.09   98.23
   5   4 -11   11.44   13.62
   5   4 -11   56.22   25.23
   5   4 -11   -2.98   19.68
  -5  -4  11   13.96   20.62
  -5  -4  11   12.51   24.39
  -5  -4  11   18.76   18.28
  -5  -4  11   12.05   18.66
   5   3 -11  225.87   88.97
  -3   5 -11  263.07   83.66
   5   3 -11  265.88   81.17
   5   3 -11  163.86  122.67
   5   3 -11  227.95   97.73
  -5  -3  11  216.78   89.87
  -5  -3  11  270.76   90.27
  -5  -3  11  212.20   96.66
   3  -5  11  323.14   86.49
  -2   5 -11    2.05   17.58
   5   2 -11   33.32   21.98
  -2   5 -11   -8.34   14.99
   5   2 -11   19.93   11.82
   5   2 -11   44.20   25.51
  -5  -2  11   10.75   20.87
   2  -5  11    4.24   17.30
   5   1 -11   32.60   39.65
   5   1 -11   51.87   31.10
  -1   5 -11   56.48   24.43
  -1   5 -11   77.63   22.84
   5   1 -11   66.01   21.34
  -5  -1  11   70.92   31.50
   1  -5  11   48.24   30.46
   5   1  11   13.86   47.44
   1  -5  11   68.39   23.95
  -5   0 -11   -6.66   45.50
   0   5 -11   -3.89   13.89
   5   0 -11   -1.17   25.67
   0   5 -11   -8.48   11.67
  -5   0 -11  -10.02    6.79
   5   0 -11   -7.18    9.03
   5   0  11  -32.62   32.81
   5   0  11  -29.79   39.42
   0  -5  11    2.56   13.84
  -5   0  11   -0.85   21.33
   0  -5  11    3.49   14.28
  -5   1 -11   57.47   18.99
   1   5 -11   52.50   20.60
   1   5 -11   52.07   23.30
  -5   1 -11   33.06   44.50
  -1  -5  11   49.49   22.62
   5  -1  11 -111.17   52.60
   5  -1  11   96.38   33.38
  -5   2 -11  -39.02   30.91
  -5   2 -11   17.19    7.86
   2   5 -11   39.40   13.65
   2   5 -11   10.95   16.06
  -5   2 -11    2.32   35.22
  -2  -5  11    9.81   16.49
   5  -2  11  -46.38   25.84
  -5   3 -11  263.64   85.85
  -5   3 -11  222.31   99.32
   3   5 -11  275.91   88.16
   3   5 -11  294.38   84.52
  -5   3 -11  290.64  100.12
  -5   3 -11  225.48   91.70
   5  -3  11  215.15   86.78
   5  -3  11  106.53   97.28
  -3  -5  11  384.21   87.58
  -5   4 -11   13.23   18.31
  -5   4 -11    5.91   33.38
  -5   4 -11   16.24   13.55
   4   5 -11   20.13   18.77
  -5   4 -11   32.23   30.91
   5  -4  11   26.06   15.69
   5  -4  11  162.60   39.08
   5  -4  11   47.66   51.34
   5  -4  11   20.90   15.11
   5   5 -11   11.53   18.27
  -5   5 -11    2.26   14.19
   5   5 -11    6.74   15.53
  -5   5 -11  -15.34   34.48
   5  -5  11  -26.70   42.75
   5  -5  11    0.97   76.10
  -5  -5  11   -1.74   19.84
  -5  -5  11    4.06   17.89
   6   5 -11  175.43   46.70
   6   5 -11   87.99   50.11
  -6  -5  11  101.46   50.79
  -6  -5  11  127.01   50.72
   5  -6  11  111.06   72.11
  -4   6 -11 1000.35  292.59
   6   4 -11  738.76  259.65
  -6  -4  11  746.46  278.36
  -6  -4  11 1110.53  273.29
  -6  -4  11  897.03  283.79
  -6  -4  11  479.73  286.19
   6   3 -11   62.18   52.22
  -3   6 -11   27.60   17.75
   6   3 -11   10.97   22.58
  -3   6 -11   32.98   16.99
   6   3 -11   30.85   14.45
   6   3 -11   44.19   32.58
  -6  -3  11   20.97   24.11
   3  -6  11    8.11   38.53
  -6  -3  11   27.58   21.85
  -6  -3  11   17.06   24.74
   3  -6  11   35.57   20.17
   6   2 -11 1480.40  381.37
   6   2 -11 1082.85  431.44
   6   2 -11 1228.40  427.02
  -2   6 -11  944.92  425.70
  -2   6 -11 1101.46  394.48
  -6  -2  11  943.05  434.22
  -6  -2  11 1265.15  465.70
  -6  -2  11 1329.30  447.67
   6   1 -11  153.26   61.40
  -1   6 -11  110.89   48.37
   6   1 -11  204.88   54.75
  -1   6 -11  135.38   45.72
   6   1 -11  147.52   43.67
   6   1  11   28.92   67.82
  -6  -1  11  152.99   56.98
   1  -6  11  120.45   47.81
   6   0 -11   -0.69   10.70
   0   6 -11    4.93   15.96
  -6   0 -11   -3.96    6.72
  -6   0 -11    5.20   50.58
   6   0 -11  -20.79   26.86
   0   6 -11  -14.12   15.29
   0  -6  11   -1.60   17.02
  -6   0  11    7.23   24.74
   6   0  11  -44.27   35.87
  -6   1 -11  128.94   45.30
   1   6 -11  128.62   46.61
   6  -1 -11  122.71   44.12
   1   6 -11  167.91   44.62
  -6   1 -11  138.48   61.03
   6  -1  11   95.61   53.29
  -1  -6  11  103.82   46.60
   2   6 -11 1178.16  449.01
  -6   2 -11 1572.26  465.80
  -6   2 -11 1153.83  463.29
   2   6 -11 1370.73  466.03
  -2  -6  11 1367.64  461.12
   6  -2  11 1509.09  459.31
  -6   3 -11   14.14   10.14
   3   6 -11   12.83   15.14
   3   6 -11   12.52   17.43
  -6   3 -11    7.07   20.67
  -6   3 -11   22.07   31.97
  -6   3 -11   14.45   35.92
   6  -3  11  -46.61   43.71
  -3  -6  11   17.76   20.15
   6  -3  11   14.15   10.99
  -6   4 -11  981.80  290.50
   4   6 -11  870.23  273.57
  -6   4 -11  446.90  274.94
  -6   4 -11  901.18  312.59
  -6   4 -11  884.11  295.71
   6  -4  11  996.88  286.72
   6  -4  11  521.64  307.30
   5   6 -11  138.58   57.64
  -6   5 -11  166.83   66.87
   5   6 -11  249.53   55.86
   6  -5  11  121.05   99.50
   6  -5  11  123.59   76.58
  -5  -6  11  134.88   58.66
   6   6 -11    2.44   20.01
   6   6 -11  -16.31   21.06
  -6   6 -11    2.19   44.24
   6  -6  11  -91.03   97.86
  -6  -6  11   -1.07   23.74
   6  -6  11    4.88   57.34
   7   6 -11   -3.89   21.18
   7   6 -11   33.84   24.71
  -7  -6  11   28.72   27.80
   6  -7  11   32.51   62.26
  -5   7 -11   -7.11   17.32
   7   5 -11  -12.03   18.32
   7   5 -11   -9.52   22.26
  -7  -5  11   13.21   23.48
  -7  -5  11   12.52   20.49
   5  -7  11  -15.84   54.72
   7   4 -11   76.08   30.21
  -4   7 -11   65.70   34.06
   7   4 -11   52.36   36.60
  -7  -4  11  128.20   35.64
  -7  -4  11   55.02   34.93
   4  -7  11  126.85   57.53
   7   3 -11  161.90   67.30
   7   3 -11  225.85   75.62
  -3   7 -11  221.67   76.32
  -7  -3  11  219.36   77.82
  -7  -3  11  153.01   77.54
  -2   7 -11   85.93   41.44
   7   2 -11   68.16   45.16
   7   2 -11  163.92   36.33
  -7  -2  11   87.55   46.83
   2  -7  11   75.29   43.08
  -1   7 -11  107.11   48.18
   7   1 -11   93.79   54.66
  -7  -1 -11    2.15   73.30
   7   1 -11  175.47   43.28
  -1   7 -11  111.85   46.06
   7   1  11  171.32   60.49
  -7  -1  11  121.28   57.31
   7   1  11  164.88   72.97
   1  -7  11  125.13   48.90
   0   7 -11  497.09  132.57
  -7   0 -11  318.05  151.75
   7   0 -11  281.90  160.89
   0   7 -11  438.84  139.86
   7   0 -11  260.86  152.52
  -7   0  11  284.38  164.34
   7   0  11  517.95  139.44
   0  -7  11  393.14  137.48
   7   0  11  430.41  165.49
   1   7 -11  101.62   45.63
  -7   1 -11  121.76   60.07
   1   7 -11  176.82   43.39
   7  -1 -11   88.03   42.11
   7  -1  11  128.89   52.92
  -1  -7  11  102.16   45.79
   7  -1  11   88.54   73.38
   2   7 -11  103.50   39.52
   2   7 -11   74.15   40.95
  -7   2 -11  120.45   51.42
   7  -2  11  151.55   52.27
  -2  -7  11   73.30   41.35
   7  -2  11  108.43   61.29
  -7   3 -11  237.93   84.14
   3   7 -11  198.74   75.38
   3   7 -11  237.56   72.35
  -7   3 -11  167.74   91.61
   7  -3  11  111.21   93.43
   7  -3  11  312.51   87.52
  -3  -7  11  186.25   75.91
  -7   4 -11   78.52   54.05
   4   7 -11   67.59   36.27
  -7   4 -11  105.38   51.43
   7  -4  11  122.27   66.43
   7  -4  11  111.14   58.31
  -7   5 -11   16.97   57.35
  -7   5 -11   -1.72   39.49
   5   7 -11   16.26   20.37
   5   7 -11    1.40   21.77
   7  -5  11  -24.30   81.37
   7  -5  11  -15.39   55.69
  -5  -7  11    9.32   25.76
   6   7 -11   -3.59   23.75
  -7   6 -11   34.57   44.64
   6   7 -11  -13.27   23.52
   7  -6  11   17.77   64.46
  -6  -7  11   12.44   26.88
   7  -6  11   98.62   97.90
   7   7 -11   -9.37   25.76
   7   7 -11  -17.22   27.04
   7  -7  11   -8.86   71.09
  -7  -7  11  -10.67   29.74
   8   7 -11   66.33   31.23
   8   7 -11   49.73   31.99
  -8  -7  11   27.30   35.45
   7  -8  11    9.62   74.96
   8   6 -11   19.71   25.75
   8   6 -11   11.06   22.26
  -8  -6  11   16.50   28.13
   6  -8  11   33.26   66.10
  -8  -6  11   -4.57   24.03
  -5   8 -11  298.17  129.85
   8   5 -11  328.05  122.67
   8   5 -11  386.23  115.04
  -8  -5  11  402.02  122.93
   5  -8  11  269.91  143.33
  -8  -5  11  352.38  123.71
   8   4 -11   27.02   30.94
   8   4 -11   68.09   22.69
  -4   8 -11   36.88   25.59
  -8  -4  11   69.20   29.48
  -8  -4  11   35.64   29.62
   8   3 -11  223.51   79.06
   8   3 -11  205.62  108.03
  -3   8 -11  247.32   90.83
   8   3 -11  160.93   89.22
  -8  -3  11  281.60   92.66
  -8  -3  11  231.84   91.89
  -8  -3  11  186.28   94.24
   8   2 -11  173.88   84.59
   8   2 -11  270.66   89.32
  -2   8 -11  235.17   81.61
   8   2 -11  186.85   72.24
   8   2 -11  247.68  113.78
  -8  -2  11  177.12   89.08
   8   2  11  218.01  106.48
  -8  -2  11  215.75   88.49
  -8  -2  11  186.11   90.08
  -8  -1 -11   27.27   78.74
  -1   8 -11  120.75   48.27
   8   1 -11  111.19   42.10
   8   1 -11   53.85   66.05
   8   1 -11   80.81   55.25
  -8  -1  11  137.48   59.44
   8   1  11   85.45   80.32
  -8  -1  11  112.22   58.98
   8   1  11  263.92   61.28
   0   8 -11    0.80   18.62
   8   0 -11   -2.67   31.10
  -8   0 -11  -11.56   60.10
   8   0 -11    4.80   13.27
   8   0 -11  -26.96   61.50
   8   0  11   11.39   39.13
  -8   0  11  -18.72   28.73
   8   0  11   32.79   63.79
   8  -1 -11  158.88   53.15
  -8   1 -11  183.73   70.78
   1   8 -11   92.74   56.67
   8  -1 -11  178.85   98.70
   8  -1  11  205.16   63.85
   8  -1  11  174.23   83.71
  -1  -8  11  151.73   58.40
   2   8 -11  274.63   86.45
  -8   2 -11  239.47   94.03
   2   8 -11  263.49   82.49
   8  -2  11  344.46   93.14
   8  -2  11  157.01  103.22
  -2  -8  11  164.16   86.68
  -8   3 -11  271.96  114.25
   3   8 -11  390.65  103.69
   3   8 -11  323.79   99.79
  -8   3 -11  337.56  122.17
  -3  -8  11  276.27  104.32
   8  -3  11  105.39  126.07
   8  -3  11  424.12  115.52
   4   8 -11   52.83   28.09
  -8   4 -11   54.08   48.73
  -8   4 -11   50.68   56.05
   8  -4  11   18.98   65.24
   8  -4  11   51.74   61.25
   5   8 -11  257.40  115.38
  -8   5 -11  297.59  131.91
   5   8 -11  343.35  120.56
  -8   5 -11  275.08  152.41
  -5  -8  11  345.74  121.83
   8  -5  11  454.30  143.07
   8  -5  11  431.49  155.16
   6   8 -11   14.97   25.57
  -8   6 -11   17.95   46.86
   6   8 -11   -6.88   24.56
  -6  -8  11   -2.98   31.91
   8  -6  11 -222.79  106.51
   8  -6  11  -11.29   70.31
  -8   7 -11   48.63   52.87
   7   8 -11   21.04   29.05
   7   8 -11   30.08   27.25
  -7  -8  11   23.83   36.93
   8  -7  11   39.39   79.23
   8   8 -11  -18.80   27.64
   8   8 -11  -26.21   29.69
  -8  -8  11   30.65   36.95
   8  -8  11    1.54   79.88
   9   8 -11   48.83   37.16
   9   8 -11   15.30   38.43
  -9  -8  11  165.01   45.89
   9   7 -11   45.89   32.09
   9   7 -11   28.93   34.52
  -9  -7  11   82.31   37.95
   9   6 -11    9.20   25.25
   9   6 -11   18.47   27.90
  -9  -6  11   -3.26   27.42
  -9  -6  11    1.38   31.85
   9   5 -11  234.24   77.86
   9   5 -11  143.43   69.91
  -9  -5  11  201.27   78.24
  -9  -5  11  159.49   77.93
   9   4 -11  301.73  111.54
   9   4 -11  367.72  121.14
  -9  -4  11  258.31  120.75
  -9  -4  11  361.12  125.23
   9   3 -11   -4.15   27.73
   9   3 -11    0.92   15.17
  -9  -3  11    9.26   25.65
  -9  -3  11  -17.97   33.60
  -9  -3  11    3.28   36.86
  -9  -3  11   -6.82   27.67
   9   2 -11  177.82   54.16
   9   2 -11  217.09   66.92
   9   2 -11  162.93   98.67
  -9  -2 -11  -30.02   92.74
   9   2 -11  154.71   74.16
  -9  -2  11  163.46   71.94
  -9  -2  11  102.29   68.94
   9   2  11  113.46   96.30
  -9  -2  11  190.06   73.19
   9   1 -11   69.06   20.24
   9   1 -11   49.37   35.31
   9   1 -11   13.68   56.91
   9   1 -11  122.41   86.83
  -9  -1 -11  -36.63   75.53
  -9  -1  11   42.81   37.03
   9   1  11   -6.66   76.07
  -9  -1  11   51.83   39.66
   9   1  11  -39.28   48.96
   9   0 -11   50.25   74.67
   9   0 -11   55.26   35.19
  -9   0 -11   22.17   67.93
   9   0 -11   42.09   19.59
  -9   0  11   33.39   35.38
   9   0  11 -101.18   74.47
   9   0  11   83.92   44.71
  -9   1 -11   35.32   55.55
   9  -1 -11   50.75   19.28
   9  -1 -11    5.54   89.53
   9  -1  11   -2.26   68.58
   9  -1  11   -4.38   46.22
  -9   2 -11  296.89   84.45
   9  -2  11  215.53   84.10
   9  -2  11   76.49   94.05
  -9   3 -11   20.99   52.50
  -9   3 -11    2.05   55.73
   9  -3  11   18.61   62.85
   9  -3  11   74.36   63.81
   4   9 -11  356.98  123.97
  -9   4 -11  437.68  147.87
  -9   4 -11  373.14  140.93
  -4  -9  11  298.24  125.39
   9  -4  11  383.55  142.22
   9  -4  11  282.17  154.10
  -9   5 -11  209.58  100.11
  -9   5 -11  207.65  122.72
   5   9 -11  160.63   84.39
   9  -5  11  409.54  115.76
   6   9 -11   26.70   28.80
  -9   6 -11   26.10   51.59
   9  -6  11  -76.27  110.87
   9  -6  11   73.47   78.39
  -6  -9  11    3.60   34.82
   7   9 -11  111.99   39.55
  -9   7 -11   74.34   58.87
   9  -7  11   28.17   90.00
  -7  -9  11   15.26   44.78
   8   9 -11   39.28   35.25
   9  -8  11   13.61   92.56
  10   9 -11  385.22   97.11
 -10  -9  11   35.21  105.26
  10   7 -11  111.40   46.42
  10   7 -11   32.76   43.45
 -10  -7  11   51.69   50.73
 -10  -7  11  143.20   46.45
  10   6 -11   18.04   29.39
  10   6 -11   49.79   33.02
 -10  -6  11   32.49   31.85
 -10  -6  11    1.49   35.99
  10   5 -11  103.20   47.79
  10   5 -11  103.97   40.85
 -10  -5  11   70.33   48.52
 -10  -5  11  109.49   46.41
  10   4 -11   17.67   33.37
  10   4 -11   42.71   23.76
 -10  -4  11   25.54   31.52
 -10  -4  11   54.78   32.08
  10   3 -11   53.65   43.13
  10   3 -11  106.03   34.81
 -10  -3  11  122.37   42.53
 -10  -3  11   73.23   45.64
  10   2 -11   -3.51   16.35
 -10  -2 -11   99.02   87.03
  10   2 -11   21.61   52.87
  10   2 -11    4.80   31.34
  10   2 -11 -140.47   82.38
 -10  -2  11   18.18   49.97
 -10  -2  11   -5.13   32.92
  10   2  11 -150.58   56.78
 -10  -2  11   -4.60   39.78
  10   1 -11   15.45   61.01
 -10  -1 -11  -63.41   87.46
  10   1 -11  -45.62   89.05
  10   1 -11    2.66   15.68
  10   1 -11   12.08   33.18
  10   1  11 -233.11   87.50
 -10  -1  11    8.99   34.69
 -10  -1  11   18.26   41.61
 -10  -1  11  -19.95   61.32
  10   1  11  -27.77   50.99
  10   0 -11   21.44   74.92
  10   0 -11    1.43   34.25
 -10   0 -11 -215.56   80.28
  10   0 -11   21.63   17.01
 -10   0  11  -37.85   40.94
  10   0  11 -124.61   83.66
 -10   0  11    3.56   34.01
 -10   1 -11 -145.56   68.76
  10  -1 -11  -40.70   94.75
  10  -1 -11   -1.00   17.18
 -10   2 -11  115.92   70.86
 -10   3 -11  -86.85   72.53
 -10   3 -11  133.73   70.81
 -10   4 -11   48.78   58.22
 -10   4 -11  -36.04   73.90
  10  -4  11  -71.26   75.26
  10  -4  11 -190.38   86.64
 -10   5 -11   99.79   91.73
 -10   5 -11   75.55   63.95
  10  -5  11   98.55  104.48
  10  -5  11   30.46   85.94
 -10   6 -11  -57.85  106.10
 -10   6 -11   44.02   55.85
  10  -6  11    6.25  120.16
  10  -6  11   17.46   85.36
 -10   7 -11   20.79   62.44
  10  -7  11   41.27  134.66
  10  -7  11  105.79   97.88
  10  -8  11   22.38  102.59
  11  10 -11   75.17   51.88
  11   9 -11   30.72   41.69
 -11  -9  11   20.29   55.22
  11   8 -11   -6.92   36.50
 -11  -8  11  -73.10   47.50
  11   7 -11    7.85   39.09
 -11  -7  11   54.63   35.89
  11   6 -11   19.31   30.98
  11   6 -11   50.93   37.33
 -11  -6  11   16.70   40.77
 -11  -6  11    5.73   33.60
  11   5 -11  120.39   45.92
  11   5 -11   83.44   39.34
 -11  -5  11   91.22   46.72
 -11  -5  11   49.14   44.93
  11   4 -11  151.42   73.47
  11   4 -11  106.50   65.98
 -11  -4  11  296.65   76.61
 -11  -4  11  229.53   73.71
  11   3 -11   28.93   23.42
  11   3 -11   24.09   33.21
 -11  -3  11   34.73   32.56
 -11  -3  11    7.11   36.62
  11   3  11  194.10   91.36
  11   2 -11   21.95   34.31
 -11  -2 -11  -56.75   93.75
  11   2 -11  -25.58   18.08
  11   2  11    2.82   58.06
 -11  -2  11    8.33   40.92
 -11  -2  11   28.02   56.51
 -11  -2  11   12.22   37.04
  11   2  11  119.21   92.81
  11   1 -11   20.81   90.98
  11   1 -11   26.64   34.86
 -11  -1 -11  122.51   96.15
  11   1 -11   -9.92   68.93
  11   1 -11    5.70   18.38
  11   1  11 -117.21   93.55
 -11  -1  11   -1.48   67.32
  11   1  11  -44.40   55.86
 -11  -1  11  -11.59   44.05
 -11  -1  11   15.57   37.51
 -11   0 -11  388.81  108.94
  11   0 -11  255.67  110.39
  11   0 -11  234.01   64.81
  11   0 -11  123.35   78.93
 -11   0  11  167.54   89.50
  11   0  11   58.22   81.64
 -11   0  11  273.98   84.41
  11   0  11  160.47  110.34
 -11   1 -11  116.60   79.48
  11  -1 -11   74.01  110.60
  11  -1 -11   12.98   32.22
  11  -1  11  202.91   64.02
  11  -1  11  299.86   81.34
 -11   2 -11    8.60   75.48
 -11   2 -11   26.62   84.43
  11  -2  11  131.10   87.43
  11  -2  11  338.52   83.19
 -11   3 -11   66.44   71.50
 -11   3 -11   48.40   72.64
  11  -3  11 -115.88   90.40
  11  -3  11 -148.22   82.83
 -11   4 -11  133.09   94.91
 -11   4 -11  172.98   83.90
  11  -4  11  -77.57  104.10
  11  -4  11   52.85   98.25
 -11   5 -11  167.69  103.24
 -11   5 -11  100.34   71.52
  11  -5  11   25.67  115.83
  11  -5  11   44.02   95.49
 -11   6 -11   12.97  114.31
 -11   6 -11   -8.48   63.99
  11  -6  11  -10.68  100.81
  11  -6  11   78.99  130.62
 -11   7 -11   81.58   62.03
  11  -7  11 -144.08  107.37
  12  10 -11   74.64   54.04
  12   9 -11  -18.50   43.32
 -12  -9  11    2.85   57.28
  12   8 -11   10.06   36.87
  12   8 -11   88.10   43.21
 -12  -8  11  -24.59   41.14
 -12  -8  11   31.68   54.17
  12   6 -11   15.18   63.55
  12   6 -11  299.49   58.06
 -12  -6  11  115.82   63.27
  12   5 -11    5.27   37.58
  12   5 -11   51.62   31.91
 -12  -5  11   19.57   40.55
 -12  -5  11   29.09   36.90
  12   4 -11  -10.14   36.73
  12   4 -11    1.48   25.65
 -12  -4  11  -29.21   36.52
 -12  -4  11  -16.00   37.37
  12   3 -11  -12.90   34.14
  12   3 -11   31.25   22.74
 -12  -3  11  -30.10   37.37
 -12  -3  11    1.35   34.08
  12   2 -11    1.10   19.51
  12   2 -11   11.10   36.59
 -12  -2  11  -38.69   40.43
  12   1 -11   26.60   41.21
  12   1 -11   39.71   24.24
 -12  -1 -11  156.85  106.22
  12   1 -11    1.36  106.49
  12   1 -11   79.65   76.71
 -12  -1  11   95.92   49.44
 -12  -1  11   34.61   44.44
  12   1  11   17.57   61.80
 -12  -1  11  -47.87   75.62
  12   0 -11   21.46   20.46
 -12   0 -11  -53.29   92.29
  12   0 -11  -45.96   92.99
  12   0  11  -13.78   58.17
 -12   0  11   19.23   47.89
 -12   0  11   52.15   40.12
  12  -1 -11   88.48   31.95
 -12   1 -11   36.90   87.28
  12  -1 -11  139.31  119.73
  12  -1  11   40.62   67.39
  12  -2 -11  -25.51   23.47
 -12   2 -11 -134.73   82.61
 -12   2 -11  356.11   82.77
  12  -2 -11   42.35  136.73
  12  -2  11  -33.66   74.19
 -12   3 -11    6.19   89.64
  12  -3  11  129.35   98.51
 -12   4 -11   77.33  100.56
  12  -4  11   -9.04   99.44
 -12   7 -11   20.23   70.34
  12  -7  11 -149.05  152.52
  12  -8  11  -67.81  119.24
  12  -9  11  -94.56  127.16
  13  10 -11    1.79   51.14
  13   9 -11   71.29   52.31
 -13  -9  11  -98.20   49.05
  13   8 -11  -58.07   46.82
  13   8 -11   -5.36   41.03
 -13  -8  11  -85.97   45.91
 -13  -8  11   77.00   58.16
  13   7 -11  261.64   96.44
  13   7 -11   24.03   89.54
 -13  -7  11   52.60  102.38
 -13  -7  11  562.80   97.41
  13   5 -11   16.77   51.52
  13   5 -11  167.66   45.59
 -13  -5  11   43.15   53.00
 -13  -5  11  203.55   54.25
  13   4 -11  -12.17   41.74
  13   4 -11    4.92   29.58
 -13  -4  11    4.64   42.96
 -13  -4  11   45.56   42.22
 -13  -3 -11  136.88  125.76
  13   3  11  -47.60  123.82
 -13  -3  11   51.08   60.30
 -13  -2 -11  -64.77  120.39
  13   2  11  -27.77   67.07
 -13  -2  11    1.40   36.51
 -13  -2  11   12.95   43.58
  13   2  11 -103.96  109.79
 -13  -1 -11  -66.80  120.04
 -13  -1  11   63.92   81.51
 -13  -1  11  -40.31   51.55
  13   1  11   14.19   99.07
  13   0 -11  192.31  114.55
 -13   0 -11  605.75  119.11
  13   0 -11  -91.38  126.07
 -13   0  11   49.42  115.04
 -13   0  11   30.53   71.89
  13   0  11  -90.49  100.76
  13  -1 -11 -175.48  125.83
  13  -1  11   13.96   88.17
  13  -2 -11 -385.78  160.63
 -13   2 -11  -97.06   95.98
 -13   3 -11 1028.51  322.40
  13  -3  11  987.88  307.47
 -13   4 -11   49.93  116.65
 -13   4 -11  -49.77   87.61
  13  -4  11 -279.06  137.80
  13  -4  11  395.14  118.15
 -13   5 -11   98.92  131.06
 -13   5 -11  -69.60   81.76
  13  -5  11  -73.25  137.02
  13  -5  11 -127.54  117.57
 -13   6 -11  133.53  142.21
 -13   6 -11   -6.89   79.68
  13  -6  11   23.70  153.89
  13  -6  11   95.61  123.76
 -13   7 -11   88.74   92.75
 -13   7 -11  -50.10  174.38
  13  -7  11 -101.46  141.02
  13  -7  11  119.37  170.71
 -13   8 -11   53.00   75.36
 -13   8 -11 -112.00  174.80
  13  -8  11  151.62  135.76
  13  -9  11 -216.78  145.29
  14  10 -11  -49.88   54.56
 -14 -10  11   75.81   56.05
 -14  -9  11   41.80   53.65
 -14  -3 -11   70.75  130.62
  14   3  11    1.62  129.00
 -14  -2 -11  101.76  135.77
  14   2  11   48.54   75.56
  14   2  11   -1.42  113.12
 -14  -1 -11 -289.44  135.87
  14   1  11   21.71   74.06
  14   1  11 -102.53  100.63
  14   0 -11    8.31  111.66
 -14   0 -11  -86.29  124.22
  14   0  11   17.39   74.02
 -14   0  11   36.86  114.09
  14   0  11  -38.92   87.01
 -14   1 -11   73.15  115.23
 -14   1 -11  179.17  111.90
  14  -1  11  -29.22   79.96
  14  -1  11   -6.82   99.76
 -14   2 -11   78.10  115.09
 -14   2 -11  -93.79  108.36
  14  -2  11   -5.41   90.88
  14  -2  11  -35.83  108.94
 -14   3 -11   26.22  108.47
 -14   3 -11   44.55  128.76
  14  -3  11  -73.21  123.38
  14  -3  11  436.29  138.85
 -14   4 -11   14.92  126.66
 -14   4 -11   -3.71   93.76
  14  -4  11   96.15  129.93
  14  -4  11  -10.81  130.46
 -14   5 -11  -10.99   92.21
 -14   5 -11   79.23  142.00
  14  -5  11  223.31  145.21
  14  -5  11   45.03  130.43
 -14   6 -11   34.50   88.69
 -14   6 -11   -7.26  156.15
  14  -6  11  -89.79  132.75
  14  -6  11  -49.42  164.52
 -14   7 -11   97.30   83.57
 -14   7 -11 -130.98  171.92
  14  -7  11   28.91  139.30
  14  -7  11 -192.67  177.13
 -14   8 -11  181.97  191.49
 -14   8 -11   39.55   84.17
  14  -8  11  -71.18  147.60
  14  -9  11   73.38  150.87
 -15  -3 -11  -58.78  142.72
  15   3  11 -303.21  137.08
 -15  -2 -11 -123.57  152.60
  15   2  11   39.84  122.70
  15   2  11  182.98   87.36
 -15  -1 -11  116.78  151.28
  15   1  11 -130.24  104.86
  15   1  11   13.07   81.50
 -15   0 -11   71.09  139.52
  15   0  11 -106.86   81.55
 -15   0  11   60.58   60.46
  15   0  11  -86.26  105.11
 -15   1 -11  -16.62  118.68
  15  -1 -11  114.89  145.60
 -15   1 -11  154.40  131.82
  15  -1  11 -124.90  110.21
 -15   1  11 -117.09  147.55
  15  -1  11  -51.39   85.74
  15  -2 -11   23.43  174.90
 -15   2 -11  158.71  117.05
 -15   2 -11    6.83  127.96
  15  -2  11 -268.11  113.94
  15  -2  11   18.34   98.56
 -15   3 -11 -101.77  135.28
 -15   3 -11    8.29  113.27
  15  -3  11   31.49  125.17
  15  -3  11    4.56  115.79
 -15   4 -11  130.34  152.60
 -15   4 -11  167.15  116.27
  15  -4  11  -91.05  155.96
  15  -4  11  213.14  148.36
 -15   5 -11  170.61  158.39
 -15   5 -11   32.86  100.33
  15  -5  11 -232.32  149.63
  15  -5  11  216.31  175.34
 -15   6 -11  101.46  178.09
 -15   6 -11   25.63   97.92
  15  -6  11   89.04  178.99
  15  -6  11   17.01  152.73
 -15   7 -11  -30.67  189.40
 -15   7 -11  156.56   99.76
  15  -7  11  -84.89  190.58
  15  -7  11  297.88  160.73
 -15   8 -11  -79.18  209.59
 -15   8 -11   86.14   91.10
  15  -8  11   45.49  157.15
 -16  -3 -11 -202.22  164.78
  16   3  11  -26.78  144.65
  16   3  11 -125.56   91.51
 -16  -2 -11  -48.21  175.28
  16   2  11 -123.90  101.10
  16   2  11 -215.83  136.55
 -16  -1 -11 -301.60  183.41
  16   1  11   50.19   94.51
  16   1  11  -45.58  109.96
 -16   0 -11  -36.80  265.27
  16   0  11  759.87  245.23
  16   0  11  564.05  214.93
 -16   1 -11   73.78  131.82
 -16   1 -11    4.33  161.64
  16  -1 -11 -380.27  165.11
  16  -1  11  263.62  113.77
 -16   1  11   84.53  161.34
 -16   2 -11 -194.70  148.12
  16  -2 -11 -308.97  200.05
 -16   2 -11 -294.05  168.49
 -16   3 -11   64.25  121.64
 -16   3 -11  116.27  147.11
  16  -3  11  -74.28  125.94
  16  -3  11  -71.12  140.75
 -16   4 -11  118.65  118.45
 -16   4 -11  147.60  164.40
  16  -4  11 -186.83  164.07
  16  -4  11  163.20  161.07
 -16   5 -11 -105.96  111.36
 -16   5 -11   -8.44  177.50
  16  -5  11 -217.15  185.27
  16  -5  11 -194.50  169.64
 -16   6 -11  319.83  123.69
 -16   6 -11  -27.25  198.12
  16  -6  11    9.39  173.73
  16  -6  11  158.72  201.82
 -16   7 -11  -59.51  116.28
 -16   7 -11 -164.50  215.55
  16  -7  11  430.23  207.04
  16  -7  11  444.79  180.38
 -16   8 -11   78.75  102.51
 -16   8 -11  -15.33  218.83
 -17  -3 -11   42.98  189.69
  17   3  11  185.57  105.14
  17   3  11  -52.39  145.96
 -17  -2 -11 -194.23  202.96
  17   2  11  142.02  136.37
  17   2  11  200.45  111.07
 -17  -1 -11  -42.27  199.18
  17   1  11  -54.05  101.22
  17   1  11  -24.03  123.68
 -17   0 -11 -127.75  151.76
 -17   0 -11 -262.77  204.39
  17   0  11 -184.95  107.76
  17   0  11  105.70  131.38
 -17   1 -11  159.59  181.48
 -17   1 -11  190.22  146.91
 -17   1  11  -19.05  161.89
  17  -1  11   97.86  108.60
  17  -1  11  -85.80  133.76
 -17   2 -11   -5.15  145.61
 -17   2 -11    9.05  167.09
  17  -2 -11  152.40  204.79
  17  -2  11   31.91  142.95
  17  -2  11  -30.17  123.41
 -17   2  11  371.03  210.77
 -17   3 -11   40.94  144.35
 -17   3 -11  304.43  185.44
  17  -3  11   82.86  140.65
  17  -3  11  115.14  161.87
 -17   4 -11  115.65  126.65
 -17   4 -11   -9.03  185.26
  17  -4  11  183.85  161.28
  17  -4  11  -82.30  169.70
 -17   5 -11 -196.58  209.41
 -17   5 -11  -71.49  119.74
  17  -5  11 -197.93  200.43
  17  -5  11    5.02  202.47
 -17   6 -11   60.63  244.31
  17  -6  11  283.04  239.47
 -17   7 -11   42.84  224.57
 -17   7 -11  -87.66  117.70
 -17   8 -11  168.26  247.37
 -17   8 -11  -52.18  114.36
  17  -8  11  136.69  195.71
  18   3  11 -138.61  160.17
  18   3  11  192.62  133.68
 -18  -2 -11 1451.67  773.14
  18   2  11 1602.62  633.48
 -18  -1 -11  391.74  331.76
 -18  -1 -11 1425.57  386.37
 -18   0 -11 -147.49  166.01
 -18   0 -11  219.64  241.78
 -18   1 -11  783.84  291.32
 -18   1 -11   39.98  233.89
  18  -2 -11 4625.79 1392.50
  18  -2  11 3335.83 1318.22
  18  -2  11 4948.43 1358.64
 -18   3 -11 -228.56  208.25
 -18   3 -11  -90.82  154.68
 -18   4 -11 -110.74  223.71
 -18   4 -11 -101.54  163.54
  18  -4  11 -496.21  213.85
  18  -4  11 -438.49  191.18
 -18   5 -11 -215.19  212.33
 -18   5 -11   40.20  133.71
  18  -5  11   16.83  212.29
  18  -5  11  -46.90  235.10
 -18   6 -11  141.91  134.18
 -18   6 -11 -136.71  242.94
  18  -6  11   71.97  218.21
  18  -6  11   -6.19  232.40
 -18   7 -11   17.84  252.03
 -18   7 -11 -134.53  126.59
  18  -7  11  105.21  223.48
  18  -7  11  163.16  240.26
 -18   8 -11  259.19  268.35
 -18   8 -11  -38.58  122.25
  18  -8  11  -80.97  215.37
 -19  -3 -11 -315.41  252.02
  19   3  11   39.94  154.74
 -19  -2 -11  332.17  271.02
  19   2  11 -317.63  165.97
  19   2  11  -76.85  133.51
 -19  -1 -11 -227.54  184.10
 -19  -1 -11  127.26  276.11
  19   1  11 -133.26  162.55
  19   1  11   21.74  135.65
 -19   0 -11   -6.33  185.64
 -19   0 -11  179.13  262.56
  19   0  11 -117.15  165.23
  19   0  11  231.08  137.21
 -19   1 -11  135.78  261.79
 -19   1 -11 -114.14  181.13
  19  -1  11  283.71  166.36
  19  -1  11   -9.07  144.24
 -19   2 -11  -38.94  248.63
 -19   2 -11   25.10  172.20
  19  -2  11   63.19  151.07
  19  -2  11 -305.04  188.05
 -19   3 -11  106.05  164.79
 -19   3 -11  246.68  241.33
  19  -3  11  -10.16  163.52
  19  -3  11   74.21  207.89
 -19   4 -11 -209.17  249.07
 -19   4 -11  156.27  158.25
  19  -4  11   27.58  218.27
  19  -4  11  258.62  193.83
 -19   5 -11   61.95  252.70
  19  -5  11 -294.96  217.77
  19  -5  11    3.23  198.61
   0   0 -12  521.17  175.04
   0   1 -12    3.75    7.42
  -1   0 -12   -4.54    7.67
   1   0 -12    7.34    8.53
   0   1 -12    7.85   21.74
  -1   0  12   13.01   18.26
   0  -1  12    1.34   17.92
   1   1 -12  261.49   85.60
   1   1 -12  237.94  100.36
   1  -1  12  206.91  100.46
  -1  -1  12  338.22  101.39
   2   1 -12   14.25   22.70
  -1   2 -12   10.63    8.64
   2   1 -12   -0.54    9.04
   1  -2  12   41.60   16.13
   1  -2  12   14.21   25.14
  -2  -1  12   19.50   19.66
   2   0 -12   32.25   32.87
   2   0 -12   73.04   42.39
   0   2 -12  135.04   32.83
   0   2 -12  117.51   40.46
   0  -2  12   76.86   39.21
  -2   0  12   91.74   41.35
   0  -2  12  119.50   40.67
   1   2 -12   18.63   19.13
   1   2 -12    0.52    8.63
  -1  -2  12   -3.57   17.02
   2  -1  12   30.82   26.68
   2   2 -12   47.23   17.06
   2   2 -12   57.63   26.14
   2  -2  12   29.13   35.48
  -2  -2  12   35.13   24.29
   3   2 -12    0.60    9.50
   3   2 -12   -2.60   21.56
  -2   3 -12    0.59   25.33
  -2   3 -12   -3.34   18.81
   3   2 -12   -3.31   14.08
  -2   3 -12    4.96    7.86
   2  -3  12  -30.33   19.23
   2  -3  12   -3.88   26.21
  -3  -2  12   -5.85   18.23
   3   1 -12   -3.12   23.09
  -1   3 -12   20.50   14.74
  -1   3 -12    8.84   17.29
  -1   3 -12   14.06    8.08
  -1   3 -12   -2.01   23.79
   1  -3  12  -30.42   20.80
  -3  -1  12   -6.06   20.57
   1  -3  12   15.12   15.54
   3   0 -12   -7.17   26.02
   0   3 -12    1.38   17.20
   0   3 -12   -1.00    8.37
  -3   0  12   -7.46   20.02
   0  -3  12   -2.91   15.31
   1   3 -12   -0.53    8.73
   1   3 -12   17.92   17.61
   3  -1  12   12.27   31.33
   3  -1  12   16.72   17.60
  -1  -3  12   12.71   16.25
   2   3 -12  -15.67   18.61
  -3   2 -12   -1.65   21.62
  -3   2 -12  -12.53   34.22
   2   3 -12   -6.78    9.30
   3  -2  12  -43.55   34.09
  -2  -3  12   -8.58   16.11
   3  -2  12    5.68   25.95
   3  -2  12    4.47   18.46
  -3   3 -12  124.77   44.79
   3   3 -12  101.95   40.87
   3   3 -12   80.32   34.85
  -3   3 -12   82.81   41.77
  -3  -3  12  122.79   40.28
   4   3 -12  195.02   72.28
   4   3 -12  130.01   78.91
  -4  -3  12  153.05   71.23
  -4  -3  12  142.42   72.83
   3  -4  12  370.19   69.17
  -2   4 -12  -13.87   18.86
   4   2 -12   -3.84   11.50
   4   2 -12   -6.35   23.56
   4   2 -12    5.57   21.27
  -2   4 -12  -53.42   30.85
  -2   4 -12  -20.05   19.99
  -2   4 -12  -11.50   12.08
  -4  -2  12   -0.69   20.79
   2  -4  12  -27.51   15.15
   4   1 -12  -33.41   26.21
   4   1 -12    1.86    9.47
  -1   4 -12   -1.83   15.93
  -1   4 -12    1.18    9.95
  -1   4 -12   -1.29   13.10
   1  -4  12  -14.62   14.03
   1  -4  12   -0.54   12.12
   1  -4  12    1.67   14.19
  -4  -1  12   -1.60   21.92
   4   0 -12   25.97   26.64
   4   0 -12    2.02    9.91
   0   4 -12    6.94   15.95
   0   4 -12    1.81   10.14
  -4   0 -12   -4.95    7.08
   0  -4  12    8.00   13.67
   0  -4  12    6.57   13.88
   4   0  12  -15.58   34.11
  -4   0  12   -0.87   21.71
   1   4 -12    0.66   17.18
   1   4 -12    7.06   10.93
  -4   1 -12    5.95    6.44
  -1  -4  12   -5.08   15.09
  -1  -4  12   -3.71   13.26
  -4   2 -12  -31.51    9.63
   2   4 -12  -32.18   21.80
  -4   2 -12 -102.20   34.51
   2   4 -12    0.66   12.33
   4  -2  12  -53.60   25.08
  -2  -4  12  -31.23   20.41
  -2  -4  12  -25.90   18.48
  -4   3 -12  214.32   68.65
   3   4 -12  202.66   67.10
   3   4 -12  188.17   72.65
  -3  -4  12  176.14   71.41
  -3  -4  12  198.91   72.25
   4   4 -12  214.98   82.39
  -4  -4  12  225.60   82.44
   5   4 -12  164.37   58.29
   5   4 -12   76.75   51.92
  -4   5 -12  123.46   53.62
  -5  -4  12  103.80   57.58
   4  -5  12  250.29   58.10
   4  -5  12  140.49   56.02
  -5  -4  12  174.42   56.48
  -3   5 -12   28.67   17.86
   5   3 -12   48.18   16.88
  -3   5 -12  113.80   38.26
  -3   5 -12   25.23   29.88
  -3   5 -12   36.85   21.02
   5   3 -12   17.40   26.45
   3  -5  12   48.84   20.16
  -5  -3  12   53.89   23.87
  -5  -3  12   37.31   24.84
   3  -5  12   20.51   32.49
  -5  -3  12   26.64   22.73
   3  -5  12   33.65   19.28
   5   2 -12  662.84  173.84
   5   2 -12  499.89  197.17
   5   2 -12  478.49  196.59
  -2   5 -12  558.90  196.06
  -2   5 -12  597.23  181.36
  -5  -2  12  633.16  203.89
   2  -5  12  611.07  184.88
   2  -5  12  281.70  194.24
   5   1 -12    1.13   26.45
   5   1 -12   21.39   10.99
  -1   5 -12    2.27   13.45
  -1   5 -12   -6.87   16.01
   5   1 -12   -2.69   38.22
  -5  -1  12   14.47   25.02
   1  -5  12    5.03   15.58
   0   5 -12  -10.06   12.05
  -5   0 -12    0.82    8.60
  -5   0 -12  -53.09   58.96
   5   0 -12   -4.96   10.85
   0   5 -12   -4.15   16.11
   5   0 -12  -10.30   28.85
  -5   0  12  -11.08   24.48
   0  -5  12    2.67   15.36
   1   5 -12   -2.45   13.61
   1   5 -12    9.35   16.19
  -5   1 -12  -86.39   57.15
  -5   1 -12    0.97    7.37
  -1  -5  12    3.49   16.39
  -1  -5  12    0.49   16.17
  -5   2 -12  617.64  203.85
   2   5 -12  591.27  196.63
   2   5 -12  580.00  204.62
  -5   2 -12  553.72  228.39
  -2  -5  12  611.39  201.67
   5  -2  12  605.91  230.31
  -2  -5  12  576.43  206.23
   5  -2  12  619.90  201.02
  -5   3 -12   51.75   30.16
  -5   3 -12   27.05   25.94
  -5   3 -12   43.71   35.00
   3   5 -12   22.67   22.24
  -5   3 -12   25.10   14.81
   3   5 -12   52.59   19.33
   5  -3  12  121.69   37.05
   5  -3  12    0.40   41.72
   5  -3  12   43.92   15.76
   5  -3  12   32.88   22.45
  -3  -5  12   23.79   21.41
  -3  -5  12   28.74   20.93
   4   5 -12  105.15   57.21
  -5   4 -12  172.06   64.41
  -5   4 -12  203.39   65.62
  -5   4 -12  225.21   54.66
  -5   4 -12  124.40   63.15
   5  -4  12    0.53   77.39
  -4  -5  12  138.99   57.72
   5  -4  12  168.88   60.38
   5  -4  12  206.56   55.94
   5  -4  12  184.07   65.93
  -5   5 -12  177.94   54.47
   5   5 -12  127.96   42.00
   5   5 -12   97.02   45.80
  -5   5 -12   97.97   58.05
  -5  -5  12  128.29   45.10
  -5  -5  12   78.75   44.95
   5  -5  12  149.45   59.22
   5  -5  12   67.71   86.38
  -5   6 -12   46.84   45.30
   6   5 -12   29.29   22.21
  -5   6 -12   83.91   23.30
   6   5 -12   12.87   26.03
   5  -6  12   43.14   50.34
  -6  -5  12   36.51   26.68
  -6  -5  12   20.31   24.44
  -4   6 -12  314.92  102.02
   6   4 -12  336.96   89.74
   6   4 -12  209.50   96.87
  -4   6 -12  310.76   93.17
   4  -6  12  375.06   98.19
  -6  -4  12  230.20   95.74
  -6  -4  12  135.05   97.45
  -3   6 -12  613.78  211.04
   6   3 -12  424.31  187.18
   6   3 -12  621.87  203.39
  -3   6 -12  589.52  194.21
  -6  -3  12  660.89  225.25
   3  -6  12  646.61  201.52
  -6  -3  12  602.60  207.65
   3  -6  12  559.64  222.02
  -6  -3  12  424.59  209.74
   6   2 -12  150.31   66.58
  -2   6 -12  202.30   59.06
  -2   6 -12  180.79   63.18
   6   2 -12  189.61   56.42
   6   2 -12  173.79   67.90
   2  -6  12  118.71   71.50
   2  -6  12  169.81   61.49
  -6  -2  12  161.22   68.30
   6   1 -12  111.72   52.00
  -1   6 -12   70.33   36.37
   6   1 -12  129.83   32.32
  -1   6 -12  100.82   34.80
   6   1 -12  114.09   44.81
   6   1  12   44.12   57.66
   1  -6  12  103.07   36.08
  -6  -1  12   54.45   44.07
   0   6 -12 1210.66  343.33
   6   0 -12  873.96  351.89
   0   6 -12 1235.13  345.98
  -6   0  12  989.06  355.82
   6   0  12 1387.24  347.31
   1   6 -12   90.07   35.06
  -6   1 -12   64.63   56.11
   1   6 -12  132.64   33.39
  -6   1 -12   79.90   31.98
   6  -1  12   43.39   61.74
   6  -1  12   97.44   43.94
  -1  -6  12   80.82   34.63
  -6   2 -12  146.91   61.14
   2   6 -12  182.55   63.26
  -6   2 -12  209.11   71.14
   2   6 -12  168.51   60.70
   6  -2  12   92.42   80.41
   6  -2  12  216.79   67.24
  -2  -6  12  217.26   63.43
   3   6 -12  555.10  202.27
  -6   3 -12  655.27  228.61
   3   6 -12  632.06  194.36
  -6   3 -12  544.34  204.88
  -6   3 -12  749.60  233.75
   6  -3  12  337.39  228.15
  -3  -6  12  461.68  201.17
   6  -3  12  781.68  202.71
  -6   4 -12  219.78   95.22
   4   6 -12  245.30   86.03
  -6   4 -12  261.78   97.60
   6  -4  12   56.85  105.74
   6  -4  12  359.60   95.80
  -6   5 -12   77.03   39.54
  -6   5 -12   37.42   47.06
   5   6 -12   50.67   23.07
   5   6 -12   17.72   24.47
   6  -5  12   50.66   49.65
   6  -5  12   -0.91   74.75
  -5  -6  12   38.14   26.68
   6   6 -12  120.78   44.35
  -6   6 -12   98.87   59.63
   6   6 -12  112.36   41.78
   6  -6  12   82.80   69.49
  -6  -6  12  106.71   45.33
  -6  -6  12   99.57   46.47
   6  -6  12  137.91  106.48
   7   6 -12   43.74   22.90
   7   6 -12   11.27   27.39
   6  -7  12   19.06   62.26
  -7  -6  12   34.99   26.29
  -7  -6  12   28.56   29.71
   7   5 -12  164.16   79.91
  -5   7 -12  235.59   85.70
   7   5 -12  238.49   74.50
   5  -7  12  157.43  101.12
  -7  -5  12  237.35   79.86
  -7  -5  12  230.07   80.14
   7   4 -12   24.03   30.20
  -4   7 -12   41.46   26.20
   7   4 -12   72.36   23.28
  -7  -4  12   48.25   29.42
   4  -7  12  104.60   51.08
  -7  -4  12   45.57   28.92
  -3   7 -12  223.34   81.23
   7   3 -12  270.23   71.00
   7   3 -12  210.76   80.28
  -7  -3  12  176.96   82.94
   3  -7  12  133.84   79.75
   7   2 -12  181.54   63.31
  -2   7 -12  177.98   59.71
  -2   7 -12  187.01   55.92
   7   2 -12  118.22   52.76
   2  -7  12  171.97   59.25
  -7  -2  12  129.69   65.75
  -1   7 -12  230.20   61.53
  -1   7 -12  214.90   66.14
  -7  -1 -12  -36.72   86.59
   7   1 -12   88.57   73.04
   7   1 -12  242.85   58.60
  -7  -1  12  157.39   78.05
   1  -7  12  172.80   64.96
   7   1  12  183.65   87.45
  -7   0 -12  -13.76   57.88
   7   0 -12   41.95   60.14
   7   0 -12    8.06   13.57
   0   7 -12   15.10   17.06
   7   0 -12   -1.39   29.48
   0   7 -12   -1.25   17.17
  -7   0  12    2.09   27.49
   7   0  12  -19.49   38.87
   0  -7  12   -1.01   20.86
   7   0  12   58.59   58.83
   1   7 -12  188.40   66.55
  -7   1 -12  161.23   82.50
   7  -1 -12  144.11   62.53
   1   7 -12  153.51   62.92
   7  -1  12  234.55   93.66
  -1  -7  12  199.56   66.33
   7  -1  12  178.99   70.19
  -7   2 -12  151.59   63.93
   2   7 -12  155.65   51.76
   2   7 -12   87.30   53.79
   7  -2  12  215.83   61.85
  -2  -7  12  129.81   54.54
   7  -2  12  102.90   75.81
   3   7 -12  227.83   75.70
   3   7 -12  187.64   78.80
  -7   3 -12  235.17   86.02
  -7   3 -12  215.39   96.44
   7  -3  12  283.80   88.42
   7  -3  12  122.49   99.07
  -3  -7  12  250.30   79.14
   4   7 -12   33.49   25.59
  -7   4 -12   24.14   43.00
  -7   4 -12   31.86   44.48
   7  -4  12   30.98   54.42
   7  -4  12   52.61   56.02
  -7   5 -12  167.65  100.26
   5   7 -12  215.72   75.85
  -7   5 -12  254.65   88.96
   5   7 -12  267.03   78.76
   7  -5  12  148.54   98.12
  -5  -7  12  234.01   79.71
   7  -5  12  186.12  111.40
   6   7 -12   20.49   24.86
   6   7 -12   29.97   25.14
  -7   6 -12   28.87   44.51
   7  -6  12   19.88   61.74
   7  -6  12  -22.25   94.89
  -6  -7  12   22.95   30.09
   7   7 -12   -9.80   28.80
   7   7 -12   26.96   27.59
   7  -7  12   94.01   70.74
  -7  -7  12   24.60   32.88
   8   7 -12   42.07   27.16
   8   7 -12   18.91   28.29
  -8  -7  12   13.99   29.06
   7  -8  12   46.26   74.11
  -8  -7  12   -4.42   34.67
   8   6 -12   53.58   27.60
   8   6 -12   37.24   31.93
   6  -8  12   19.90   67.49
  -8  -6  12   39.20   32.96
  -8  -6  12   42.96   30.07
   8   5 -12   17.37   21.35
  -5   8 -12   26.43   20.59
   8   5 -12   11.27   28.42
  -8  -5  12    9.15   25.94
  -8  -5  12   31.36   27.28
   5  -8  12   13.51   56.95
   8   4 -12  442.70  130.24
   8   4 -12  356.69  140.98
  -4   8 -12  427.02  148.81
  -8  -4  12  330.01  139.54
  -8  -4  12  358.99  144.54
   8   3 -12   81.77   25.14
   8   3 -12   61.40   36.04
  -3   8 -12   38.46   29.98
  -8  -3  12   49.85   35.58
   8   2 -12  183.59   57.60
  -2   8 -12  164.45   66.06
   8   2 -12  202.35   70.34
  -8  -2  12  144.30   74.72
  -8  -2  12  142.18   74.24
  -8  -2  12  138.10   75.61
  -1   8 -12   72.17   33.50
   8   1 -12   45.86   41.90
   8   1 -12  112.14   27.96
  -8  -1 -12   31.08   73.55
   8   1 -12   38.03   56.78
  -8  -1  12   75.05   44.68
   8   1  12   54.66   51.45
   8   1  12    5.93   70.62
   8   0 -12  203.19  116.69
   8   0 -12  347.82   97.88
   0   8 -12  309.63  105.88
  -8   0 -12  203.01  123.55
   8   0 -12  297.33  129.54
  -8   0  12  243.21  126.65
   8   0  12  309.53  132.74
   0  -8  12  266.18  105.75
   8   0  12  380.45  108.37
   1   8 -12  126.10   37.02
   1   8 -12   66.65   35.54
  -8   1 -12   73.73   62.89
   8  -1 -12   89.85   32.77
  -1  -8  12   96.50   39.37
   8  -1  12   27.85   70.02
   8  -1  12   71.79   47.84
   2   8 -12  159.41   70.24
  -8   2 -12  221.78   84.62
   2   8 -12  248.37   73.20
   8  -2  12  113.27   92.81
   8  -2  12  264.53   79.91
  -2  -8  12  201.67   73.47
   3   8 -12   58.21   32.27
  -8   3 -12   42.38   49.95
  -8   3 -12   73.06   57.20
   3   8 -12   83.84   33.49
   8  -3  12  139.53   64.69
  -3  -8  12   69.76   36.02
   8  -3  12   65.75   62.37
   4   8 -12  459.89  139.83
  -8   4 -12  402.82  158.35
  -8   4 -12  419.94  156.72
   4   8 -12  355.43  133.93
   8  -4  12  501.32  154.72
   8  -4  12  214.03  165.39
  -4  -8  12  432.97  140.88
  -8   5 -12  -12.61   60.58
  -8   5 -12    5.64   45.99
   5   8 -12   11.68   25.09
   5   8 -12    5.00   25.76
   8  -5  12  -31.99   60.91
   8  -5  12  -79.32   81.36
   6   8 -12   27.48   29.90
  -8   6 -12   23.82   49.02
  -8   6 -12   10.04   76.72
   6   8 -12   22.76   26.29
  -6  -8  12   34.41   35.27
   8  -6  12  110.06  104.52
   8  -6  12   31.07   71.20
   7   8 -12   12.94   29.08
  -8   7 -12   24.60   53.08
   7   8 -12    9.02   26.75
   8  -7  12  -17.42   75.81
  -7  -8  12  -14.38   35.04
   8   8 -12  -11.72   30.23
   8   8 -12   29.67   30.35
  -8  -8  12    3.42   36.94
   8  -8  12    1.47   85.74
   9   8 -12    1.20   32.16
   8  -9  12   40.71   84.76
   9   7 -12   64.35   33.46
   9   7 -12    5.37   30.51
  -9  -7  12   20.64   37.38
  -9  -7  12   31.32   33.42
   9   6 -12   53.05   34.77
   9   6 -12   64.75   38.97
  -9  -6  12   90.38   42.64
  -9  -6  12   58.17   36.33
   9   5 -12  212.48   85.06
   9   5 -12  197.50   91.42
  -9  -5  12  309.25   92.03
  -9  -5  12  260.45   92.13
   9   4 -12   27.69   25.45
   9   4 -12   58.17   34.69
  -9  -4  12   30.41   33.87
  -9  -4  12   25.34   32.06
   9   3 -12  290.64  142.08
   9   3 -12  451.20  128.36
  -9  -3  12  389.73  150.57
   9   2 -12   43.32   18.66
   9   2 -12   26.98   35.28
  -9  -2  12   23.00   46.38
  -9  -2  12   -6.10   34.53
  -9  -2  12   32.24   38.20
   9   2  12  132.34   74.73
   9   1 -12  134.54   55.31
  -9  -1 -12   91.58   84.82
   9   1 -12  116.11   39.69
   9   1 -12   97.08   70.45
  -9  -1  12   88.36   59.00
   9   1  12  133.73   61.90
  -9  -1  12   93.59   58.35
   9   1  12   36.13   89.19
  -9   0 -12   -2.21   71.03
   9   0 -12   -8.35   15.87
   9   0 -12    5.98   34.83
   9   0 -12   86.35   70.66
  -9   0  12    7.14   32.27
   9   0  12   37.92   71.24
   9   0  12  -23.57   45.92
  -9   1 -12  146.33   75.86
   1   9 -12  175.68   55.03
   9  -1 -12  197.23  107.94
   9  -1 -12  138.19   50.70
   9  -1  12    7.58   84.26
   9  -1  12  195.15   64.21
  -9   2 -12   17.41   51.21
   2   9 -12   11.60   25.95
  -2  -9  12   22.76   31.06
   9  -2  12   42.01   47.80
   9  -2  12   37.30   54.93
  -9   3 -12  456.17  147.65
  -9   3 -12  422.92  165.08
   3   9 -12  396.27  135.32
   9  -3  12  471.53  146.65
  -3  -9  12  326.08  136.69
   9  -3  12  185.71  162.23
  -9   4 -12   75.39   63.29
   4   9 -12   90.92   38.89
  -9   4 -12  105.34   67.63
   4   9 -12    7.35   35.95
   9  -4  12  355.23   80.21
  -4  -9  12   43.61   43.17
  -9   5 -12  113.24   95.27
   5   9 -12  287.54   78.90
  -9   5 -12  209.46  112.70
   9  -5  12  274.30  106.18
   9  -5  12   23.23  120.48
  -9   6 -12  100.63   57.89
   6   9 -12   53.09   35.91
   6   9 -12   35.90   35.09
  -9   6 -12   74.32   87.91
   9  -6  12   86.94   83.44
   9  -6  12   29.81  114.04
  -6  -9  12   55.08   43.28
   7   9 -12   48.65   34.88
  -9   7 -12   55.46   56.48
   9  -7  12  -22.78  122.81
   9  -7  12   65.93   86.44
   9  -8  12   -6.49   88.85
   9   9 -12   14.00   34.25
  -9  -9  12  -56.17   43.93
  10   9 -12   38.04   38.39
  10   9 -12   -2.47   36.75
 -10  -9  12   -9.30   49.54
  10   7 -12   26.65   35.75
 -10  -7  12   25.56   34.57
  10   6 -12  -37.30   35.34
  10   6 -12    6.66   29.81
 -10  -6  12   13.96   31.80
 -10  -6  12   61.22   37.04
  10   5 -12   50.85   39.49
  10   5 -12   71.87   34.35
 -10  -5  12   89.05   42.91
 -10  -5  12   60.04   40.32
  10   4 -12  268.85  119.35
  10   4 -12  349.64  109.80
 -10  -4  12  335.18  124.73
 -10  -4  12  319.57  119.12
  10   3 -12   21.19   19.91
  10   3 -12   41.30   33.38
 -10  -3  12    1.00   34.52
 -10  -3  12    1.18   29.53
  10   2 -12   23.40   19.23
 -10  -2 -12  -12.09   84.42
  10   2 -12   38.32   36.47
 -10  -2  12   69.24   37.46
  10   2  12  -34.13   85.47
  10   1 -12    1.45   37.56
 -10  -1 -12  -96.15   85.89
  10   1 -12   15.16   16.85
  10   1 -12   -2.21   61.20
 -10  -1  12   10.81   36.47
 -10  -1  12  -11.92   42.65
  10   0 -12  -73.40   81.51
  10   0 -12  -35.43   36.86
  10   0 -12   15.96   18.11
 -10   0 -12    4.87   80.85
 -10   0  12   -2.53   36.86
  10   0  12   26.05   54.49
  10   0  12  239.93   84.56
 -10   1 -12 -163.45   72.40
  10  -1 -12   13.01   18.61
  10  -1 -12   64.14  101.33
 -10   2 -12   88.25   65.19
 -10   3 -12   44.18   59.87
 -10   3 -12   45.36   68.34
  10  -3  12  -15.18   68.34
  10  -3  12  -16.96   74.52
 -10   4 -12  341.30  150.92
 -10   4 -12  182.20  148.92
  10  -4  12  481.01  149.95
  10  -4  12  412.08  157.91
 -10   5 -12   96.37   67.17
 -10   5 -12  104.71   85.52
  10  -5  12  -17.42  103.74
  10  -5  12  165.81   84.83
 -10   6 -12  -12.70   59.17
 -10   6 -12   39.07   96.30
  10  -6  12  -52.50   85.02
  10  -6  12   65.55  120.18
 -10   7 -12  -14.42   61.67
  10  -7  12  -12.64  131.63
  10  -7  12   88.63   95.02
   8  10 -12   19.29   36.36
   9  10 -12  -18.81   38.97
  10  -9  12   -1.90  108.39
  10  10 -12   63.04   46.91
  11  10 -12    1.63   42.87
  11   9 -12  -26.29   36.81
  11   9 -12   29.75   40.76
 -11  -9  12   13.11   59.02
  11   8 -12    2.35   39.76
  11   8 -12   28.39   44.59
 -11  -8  12   49.63   51.34
 -11  -8  12  100.11   43.33
  11   6 -12  116.56   41.01
  11   6 -12   -8.11   48.31
 -11  -6  12   84.14   47.28
 -11  -6  12  168.28   48.87
  11   5 -12   73.90   33.16
  11   5 -12   32.58   40.38
 -11  -5  12   56.08   40.21
 -11  -5  12   40.61   38.71
  11   4 -12   -7.61   36.32
  11   4 -12   16.04   24.23
 -11  -4  12   74.46   37.10
 -11  -4  12    1.39   34.87
  11   3 -12   77.89   35.89
  11   3 -12   43.18   46.97
 -11  -3  12  161.66   49.43
 -11  -3  12   82.22   44.98
 -11  -2 -12  -61.58   90.51
  11   2 -12   28.50   36.09
  11   2 -12  -27.22   19.44
 -11  -2  12   19.17   39.95
  11   2  12  -84.18   59.17
  11   2  12  107.46   92.96
  11   1 -12   32.49   19.43
  11   1 -12   15.35   40.12
 -11  -1 -12  138.31   95.22
 -11  -1  12    1.28   40.52
 -11  -1  12  -19.15   67.23
  11   1  12  -52.63   58.29
  11   1  12  -24.49   89.99
 -11  -1  12   23.00   43.45
  11   0 -12   47.49   37.33
 -11   0 -12  -98.18   89.44
  11   0 -12   18.71   21.34
  11   0 -12  -33.28   85.82
  11   0  12   70.91   54.99
 -11   0  12   24.15   37.51
  11   0  12  -84.08   88.02
  11  -1 -12   95.15  110.62
 -11   1 -12   15.14   78.35
  11  -1 -12   55.07   24.42
  11  -1  12  -57.85   75.57
  11  -1  12   34.38   55.68
 -11   2 -12   32.66   77.54
 -11   2 -12   10.73   67.61
  11  -2  12   19.42   61.45
  11  -2  12  -54.00   76.20
 -11   3 -12   56.95   78.42
 -11   3 -12   52.97   74.94
  11  -3  12   63.44   78.36
  11  -3  12  -49.54   81.16
 -11   4 -12   24.84   80.84
 -11   4 -12   -8.01   68.64
  11  -4  12  -94.40   89.40
  11  -4  12   65.02   89.27
 -11   5 -12   19.32   96.45
 -11   5 -12   58.06   66.13
  11  -5  12  -84.05   88.86
  11  -5  12  -82.94  107.35
 -11   6 -12  -14.72  114.17
 -11   6 -12   22.29   67.94
  11  -6  12  172.88  131.45
  11  -6  12   43.19   99.85
 -11   7 -12  149.23  212.66
 -11   7 -12  325.01  144.06
  12  10 -12   58.51   52.57
  12   9 -12  -30.52   46.59
 -12  -9  12    5.31   46.44
 -12  -9  12 -125.01   60.14
  12   8 -12    9.39   45.16
  12   8 -12  -12.81   40.55
 -12  -8  12   26.67   42.26
 -12  -8  12  -31.43   53.48
  12   7 -12  357.57   62.56
  12   7 -12    4.50   55.54
 -12  -7  12    2.12   69.40
  12   5 -12  101.75   38.11
  12   5 -12  -12.53   48.02
 -12  -5  12  250.20   47.42
 -12  -5  12  -60.07   49.33
  12   4 -12   65.98   31.53
  12   4 -12   73.45   41.87
 -12  -4  12  -12.45   42.25
 -12  -4  12   62.19   42.06
  12   3 -12   43.68   40.08
  12   3 -12   -6.63   25.77
 -12  -3  12   21.27   37.15
 -12  -3  12    1.20   40.43
  12   2 -12   11.73   21.50
  12   2 -12    7.56   38.79
 -12  -2  12   11.58   41.45
  12   1 -12   21.01   39.57
  12   1 -12    7.63   20.47
 -12  -1  12    2.71   42.72
  12   0 -12   94.93  103.44
  12   0 -12  120.14   39.78
 -12   0  12   42.68   56.08
  12   0  12  129.69   68.11
  12  -1 -12  -21.16   23.62
 -12   1 -12  -39.55   89.86
  12  -1 -12  -53.66  118.67
  12  -1  12   -1.25   60.00
 -12   2 -12   41.69   86.42
  12  -2  12  -74.46   69.23
 -12   3 -12 -183.45   99.39
  12  -3  12  127.57   89.55
 -12   7 -12    6.69   75.07
  12  -7  12  -48.31  151.67
 -12   8 -12   52.51   73.02
 -12   8 -12  -30.27  150.21
  12  -8  12  150.87  124.22
  12  -9  12  -61.58  130.04
  13  10 -12   37.07   55.32
 -13 -10  12   49.46   55.78
  13   9 -12   42.03   53.32
 -13  -9  12   26.73   54.21
 -13  -9  12  169.41   70.66
  13   8 -12  -21.86   42.76
  13   8 -12  -61.59   51.30
 -13  -8  12  -32.44   46.72
 -13  -8  12  -60.50   58.34
  13   7 -12   54.36   45.87
  13   7 -12   -7.38   39.26
 -13  -7  12   -1.26   44.13
 -13  -7  12    2.31   52.52
  13   6 -12  -13.24   40.05
 -13  -6  12  103.53   51.38
  13   4 -12  183.61   42.03
  13   4 -12    7.29   52.27
 -13  -4  12  168.67   51.81
 -13  -4  12   -1.23   53.49
  13   3 -12   15.77   27.99
  13   3 -12   31.72   46.04
 -13  -3 -12   16.46  120.19
 -13  -3  12   10.90   40.63
 -13  -3  12   40.34   45.34
  13   3  12 -127.08  117.84
  13   2 -12  -39.02   37.70
 -13  -2 -12  -92.98  127.64
  13   2 -12   37.82   56.07
 -13  -2  12   35.79   64.40
 -13  -2  12   83.67   52.67
  13   2  12  201.82  124.14
  13   2  12  287.81   78.13
 -13  -1 -12  114.14  125.72
  13   1  12   -6.21  108.31
 -13  -1  12   56.29   53.71
  13   1  12  -62.30   71.63
 -13   0 -12  -91.78  121.83
 -13   0  12   27.00   54.61
  13   0  12  -94.29   90.72
 -13   0  12  -62.79  105.15
  13  -1 -12  574.04  166.70
 -13   1 -12  237.70  150.13
  13  -1  12  299.49  123.21
 -13   3 -12  -65.00  134.22
  13  -3  12  651.35  155.42
 -13   4 -12   10.14   90.97
 -13   4 -12  -25.45  112.44
  13  -4  12   -7.88  130.75
  13  -4  12   83.25  124.36
 -13   5 -12  -33.45  121.72
 -13   5 -12   19.99   84.06
  13  -5  12   27.35  129.90
  13  -5  12   40.90  118.24
 -13   6 -12  154.97  136.96
 -13   6 -12   61.72   80.75
  13  -6  12  -65.20  117.68
  13  -6  12 -116.79  153.43
 -13   7 -12   44.58  152.24
 -13   7 -12   84.12   81.64
  13  -7  12  260.28  130.76
  13  -7  12  -49.62  161.31
 -13   8 -12   16.03   78.46
 -13   8 -12  -85.14  164.92
  13  -8  12 -328.26  138.38
  13  -9  12  162.29  143.89
  14  10 -12   24.22   58.72
 -14 -10  12  -52.06   57.93
  14   9 -12   -5.92   54.90
 -14  -9  12   55.39   53.85
 -14  -9  12  -48.53   71.24
 -14  -8  12  -74.73   68.23
 -14  -8  12   81.26   50.61
 -14  -7  12  545.94  250.34
 -14  -7  12  987.42  255.99
 -14  -3 -12   90.03  125.61
  14   3  12  -22.56  128.49
 -14  -2 -12  -98.82  133.57
  14   2  12  -66.81   75.53
  14   2  12   78.30  122.63
 -14  -1 -12   33.09  140.62
  14   1  12    5.19   73.94
  14   1  12  -37.41  107.71
 -14   0 -12  -70.93  131.15
  14   0  12    1.02   88.90
  14   0  12  -91.08   74.64
 -14   1 -12   -3.80  113.45
 -14   1 -12  -48.82  123.38
  14  -1  12  143.32  103.46
  14  -1  12    1.59   77.63
 -14   2 -12   83.85  109.12
 -14   2 -12  -43.71  115.04
  14  -2  12   11.97   85.32
  14  -2  12  -49.86  104.00
 -14   3 -12  -15.28  102.55
 -14   3 -12 -147.35  121.95
  14  -3  12   39.40  104.82
  14  -3  12 -167.89  113.97
 -14   4 -12   87.09  130.76
 -14   4 -12   90.67  112.73
  14  -4  12  152.09  138.53
  14  -4  12  224.71  144.67
 -14   5 -12  211.06  141.10
 -14   5 -12   86.01   93.43
  14  -5  12   15.91  146.52
  14  -5  12   -2.40  131.32
 -14   6 -12 -268.31  153.01
 -14   6 -12  -91.84   93.05
  14  -6  12  292.85  168.48
  14  -6  12  433.50  141.32
 -14   7 -12  257.72  178.27
 -14   7 -12  133.07  260.71
  14  -7  12  414.04  216.02
 -14   8 -12  106.27  187.47
 -14   8 -12   47.72   85.47
  14  -8  12   10.71  144.10
 -14   9 -12   30.01  196.25
  14  -9  12   84.89  146.84
 -15  -3 -12 -273.37  144.91
  15   3  12   -6.80  136.38
 -15  -2 -12  144.04  154.11
  15   2  12   14.69  122.39
  15   2  12   49.16   83.66
 -15  -1 -12  -18.69  150.73
  15   1  12   92.89  111.05
  15   1  12  154.34   89.60
 -15   0 -12  178.79  155.57
  15   0  12   61.52  106.91
  15   0  12   27.44   85.18
 -15   1 -12  244.77  131.83
 -15   1 -12   29.92  138.59
  15  -1  12  108.21   89.08
  15  -1  12  -18.98  111.97
 -15   1  12   -6.50  150.36
  15  -2 -12  -51.27  180.93
 -15   2 -12 -110.60  120.78
 -15   2 -12   -6.73  126.36
  15  -2  12  -90.95   96.25
  15  -2  12  -34.14  112.82
 -15   3 -12  225.48  116.31
 -15   3 -12   77.80  133.58
  15  -3  12  -80.05  113.03
  15  -3  12   35.37  123.03
 -15   4 -12  -27.14  151.80
 -15   4 -12   21.04  117.39
  15  -4  12 -383.05  146.29
  15  -4  12 -329.44  165.54
 -15   5 -12  176.83  154.37
 -15   5 -12   82.82  101.27
  15  -5  12 -341.76  153.90
 -15   6 -12   86.27  164.75
 -15   6 -12  -72.71  101.49
  15  -6  12  178.24  146.09
  15  -6  12 -175.81  179.09
 -15   7 -12  269.90  190.41
 -15   7 -12 -182.75   98.37
  15  -7  12 -133.73  189.66
  15  -7  12  -82.26  152.11
 -15   8 -12  161.96  197.69
 -15   8 -12  -37.91   96.65
  15  -8  12  149.90  158.57
 -15   9 -12  163.94  211.97
  15  -9  12 -117.35  163.22
 -16  -3 -12   94.03  156.24
  16   3  12 -197.37  146.77
 -16  -2 -12   -5.40  174.04
  16   2  12  320.73  106.19
  16   2  12  -45.39  132.79
 -16  -1 -12  -58.36  177.36
  16   1  12   65.36  107.19
  16   1  12   38.92   95.50
 -16   0 -12  111.82  129.78
 -16   0 -12  -48.86  165.75
  16   0  12  -65.87   92.26
  16   0  12  -53.53  117.40
 -16   1 -12  266.83  134.77
 -16   1 -12 -124.59  170.34
  16  -1  12   36.39  120.13
  16  -1  12 -254.93   97.93
 -16   2 -12 -100.34  160.47
  16  -2 -12  211.88  189.92
 -16   2 -12  104.03  133.90
  16  -2  12   84.14  125.46
  16  -2  12   70.98  107.49
 -16   3 -12  -69.77  158.42
 -16   3 -12  -75.04  130.62
  16  -3  12  206.58  124.17
  16  -3  12  299.39  151.98
 -16   4 -12   77.16  160.27
 -16   4 -12  129.57  125.98
  16  -4  12   48.77  162.98
  16  -4  12   88.39  143.73
 -16   5 -12   86.58  179.05
 -16   5 -12 -125.38  127.21
  16  -5  12  373.19  194.77
  16  -5  12  322.43  183.63
 -16   6 -12 -100.70  187.82
 -16   6 -12  186.78  113.89
  16  -6  12 -117.80  172.56
  16  -6  12  270.45  198.24
 -16   7 -12  -99.12  103.51
 -16   7 -12  145.16  199.69
  16  -7  12 -182.78  169.83
  16  -7  12 -189.39  204.85
 -16   9 -12  174.72  222.81
  16  -9  12 -302.76  180.67
 -17  -3 -12  142.64  179.96
  17   3  12 -224.57  152.75
 -17  -2 -12  -61.09  187.85
  17   2  12  208.96  129.86
  17   2  12  -38.09  103.26
 -17  -1 -12  -18.15  204.42
  17   1  12  293.90  111.77
  17   1  12  -13.40  131.64
 -17   0 -12  -59.12  203.19
 -17   0 -12 -113.71  159.80
  17   0  12   62.79  105.12
  17   0  12 -221.85  133.40
 -17   1 -12   36.51  149.95
 -17   1 -12  181.06  190.00
  17  -1  12    1.58  131.86
  17  -1  12   13.97  111.16
 -17   2 -12    4.82  176.58
 -17   2 -12   62.87  141.96
  17  -2  12    1.57  133.74
  17  -2  12   19.45  115.54
 -17   3 -12   57.10  143.04
 -17   3 -12  203.45  184.17
  17  -3  12  -83.93  132.77
  17  -3  12 -113.85  156.15
 -17   4 -12   46.59  128.66
 -17   4 -12 -117.57  179.51
  17  -4  12  -60.06  150.53
  17  -4  12   45.13  173.71
 -17   5 -12   42.82  193.73
 -17   5 -12 -177.34  135.69
 -17   6 -12  -37.55  125.42
 -17   6 -12 -108.97  218.24
 -17   7 -12  -11.05  116.54
 -17   7 -12  -26.06  225.63
  17  -7  12   32.94  218.63
  17  -7  12 -237.02  201.65
 -17   8 -12   11.55  120.43
 -17   8 -12    5.43  240.99
  17  -8  12  379.02  202.36
 -17   9 -12  -67.39  243.85
  17  -9  12    3.64  194.25
 -18  -3 -12  105.06  216.80
  18   3  12 -277.87  158.34
 -18  -2 -12 -236.36  229.79
 -18  -1 -12 -292.23  194.91
 -18  -1 -12 -478.39  259.77
 -18   0 -12  -57.34  181.35
 -18   0 -12  -88.58  253.10
  18   0  12   32.65  148.27
  18   0  12 -315.91  165.40
 -18   1 -12 -220.14  192.96
 -18   1 -12 -443.75  254.68
 -18   2 -12  -53.59  226.73
 -18   2 -12   40.59  162.00
 -18   3 -12  -63.58  164.44
 -18   3 -12 -135.76  216.97
  18  -3  12 -106.15  152.10
  18  -3  12 -361.75  194.48
 -18   4 -12    5.46  214.83
 -18   4 -12  114.15  144.97
  18  -4  12   60.60  169.90
  18  -4  12  -56.76  197.39
 -18   5 -12  -75.21  137.67
 -18   5 -12 -139.37  221.57
  18  -5  12   98.43  211.75
  18  -5  12   41.72  190.02
 -18   6 -12   35.70  145.06
 -18   6 -12  257.60  240.54
  18  -6  12  364.20  245.83
  18  -6  12  -69.45  235.28
 -18   7 -12  684.67  255.49
 -18   7 -12  -49.03  138.85
  18  -7  12 -195.39  216.26
  18  -7  12  252.27  243.35
 -18   8 -12   35.92  256.46
 -18   8 -12  109.20  131.32
  18  -8  12 -120.92  215.98
 -19  -3 -12   79.57  234.28
 -19  -2 -12   47.69  258.54
  19   2  12  218.41  144.75
 -19  -1 -12   16.07  284.36
 -19  -1 -12   63.72  185.01
  19   1  12  137.87  164.10
  19   1  12 -424.49  141.02
 -19   0 -12 -330.58  279.19
 -19   0 -12  172.81  188.54
  19   0  12  -98.60  164.10
  19   0  12 -194.16  144.63
 -19   1 -12 -147.46  177.95
 -19   1 -12 -183.59  273.55
  19  -1  12  -22.68  160.76
  19  -1  12   71.89  136.55
 -19   2 -12  -82.80  257.79
 -19   2 -12    6.37  171.57
  19  -2  12   57.46  183.47
  19  -2  12   37.11  149.41
 -19   3 -12  -56.87  166.94
 -19   3 -12 -263.03  256.65
  19  -3  12  118.61  198.42
  19  -3  12   49.96  159.48
 -19   4 -12  -93.14  257.23
  19  -4  12  458.34  224.55
  19  -4  12   90.58  188.38
 -19   5 -12 -336.43  260.19
  19  -5  12 -159.10  205.46
   0   0 -13   -8.76    8.78
  -1   0 -13   86.90   60.23
   1   0 -13  140.74   59.86
   0   1 -13  236.76   59.39
   0   1 -13  264.39   70.53
   0  -1  13  234.90   68.98
  -1   0  13  159.47   68.66
  -1   1 -13   -1.13   24.82
   1   1 -13   -1.12   24.80
   1   1 -13   -6.52    8.38
  -1   1 -13   -2.41    7.46
   1  -1  13    2.93   19.94
  -1  -1  13   -6.92   21.23
  -1   2 -13   71.38   28.16
   2   1 -13   50.59   17.50
   2   1 -13   17.17   30.74
  -1   2 -13   50.26   17.28
   1  -2  13   34.01   25.74
  -2  -1  13   20.72   26.69
   1  -2  13   54.34   30.88
   0   2 -13  -11.98   21.37
   2   0 -13   -8.92   25.16
   2   0 -13    4.80   10.05
   0   2 -13   -2.15    8.73
  -2   0 -13   -0.56    8.28
   0  -2  13   -0.65   19.04
   0  -2  13    0.93   16.98
  -2   0  13    7.79   20.50
   1   2 -13   27.12   26.27
   1   2 -13   35.26   16.73
  -2   1 -13   20.84   15.93
  -1  -2  13   55.81   24.85
   2  -1  13  117.33   24.57
   2  -1  13   21.19   31.53
  -2   2 -13    3.81    9.54
   2   2 -13    4.21   11.35
   2   2 -13   11.33   23.38
  -2   2 -13   51.09   22.83
   2  -2  13   -9.20   32.96
   2  -2  13   96.14   21.10
  -2  -2  13    3.47   20.73
   3   2 -13  -16.07   16.91
  -2   3 -13  -49.40   28.81
  -2   3 -13  -30.34   12.60
   3   2 -13  -15.60   25.43
   3   2 -13    2.54   11.18
  -3  -2  13  -22.53   23.32
   3   1 -13   24.43   27.43
  -1   3 -13   -0.51    8.60
  -1   3 -13   -4.64   20.91
  -1   3 -13   -0.80   15.24
   3   1 -13    5.60   10.02
  -3  -1  13   -5.00   22.44
   1  -3  13  -10.30   18.12
   0   3 -13   -6.00    9.30
   0   3 -13   -7.09   21.04
   3   0 -13    2.62   25.95
   0  -3  13   -5.61   18.10
  -3   0  13    5.40   22.08
   1   3 -13   -6.39    9.77
   1   3 -13  -11.99   22.60
  -1  -3  13   -4.08   18.68
   3  -1  13   32.30   31.69
   2   3 -13   -9.92   23.42
  -3   2 -13 -139.69   63.82
   2   3 -13   -1.84   11.71
  -2  -3  13  -16.49   21.12
   3   3 -13   -0.86   22.40
   3   3 -13   -5.83   11.73
  -3  -3  13  -26.37   22.16
  -3   4 -13   82.96   32.44
  -3   4 -13   89.31   39.67
  -3   4 -13   84.12   40.20
  -3   4 -13   87.77   36.87
   4   3 -13   70.77   39.19
   3  -4  13   36.83   54.99
   3  -4  13  112.32   40.57
   3  -4  13  113.72   33.59
  -4  -3  13   93.39   38.76
   3  -4  13   87.72   36.63
  -2   4 -13   57.05   31.20
  -2   4 -13   19.38   34.43
  -2   4 -13  102.27   34.75
  -2   4 -13   74.23   27.16
   4   2 -13   77.94   36.21
   2  -4  13   83.74   28.51
  -4  -2  13   72.04   34.92
   2  -4  13  101.32   31.46
  -1   4 -13 -142.49   41.64
  -1   4 -13   12.59   28.92
   4   1 -13   -1.34   10.62
  -1   4 -13  -47.47   25.43
  -1   4 -13   -4.95   11.73
   4   1 -13   -7.22   29.71
  -4  -1  13    7.88   25.22
   1  -4  13  -20.48   16.99
   1  -4  13  -61.73   22.33
   0   4 -13   -1.27   12.48
   4   0 -13    0.73   12.18
   4   0 -13   36.50   33.45
   0   4 -13   -4.37   20.40
  -4   0  13   62.49   28.41
   0  -4  13    0.50   20.91
   0  -4  13  -12.86   16.76
   1   4 -13   -7.42   12.58
   1   4 -13  -52.65   25.15
  -1  -4  13   -9.91   19.84
  -1  -4  13  -50.06   22.77
   2   4 -13   56.95   25.95
   2   4 -13   77.30   31.98
  -4   2 -13   77.52   38.78
  -2  -4  13   69.30   29.72
   3   4 -13   67.56   35.23
   3   4 -13   88.84   29.44
  -3  -4  13   73.79   34.71
   4   4 -13   10.23   22.00
  -4   4 -13   14.35   10.77
   4  -4  13    3.34   12.07
  -4  -4  13   -7.57   20.13
  -4   5 -13  345.69  117.12
   5   4 -13  301.82  121.26
  -4   5 -13  189.85  131.25
   5   4 -13  368.80  112.82
  -5  -4  13  330.45  119.38
   4  -5  13  408.80  119.49
   4  -5  13  452.85  125.21
  -5  -4  13  257.21  122.00
   5   3 -13  653.95  263.33
  -3   5 -13  856.69  253.89
  -3   5 -13 1023.84  280.54
  -3   5 -13  488.30  265.69
  -3   5 -13  826.78  278.16
   3  -5  13  871.36  268.98
   3  -5  13  808.23  257.18
   3  -5  13  816.58  301.70
  -5  -3  13  620.42  270.20
  -2   5 -13  118.49   57.57
   5   2 -13  196.35   50.66
  -2   5 -13  169.24   52.60
   5   2 -13  105.71   60.31
   2  -5  13  134.15   57.31
   2  -5  13  149.78   53.55
   2  -5  13  183.68   56.03
  -5  -2  13  130.42   61.46
   5   1 -13  171.29   72.46
   5   1 -13  158.58   67.10
  -1   5 -13  145.76   60.55
   5   1 -13  198.27   54.71
  -1   5 -13  135.84   56.47
   1  -5  13  182.81   57.66
   1  -5  13  190.71   59.30
  -5  -1  13  128.56   67.50
   0   5 -13  388.81  108.62
   0   5 -13  347.69  104.59
   5   0 -13  281.17  115.68
  -5   0 -13   95.56  107.42
   5   0 -13  341.22  103.24
   0  -5  13  420.68  107.77
  -5   0  13  292.43  117.91
   0  -5  13  358.06  105.99
   5   0  13  364.29  119.77
  -5   1 -13  126.51   52.57
   1   5 -13  150.88   54.57
  -5   1 -13   24.37   71.95
   1   5 -13  198.93   51.22
  -1  -5  13  130.17   52.52
  -1  -5  13  157.53   54.03
   5  -1  13  170.50   61.23
   5  -1  13  154.29   74.61
   2   5 -13  182.18   45.53
   2   5 -13  123.33   49.48
  -5   2 -13  116.10   61.74
  -5   2 -13  144.72   46.38
  -2  -5  13  125.39   49.01
   5  -2  13   20.37   69.32
   5  -2  13   96.25   53.31
  -2  -5  13  129.10   48.25
   5  -2  13  156.19   57.26
  -5   3 -13  755.74  235.63
  -5   3 -13  657.04  276.75
   3   5 -13  511.07  238.97
   5  -3  13  253.13  268.07
   5  -3  13  795.09  231.30
   5  -3  13  817.28  271.45
  -3  -5  13  739.20  239.53
  -5   4 -13  322.21  121.87
   4   5 -13  388.02  113.30
  -5   4 -13  257.07  114.73
  -4  -5  13  435.92  113.40
   5  -4  13   85.95  129.72
   5  -4  13  373.60  116.25
  -5   5 -13    8.35   33.95
  -5   5 -13    4.30   13.53
   5   5 -13    7.95   22.36
  -5   5 -13   19.28   33.53
   5   5 -13   12.10   17.15
   5  -5  13  -65.57   40.30
   5  -5  13   62.89   70.72
   5  -5  13    6.01   16.85
  -5  -5  13   14.36   22.72
  -5  -5  13   -0.65   21.06
   6   5 -13   79.55   49.68
  -5   6 -13  107.57   61.93
  -5   6 -13  134.62   50.69
   6   5 -13  112.20   44.56
  -6  -5  13  150.14   49.17
  -6  -5  13   97.81   48.98
   5  -6  13  189.44   49.72
   5  -6  13  135.79   65.30
   6   4 -13   32.23   16.45
   6   4 -13   22.16   26.13
  -4   6 -13   12.86   20.14
  -4   6 -13   28.31   18.28
  -6  -4  13   47.37   23.70
   4  -6  13    0.88   20.35
  -6  -4  13   10.23   22.93
  -3   6 -13  188.14   64.17
   6   3 -13  198.95   61.39
   6   3 -13  146.50   69.75
  -3   6 -13  169.81   69.99
   3  -6  13  225.27   66.71
  -6  -3  13  161.07   71.26
   6   2 -13   81.32   46.38
   6   2 -13   84.98   35.14
  -2   6 -13   99.40   40.60
  -2   6 -13  144.25   38.01
   2  -6  13   64.94   38.76
  -6  -2  13  125.12   46.13
   6   1 -13  399.44  119.57
   6   1 -13  336.11  137.63
  -1   6 -13  417.65  128.96
  -1   6 -13  452.48  123.03
   6   1 -13  262.73  135.98
  -6  -1  13  292.68  141.10
   6   1  13  437.76  142.10
  -6   0 -13   10.13   52.70
   0   6 -13   -8.28   18.01
  -6   0 -13    2.84    7.61
   6   0 -13   -5.80   30.84
   0   6 -13   17.13   15.92
   6   0 -13   -0.81   13.16
  -6   0  13    5.28   27.29
   6   0  13   34.49   53.21
   0  -6  13   -4.07   18.62
  -6   1 -13  162.78  136.81
  -6   1 -13  237.60  126.74
   1   6 -13  412.34  120.96
   1   6 -13  402.55  125.39
   6  -1  13  513.80  126.73
  -1  -6  13  346.98  123.43
   6  -1  13  437.01  146.84
   2   6 -13  113.18   41.08
   2   6 -13  101.73   38.89
  -6   2 -13   79.19   55.94
  -2  -6  13   69.93   41.75
   6  -2  13  160.04   47.94
   6  -2  13   75.03   64.88
  -6   3 -13  157.34   66.81
   3   6 -13  159.44   59.05
  -6   3 -13  184.42   78.37
   3   6 -13  171.15   62.19
  -3  -6  13  160.43   62.31
   6  -3  13  205.80   66.83
   6  -3  13   99.40   79.37
  -6   4 -13   37.31   36.99
   4   6 -13   12.21   22.00
  -6   4 -13   21.83   34.57
  -4  -6  13   19.18   21.59
   6  -4  13  -46.91   47.39
  -4  -6  13   15.01   23.82
   6  -4  13   54.08   45.71
   5   6 -13  141.23   40.66
  -6   5 -13  126.52   53.35
  -6   5 -13   67.47   57.09
   5   6 -13   80.69   43.10
   6  -5  13   78.81   80.44
   6  -5  13   68.15   59.88
  -5  -6  13  112.29   43.74
   6   6 -13    2.55   20.48
  -6   6 -13   -3.39   51.61
   6   6 -13   -0.93   25.16
  -6   6 -13    3.93   42.49
   6  -6  13  -25.55   55.41
   6  -6  13   64.68   92.76
  -6  -6  13   -5.73   26.72
  -6  -6  13    9.49   22.70
   7   6 -13  103.82   50.06
   7   6 -13   67.65   46.22
  -7  -6  13  144.92   49.35
  -7  -6  13  207.26   52.29
   6  -7  13   23.72   76.22
  -5   7 -13   15.03   21.50
   7   5 -13   18.26   28.16
   7   5 -13   34.07   20.65
  -7  -5  13   35.89   27.23
  -7  -5  13   10.04   25.75
   7   4 -13  561.92  212.60
  -4   7 -13  558.01  228.17
   7   4 -13  595.68  198.67
  -7  -4  13  528.59  217.59
  -7  -4  13  742.64  210.39
   7   3 -13  256.13   71.39
  -3   7 -13  169.37   75.89
  -3   7 -13  228.90   83.38
   7   3 -13  165.15   82.18
   3  -7  13  198.51   80.82
  -7  -3  13  188.04   85.08
   7   2 -13  122.59   62.13
  -2   7 -13  139.91   54.37
  -2   7 -13  147.62   58.02
   7   2 -13  169.64   50.98
   2  -7  13  164.30   57.29
  -7  -2  13  135.98   64.52
  -1   7 -13   36.88   22.98
   7   1 -13   51.02   19.64
   7   1 -13   17.65   35.02
  -1   7 -13   25.40   23.63
   1  -7  13   66.06   25.23
  -7  -1  13    7.32   33.12
   7   1  13   55.76   56.34
   7   0 -13  575.00  111.75
  -7   0 -13   50.23  136.62
   7   0 -13  222.38  134.57
   7   0 -13  174.38  147.33
   0   7 -13  407.39  121.51
   0   7 -13  355.40  114.99
   7   0  13  457.61  122.90
   7   0  13  421.91  146.05
  -7   0  13  220.98  144.11
   0  -7  13  223.83  118.64
   1   7 -13   49.11   24.00
  -7   1 -13   26.05   57.33
   1   7 -13   50.97   24.81
   7  -1  13   38.49   40.39
  -1  -7  13   40.08   26.32
   7  -1  13    2.75   63.08
   2   7 -13  189.51   54.06
  -7   2 -13  147.62   67.96
   2   7 -13  124.73   51.80
   7  -2  13  168.25   59.20
   7  -2  13   12.90   74.33
  -2  -7  13  151.70   53.89
   3   7 -13  345.49   89.97
  -7   3 -13  163.00   94.16
   3   7 -13  290.89   86.85
  -7   3 -13  247.21  108.07
  -3  -7  13  279.74   90.16
   7  -3  13  378.61   96.84
   7  -3  13  114.70  106.96
   4   7 -13  644.37  202.79
  -7   4 -13  607.40  224.83
   4   7 -13  604.00  194.65
  -7   4 -13  515.26  213.18
  -4  -7  13  683.78  203.25
   7  -4  13  398.82  228.76
   7  -4  13  621.24  210.79
  -7   5 -13   -3.31   49.21
  -7   5 -13   -1.66   41.92
   5   7 -13   23.02   25.14
   7  -5  13   -8.04   73.17
   7  -5  13    9.72   52.21
   6   7 -13  114.39   48.11
  -7   6 -13  115.19   77.16
  -7   6 -13  122.10   61.09
   6   7 -13   85.13   46.47
   7  -6  13  123.06   75.06
  -6  -7  13  138.16   51.02
   7  -6  13   75.98  106.59
   7   7 -13  -16.07   25.97
  -7   7 -13  -43.11   52.54
   7   7 -13    7.21   27.92
   7  -7  13   10.11   68.23
  -7  -7  13  -28.17   26.89
  -7  -7  13    1.40   32.37
   8   7 -13   22.14   27.48
   8   7 -13   40.34   30.30
  -8  -7  13   12.56   29.91
  -8  -7  13  -48.06   36.09
   8   6 -13   29.87   34.16
   8   6 -13   35.62   39.37
  -8  -6  13  167.61   43.39
  -8  -6  13   85.31   38.38
   8   5 -13  266.48  123.50
   8   5 -13  333.64  114.79
  -8  -5  13  340.92  123.20
  -8  -5  13  347.12  125.43
   8   4 -13    2.22   29.00
  -4   8 -13    6.69   20.89
   8   4 -13    3.15   19.64
  -8  -4  13    4.29   26.46
  -8  -4  13   15.46   26.89
   8   3 -13  443.10  136.35
  -3   8 -13  448.41  154.70
   8   3 -13  389.72  151.08
  -8  -3  13  357.84  157.78
  -2   8 -13   18.80   23.59
   8   2 -13   26.35   32.75
   8   2 -13   25.85   18.19
  -8  -2  13   33.44   32.37
  -8  -1 -13    2.53  107.31
   8   1 -13  180.74   93.25
   8   1 -13  321.59   72.73
  -1   8 -13  236.88   83.69
   8   1  13  238.21  110.71
  -8  -1  13  220.27  100.50
   1  -8  13  155.08   83.36
   0   8 -13    5.79   20.15
  -8   0 -13   44.28   66.38
   8   0 -13   -4.67   35.79
   8   0 -13  -30.80   66.56
   0   8 -13    3.07   20.94
   8   0 -13    0.94   15.01
  -8   0  13   -8.35   33.00
   8   0  13  -26.66   43.66
   0  -8  13   -1.29   26.35
   8   0  13   55.62   69.50
   8  -1 -13  232.74   87.41
   1   8 -13  288.12   92.30
  -8   1 -13  150.91  109.80
   1   8 -13  223.86   88.04
  -1  -8  13  277.94   92.21
   8  -1  13  332.33  120.55
   8  -1  13  278.57   95.13
   2   8 -13   41.64   24.93
  -8   2 -13   40.46   50.21
   2   8 -13   63.65   26.41
   8  -2  13   33.42   41.52
  -2  -8  13   31.64   30.69
   8  -2  13   -7.06   55.93
  -8   3 -13  437.38  169.02
  -8   3 -13  296.25  144.89
   3   8 -13  341.82  138.72
   3   8 -13  472.12  132.32
   8  -3  13  263.51  163.35
   8  -3  13  508.11  143.11
  -3  -8  13  400.09  139.04
  -8   4 -13    3.44   47.25
   4   8 -13   13.05   25.47
   4   8 -13    9.53   25.24
  -8   4 -13   -7.40   49.68
   8  -4  13  -82.93   57.88
   8  -4  13  -83.92   58.54
  -4  -8  13   67.46   30.59
  -8   5 -13  231.85  129.71
  -8   5 -13  157.03  140.88
   5   8 -13  307.04  116.46
   8  -5  13  501.69  137.87
   6   8 -13   44.90   34.74
  -8   6 -13   70.11   54.28
   6   8 -13   98.29   36.90
  -8   6 -13   64.71   74.26
   8  -6  13   43.97  109.71
   8  -6  13   96.62   73.05
  -6  -8  13   24.26   41.45
   7   8 -13   22.72   29.82
   7   8 -13  -21.14   30.09
  -8   7 -13   39.31   51.51
  -7  -8  13   45.33   37.76
   8  -7  13    1.27   76.89
   8   8 -13   43.24   33.55
   8  -8  13  -39.24   81.53
   9   7 -13   -1.81   24.09
   9   7 -13   28.39   33.67
  -9  -7  13   33.47   33.24
   9   6 -13   23.09   33.42
   9   6 -13   17.48   27.73
  -9  -6  13   55.43   36.45
  -9  -6  13   44.49   32.91
   9   5 -13   15.51   32.48
   9   5 -13    2.69   24.49
  -9  -5  13   -5.23   31.23
  -9  -5  13   10.85   31.05
   9   4 -13  344.26  155.74
  -4   9 -13  331.36  162.77
   9   4 -13  495.15  145.33
  -9  -4  13  638.62  155.16
  -9  -4  13  400.03  161.60
   9   3 -13   42.88   33.70
   9   3 -13   13.74   19.27
  -3   9 -13    0.84   23.90
  -9  -3  13   34.65   35.45
  -2   9 -13  204.90   64.91
   9   2 -13  193.74   57.41
   9   2 -13  155.24   70.69
   9   2  13  128.62   97.45
  -9  -2  13  109.24   74.96
  -1   9 -13   11.53   22.82
   9   1 -13   21.38   17.20
  -9  -1 -13    2.65   76.28
   9   1 -13   21.01   38.64
   9   1  13   58.79   51.23
   9   1  13  -81.00   75.40
  -9  -1  13   21.55   36.23
   9   0 -13  194.83  101.88
   0   9 -13  298.48   90.28
  -9   0 -13  149.23  115.09
   9   0 -13  203.14  120.99
   9   0 -13  382.38   82.59
   9   0  13  109.79  123.62
  -9   0  13  177.04  111.40
   9   0  13  269.17   95.54
   1   9 -13    0.94   23.57
  -9   1 -13  -25.96   64.34
   9  -1 -13   26.30   17.33
   9  -1  13 -182.61   73.12
  -1  -9  13    1.57   30.66
   9  -1  13  -90.53   45.45
  -9   2 -13  221.85   86.67
   2   9 -13  223.54   66.46
  -2  -9  13  181.37   69.55
   9  -2  13  104.14   76.55
  -9   3 -13   77.06   63.81
  -9   3 -13   35.25   54.14
   3   9 -13   47.83   31.80
   3   9 -13   46.52   30.40
  -3  -9  13   54.06   36.91
  -9   4 -13  334.00  152.03
  -9   4 -13  443.27  159.06
   4   9 -13  484.98  134.24
   4   9 -13  417.23  127.42
  -4  -9  13  228.41  136.26
   9  -4  13  538.32  150.70
   9  -4  13  113.99  163.39
   5   9 -13   26.41   29.32
  -9   5 -13   54.69   66.94
  -9   5 -13    8.47   53.96
   9  -5  13   61.16   89.90
   9  -5  13   86.01   72.72
  -9   6 -13  -29.70   52.36
   6   9 -13   50.51   31.92
  -9   6 -13   17.73   77.81
   9  -6  13  -49.71  110.68
   9  -6  13   52.33   75.36
  -9   7 -13   28.84   92.07
  -9   7 -13   -5.36   54.12
   9  -7  13   15.11  121.12
   9  -7  13   -5.73   81.49
   8   9 -13    4.49   35.12
   9  -8  13   68.51   90.12
  -8  -9  13    2.00   42.75
   9   9 -13  -13.62   37.31
   9   9 -13    9.50   36.17
  -9  -9  13   87.92   48.05
  10   9 -13   50.36   47.92
  10   9 -13   84.67   47.15
 -10  -9  13   73.83   57.43
  10   8 -13  120.88   57.60
  10   8 -13    2.25   55.07
 -10  -8  13  278.37   60.25
 -10  -8  13   12.08   66.85
  10   6 -13  196.54   71.88
  10   6 -13  129.62   77.52
 -10  -6  13  404.43   78.60
 -10  -6  13  142.08   76.54
  10   5 -13  207.20   66.87
  10   5 -13  133.71   60.30
 -10  -5  13  155.82   67.90
 -10  -5  13  136.93   68.45
  10   4 -13   62.96   36.01
  10   4 -13  108.75   46.85
 -10  -4  13   96.52   46.40
 -10  -4  13   91.83   45.16
  10   3 -13  252.21   96.68
  10   3 -13  218.66   83.49
 -10  -3  13  276.39  101.13
  10   2 -13    7.29   37.80
  10   2 -13   41.73   21.87
 -10  -2  13   28.49   39.13
  10   2  13   52.89   84.81
  10   1 -13    9.23   18.95
 -10  -1 -13 -110.80   85.69
  10   1 -13   -9.54   39.12
 -10  -1  13   29.28   37.62
  10   1  13   10.44   85.79
  10   1  13   67.42   55.22
 -10   0 -13   15.59   85.06
  10   0 -13   -3.32   36.24
  10   0 -13   -6.45   19.40
 -10   0  13  -10.75   38.12
  10   0  13  132.95   81.74
  10   0  13   29.59   52.50
  10  -1 -13   10.45  104.79
  10  -1 -13    7.02   21.48
 -10   1 -13    6.23   74.49
  10  -1  13  -20.01   49.12
  10  -1  13  -67.58   73.64
 -10   2 -13  -51.27   67.37
  10  -2  13   33.69   66.30
  10  -2  13   15.33   55.15
 -10   3 -13  240.93  119.38
 -10   3 -13  340.17  104.81
  10  -3  13  281.99  104.43
  10  -3  13   69.11  117.67
 -10   4 -13  106.18   68.29
 -10   4 -13   95.54   70.57
  10  -4  13   14.52   82.97
  10  -4  13    5.29   84.94
 -10   5 -13  165.05  102.17
 -10   5 -13  186.01   88.14
  10  -5  13   43.43  119.36
  10  -5  13  310.60  101.90
 -10   6 -13   70.84   70.85
 -10   6 -13  206.68  105.68
  10  -6  13  134.45   97.80
  -6 -10  13    2.10   56.57
  10  -6  13  -19.33  128.43
   7  10 -13   -7.99   33.60
 -10   7 -13    8.50   60.28
 -10   7 -13  -11.59  101.11
  10  -7  13  183.47   91.71
  10  -7  13   64.41  131.16
  -7 -10  13  -62.32   44.46
  -8 -10  13   68.66   62.27
   9  10 -13   84.51   46.84
  -9 -10  13   22.77   58.18
  10  10 -13    3.14   41.78
 -10 -10  13  -47.91   55.37
  11  10 -13   54.71   49.59
 -11 -10  13   60.67   67.82
  11   9 -13   96.13   45.24
  11   9 -13   13.68   42.12
 -11  -9  13   80.56   57.03
 -11  -9  13  -74.67   45.81
  11   8 -13   -7.19   36.52
  11   8 -13   25.76   42.83
 -11  -8  13  -15.31   40.36
 -11  -8  13   15.69   49.68
  11   7 -13   62.01   37.38
 -11  -7  13  -38.90   46.53
  11   5 -13   38.64   29.52
  11   5 -13   38.60   41.50
 -11  -5  13  -65.27   39.00
  11   4 -13   11.30   29.02
  11   4 -13   58.48   39.61
 -11  -4  13   70.47   39.01
 -11  -4  13   23.34   40.47
  11   3 -13   -4.27   38.95
  11   3 -13   56.93   24.43
 -11  -3  13    2.68   34.41
 -11  -3  13   17.73   39.67
  11   2 -13  -50.65   40.73
  11   2 -13   16.11   19.27
 -11  -2 -13  -50.16   89.28
 -11  -2  13   -8.93   41.63
  11   2  13  260.61   95.05
  11   1 -13   17.46   19.92
  11   1 -13  -24.86   42.10
 -11  -1 -13   21.59   94.50
  11   1  13  -30.17   58.73
 -11  -1  13  -43.25   39.87
  11   1  13  -98.76   94.98
  11   0 -13   13.91   21.26
 -11   0 -13  -33.35   94.53
 -11   0  13  -11.43   39.84
  11   0  13   -9.68   56.87
  11   0  13   18.97   91.03
  11  -1 -13   11.20   21.46
  11  -1 -13  -78.66  113.83
 -11   1 -13  -72.68   84.91
  11  -1  13    5.61   55.22
  11  -1  13   -5.71   73.43
 -11   2 -13   14.23   79.90
  11  -2  13   -9.83   74.48
  11  -2  13  -97.38   60.17
 -11   3 -13   10.56   68.33
 -11   3 -13   -8.30   77.17
  11  -3  13    6.27   82.63
  11  -3  13   31.67   69.76
 -11   4 -13   31.30   78.51
 -11   4 -13  103.69   75.26
  11  -4  13   30.53   87.76
  11  -4  13  -31.45   91.36
 -11   5 -13   72.53   76.27
 -11   5 -13   48.82   93.93
  11  -5  13   60.49  112.44
  11  -5  13  271.05   99.76
 -11   6 -13 -101.52  105.56
 -11   6 -13  -16.73   63.43
  11  -6  13   29.06  132.46
 -11   7 -13   -7.84  118.59
  11  -7  13   94.20  108.12
  12  10 -13    1.79   50.55
 -12 -10  13 -118.62   55.67
  12   9 -13   29.11   52.87
  12   9 -13  133.76   57.31
 -12  -9  13  -70.41   67.62
 -12  -9  13  149.13   56.83
  12   8 -13  -24.92   46.38
  12   8 -13   52.29   43.66
 -12  -8  13  -51.05   55.19
 -12  -8  13  -20.20   45.44
  12   7 -13   -4.73   41.66
  12   7 -13  -11.27   46.93
 -12  -7  13   62.58   55.45
 -12  -7  13    9.79   44.81
  12   6 -13   22.08   35.20
 -12  -6  13    1.93   47.56
  12   4 -13  120.42   36.04
  12   4 -13  -43.89   50.22
 -12  -4  13  -71.52   50.63
 -12  -4  13  247.09   46.09
  12   3 -13  -33.25   42.52
  12   3 -13  -40.51   26.65
 -12  -3  13   24.87   37.22
 -12  -3  13    3.85   41.90
  12   2 -13   67.40   29.96
  12   2 -13   50.47   47.41
 -12  -2  13    8.23   49.67
  12   2  13  224.86  109.51
  12   1 -13   22.23   23.38
  12   1 -13   24.41   43.97
 -12  -1  13   27.37   44.38
  12   0 -13  -38.47   23.29
 -12   0  13   28.69   43.71
  12  -1 -13   17.46   26.60
  12  -6  13  -17.57  146.01
 -12   7 -13  -29.67   76.63
  12  -7  13  446.66  105.44
  12  -7  13 -161.97  148.48
 -12   8 -13 -115.18  141.53
 -12   8 -13    7.34   72.66
  12  -8  13  -25.44  117.86
  12  -9  13  222.68  144.84
  13  10 -13  140.55   62.96
 -13 -10  13   28.30   62.88
  13   9 -13   68.89   53.96
  13   9 -13   12.40   48.14
 -13  -9  13   57.42   67.53
 -13  -9  13    4.38   51.53
  13   8 -13    8.36   45.46
  13   8 -13    9.05   51.23
 -13  -8  13  174.53   67.90
 -13  -8  13  -43.73   48.23
  13   7 -13  123.51   57.52
  13   7 -13   -2.52   49.48
 -13  -7  13   69.19   54.78
 -13  -7  13  157.00   63.81
  13   6 -13   59.28   50.35
  13   6 -13   20.09   42.70
 -13  -6  13   58.65   49.04
 -13  -6  13   65.18   55.11
  13   5 -13   53.63   37.93
 -13  -5  13   38.19   49.97
  13   3 -13    1.62   44.80
 -13  -3  13   29.29   48.35
  13   2 -13   17.13   46.17
  13   2 -13  -22.91   26.35
 -13  -2 -13 -161.68  118.59
  13   2  13   -8.38  112.18
  13   2  13  -29.32   68.57
 -13  -2  13    1.46   48.77
 -13  -1 -13   22.56  124.37
  13   1 -13   23.86   24.08
  13   1 -13   -8.93   45.62
  13   1  13   16.11  105.27
  13   1  13 -180.10   74.04
 -13  -1  13   24.48   47.18
 -13   0 -13  -38.46  129.06
  13   0  13  -59.21  100.65
  13   0  13 -166.56   78.02
 -13   1 -13  146.09  112.02
  13  -1  13 -226.51   95.26
 -13   2 -13   -3.48  103.19
 -13   2 -13   -2.69  108.53
  13  -2  13 -114.29  101.01
  13  -2  13  -58.52   78.37
 -13   3 -13   69.82   98.17
 -13   3 -13  -22.39  106.68
  13  -3  13 -132.13  114.25
  13  -3  13  -57.09   90.58
 -13   4 -13  -29.98  104.34
 -13   4 -13  -68.40   90.98
  13  -4  13 -103.87  106.46
  13  -4  13   88.04  118.36
 -13   5 -13  -21.51  114.74
 -13   5 -13  -30.13   86.44
  13  -5  13  131.48  120.02
  13  -5  13   19.81  124.49
 -13   6 -13   14.77  128.99
 -13   6 -13    6.91   83.31
  13  -6  13  201.03  157.30
  13  -6  13  152.73  124.80
 -13   7 -13  123.91  143.33
 -13   7 -13   10.86   80.13
  13  -7  13   26.69  123.89
  13  -7  13  -33.58  155.03
 -13   8 -13  -24.86  159.77
 -13   8 -13   59.11   79.81
  13  -8  13 -136.78  132.89
 -13   9 -13 -135.57  171.01
  13  -9  13  -29.07  136.52
  14  10 -13    4.29   60.17
 -14 -10  13    5.01   57.66
  14   9 -13   41.70   62.27
 -14  -9  13   66.02   57.61
 -14  -9  13   -6.92   70.35
  14   8 -13  154.63   57.44
  14   8 -13  -33.49   48.55
 -14  -8  13  -26.92   52.40
 -14  -8  13   29.64   66.43
  14   7 -13  -93.02   54.22
  14   7 -13   30.33   42.96
 -14  -7  13    2.61   61.80
 -14  -7  13  -10.12   51.44
 -14  -5  13  120.34   66.50
 -14  -2 -13 -117.55  136.58
  14   2  13   38.25  120.50
  14   2  13   35.73   76.74
 -14  -1 -13 -319.82  139.89
  14   1  13  -12.45   77.91
  14   1  13   57.80  108.23
 -14   0 -13   71.32  134.57
  14   0  13  -23.53   77.63
 -14   1 -13  191.80  130.58
  14  -1  13  107.15   80.43
  14  -1  13  -16.38   98.82
 -14   2 -13   -6.21  120.34
 -14   2 -13  -65.89  108.09
  14  -2  13  -55.44  104.85
  14  -2  13  140.83   84.90
 -14   3 -13   28.64  116.00
 -14   3 -13  139.89  110.58
  14  -3  13  117.33  112.43
  14  -3  13    5.54   98.33
 -14   4 -13  -84.44  101.72
 -14   4 -13  146.01  118.10
  14  -4  13  -37.40  127.37
  14  -4  13  -79.38  117.18
 -14   5 -13  -33.87   94.89
 -14   5 -13    3.05  129.07
  14  -5  13  137.24  136.89
  14  -5  13   59.39  139.91
 -14   6 -13  -76.94  143.67
 -14   6 -13   77.32   90.47
  14  -6  13    6.27  171.00
  14  -6  13  -37.68  136.86
 -14   7 -13  134.57  162.77
 -14   7 -13   71.97   90.89
  14  -7  13   45.38  168.24
  14  -7  13   -2.49  137.92
 -14   8 -13    4.28   84.46
 -14   8 -13   78.50  174.24
  14  -8  13  -59.62  142.66
 -14   9 -13  -33.00  187.10
  14  -9  13 -159.95  151.07
  15   3  13   81.16  167.45
 -15  -2 -13    9.70  145.49
  15   2  13 -342.14  132.94
  15   2  13   28.95   84.88
 -15  -1 -13    4.74  151.48
  15   1  13 -230.45  117.04
  15   1  13  -27.69   83.24
 -15   0 -13  185.09  156.90
  15   0  13   -6.71   96.40
  15   0  13   45.20   86.57
 -15   1 -13  162.62  121.02
 -15   1 -13  -24.03  145.30
  15  -1  13  -57.08  109.29
  15  -1  13    3.61   86.63
 -15   2 -13   96.74  137.96
 -15   2 -13   95.14  126.54
 -15   3 -13   36.26  164.97
 -15   3 -13  212.06  166.80
 -15   4 -13  -29.97  114.33
 -15   4 -13   91.11  141.34
 -15   5 -13  -50.72  102.25
 -15   5 -13  294.69  151.20
  15  -5  13 -155.54  156.57
  15  -5  13  -46.18  152.36
 -15   6 -13  -26.64  162.29
 -15   6 -13  124.11  101.16
  15  -6  13 -266.77  149.13
  15  -6  13   43.44  177.33
 -15   7 -13  -35.53   96.71
 -15   7 -13  -16.22  174.25
  15  -7  13  -19.71  178.46
  15  -7  13  112.74  149.02
 -15   8 -13   65.00  188.71
 -15   8 -13   -9.39   91.59
  15  -8  13   71.07  156.40
 -15   9 -13 -258.65  217.07
 -16  -3 -13  106.42  154.95
  16   3  13    1.77  144.38
 -16  -2 -13  -70.72  174.16
  16   2  13   32.11   93.47
  16   2  13   -9.03  124.42
 -16  -1 -13  118.18  178.97
  16   1  13   44.23   95.84
  16   1  13   24.16  115.55
 -16   0 -13   10.32  172.51
  16   0  13   74.11   95.24
  16   0  13 -108.64  115.86
 -16   1 -13   92.24  174.83
 -16   1 -13   85.33  144.81
  16  -1  13  162.34  131.01
  16  -1  13  146.90  103.91
 -16   2 -13 -110.59  162.68
 -16   2 -13 -153.74  134.34
  16  -2  13   -2.12  100.47
  16  -2  13   -1.44  123.63
 -16   3 -13  -33.42  125.75
 -16   3 -13  129.02  156.90
  16  -3  13 -132.17  132.57
  16  -3  13  -38.66  114.53
 -16   4 -13  -28.13  117.79
 -16   4 -13  234.96  155.48
  16  -4  13   41.84  138.14
  16  -4  13 -215.87  155.68
 -16   5 -13  -37.44  114.26
 -16   5 -13  101.79  167.45
  16  -5  13   95.38  150.44
  16  -5  13 -149.66  172.24
 -16   6 -13  148.88  118.38
 -16   6 -13 -153.65  183.04
  16  -6  13  156.10  173.31
  16  -6  13  215.03  195.57
 -16   7 -13   89.06  111.74
 -16   7 -13 -122.50  199.95
 -16   8 -13   72.57  109.05
 -16   8 -13   14.30  206.26
  16  -8  13 -521.12  183.18
 -16   9 -13 -273.43  218.34
  16  -9  13  106.32  176.00
 -17  -3 -13  -75.22  185.87
  17   3  13 -124.67  151.39
 -17  -2 -13  147.51  193.36
  17   2  13  241.57  137.60
  17   2  13   63.91  112.89
 -17  -1 -13  -67.31  194.36
  17   1  13    2.76  117.02
  17   1  13  101.76  107.19
 -17   0 -13    5.92  195.98
 -17   0 -13  140.99  151.18
  17   0  13 -342.19  132.70
  17   0  13   54.90  106.98
 -17   1 -13   73.67  148.63
 -17   1 -13  -28.50  209.13
  17  -1  13 -198.46  104.34
  17  -1  13   56.21  132.01
 -17   2 -13  180.45  149.02
 -17   2 -13 -168.88  187.52
  17  -2  13  111.79  117.80
  17  -2  13  -75.80  133.17
 -17   3 -13  -63.26  148.44
 -17   3 -13 -144.07  187.74
  17  -3  13  -75.36  160.77
  17  -3  13 -182.25  130.45
 -17   4 -13  -26.19  142.58
 -17   4 -13 -242.45  196.28
 -17   5 -13  105.91  206.77
 -17   5 -13 -299.37  157.96
  17  -5  13 -373.47  256.18
  17  -5  13 -486.74  224.69
 -17   6 -13 -150.07  201.11
 -17   6 -13 -107.73  127.71
  17  -6  13 -129.17  204.30
  17  -6  13 -117.45  215.77
 -17   7 -13   71.51  216.08
 -17   7 -13  -82.87  119.14
  17  -7  13  100.03  221.74
  17  -7  13 -207.86  192.45
 -17   8 -13  189.82  122.25
 -17   8 -13   -5.27  225.18
  17  -8  13   60.48  193.46
 -17   9 -13  157.93  234.84
  17  -9  13  -49.99  195.73
 -18  -3 -13   42.41  207.60
  18   3  13  106.04  158.97
 -18  -2 -13  237.44  218.43
  18   2  13  -17.17  119.39
  18   2  13   43.62  132.10
 -18  -1 -13   42.01  224.35
 -18  -1 -13  167.46  177.14
  18   1  13   92.35  121.07
  18   1  13 -236.93  144.07
 -18   0 -13  -75.01  226.49
 -18   0 -13   86.79  172.93
  18   0  13 -125.11  148.34
  18   0  13 -121.20  122.60
 -18   1 -13 -222.46  165.72
 -18   1 -13 -191.16  241.79
  18  -1  13   94.52  124.20
  18  -1  13  172.81  151.08
 -18   2 -13   23.70  218.50
 -18   2 -13  170.57  163.35
  18  -2  13  186.46  156.09
  18  -2  13 -156.21  131.46
 -18   3 -13 -146.67  156.58
 -18   3 -13  -69.32  214.44
  18  -3  13  105.29  139.53
  18  -3  13  169.99  185.43
 -18   4 -13 -115.29  146.98
 -18   4 -13  468.86  213.46
  18  -4  13   12.63  159.20
  18  -4  13  -67.91  190.21
 -18   5 -13  174.72  142.82
 -18   5 -13 -370.65  212.56
  18  -5  13 -202.70  220.63
  18  -5  13  -48.63  174.91
 -18   6 -13 -139.08  140.17
 -18   6 -13  394.90  229.94
  18  -6  13 -322.84  225.04
  18  -6  13 -362.37  233.92
 -18   7 -13 -210.28  136.83
 -18   7 -13  147.39  238.53
  18  -7  13  266.74  223.48
  18  -7  13  202.83  243.20
 -18   8 -13  -58.49  257.23
 -18   8 -13  269.12  149.92
  18  -8  13  311.18  231.85
 -19  -2 -13 -103.73  247.76
  19   2  13 -183.93  135.52
 -19  -1 -13    6.42  174.54
 -19  -1 -13  -72.45  257.17
  19   1  13    1.87  136.54
  19   1  13    3.16  134.36
 -19   0 -13  -48.85  284.79
  19   0  13  -72.83  141.02
 -19   1 -13 -220.56  179.38
 -19   1 -13  -45.89  270.00
  19  -1  13  183.72  140.31
 -19   2 -13   -7.35  270.14
 -19   2 -13  232.62  179.66
  19  -2  13   24.66  146.06
 -19   3 -13  213.41  259.78
  19  -3  13  -77.17  156.92
  19  -3  13    2.39  165.45
 -19   4 -13  -51.84  252.90
  19  -4  13   51.36  169.82
   0   0 -14  219.30   74.46
   0   1 -14  -16.49   28.90
   1   0 -14    7.00   10.70
  -1   0 -14    2.62    9.89
   0   1 -14    1.67    8.35
  -1   0  14   -6.46   21.33
   0  -1  14  -18.07   21.84
  -1   1 -14   90.78   60.83
   1   1 -14  126.46   47.45
   1   1 -14  168.05   60.46
  -1   1 -14  165.70   48.30
   1  -1  14  112.75   58.47
  -1  -1  14  172.12   58.84
   2   1 -14   37.92   16.55
  -1   2 -14   42.06   16.65
  -1   2 -14   72.92   35.89
   2   1 -14   27.85   35.19
  -2  -1  14   19.25   29.19
   0   2 -14   54.82   28.99
   0   2 -14   65.47   15.84
  -2   0 -14    7.36   15.76
   2   0 -14   31.81   16.79
  -2   0  14   36.87   27.21
   0  -2  14   42.54   26.66
   1   2 -14   16.61   15.78
   1   2 -14   45.84   30.32
  -2   1 -14   28.26   14.62
  -2   1 -14   49.12   39.21
  -1  -2  14   58.60   27.89
   2   2 -14    1.30   11.71
  -2   2 -14  -34.81   31.74
  -2   2 -14    2.61    9.94
   2   2 -14    1.07   28.43
  -2  -2  14   -8.51   22.65
   3   2 -14    7.68   28.15
  -2   3 -14    8.89   24.41
  -2   3 -14   -7.32   32.61
   3   2 -14    4.10   11.39
  -2   3 -14    7.91   10.02
   2  -3  14   16.94   24.14
  -3  -2  14    0.81   23.78
   2  -3  14    4.34   21.00
   3   1 -14    4.03   10.82
  -1   3 -14    5.34   23.15
  -1   3 -14  -12.40    9.72
   3   1 -14  -15.53   29.81
   1  -3  14   -3.11   20.75
  -3  -1  14   -2.73   24.75
   3   0 -14    0.76   12.64
   3   0 -14  -22.85   31.88
  -3   0 -14  -12.02    9.75
   0   3 -14   -8.00   23.25
   0   3 -14   -1.78   10.68
   0  -3  14  -26.56   21.72
  -3   0  14  -18.56   25.63
  -3   1 -14  -10.25    8.37
   1   3 -14    4.53   22.68
   1   3 -14    3.75   10.77
  -1  -3  14    2.62   19.65
   2   3 -14    9.86   11.82
   2   3 -14   19.53   22.68
  -3   2 -14   -7.84    8.85
  -3   2 -14  -23.66   29.48
  -2  -3  14   -2.04   20.85
   3  -2  14   73.44   37.06
   3  -2  14   27.55   23.62
  -3   3 -14  182.04   57.06
  -3   3 -14  170.61   45.29
   3   3 -14  158.74   43.78
  -3   3 -14   67.41   60.33
   3   3 -14   84.55   51.42
   3  -3  14  103.51   51.56
   3  -3  14  199.19   53.94
  -3  -3  14  146.39   51.50
   3  -3  14   24.76   56.92
  -3   4 -14  143.91   59.10
  -3   4 -14  149.46   56.91
  -3   4 -14  161.25   61.33
  -3   4 -14  178.17   52.82
   4   3 -14  117.84   59.06
   3  -4  14  115.25   55.63
   3  -4  14  102.60   52.95
   3  -4  14  100.70   69.97
  -4  -3  14  159.53   59.22
   3  -4  14  246.88   58.86
  -2   4 -14    6.33   10.76
   4   2 -14   12.48   27.82
  -2   4 -14    4.77   20.88
   2  -4  14    3.95   13.52
   2  -4  14   -0.38   40.51
   2  -4  14   12.36   17.96
  -4  -2  14    6.77   24.02
   2  -4  14    3.92   19.54
  -1   4 -14  207.93   62.15
  -1   4 -14  196.39   56.66
   4   1 -14  198.67   67.63
   1  -4  14  169.85   60.32
   1  -4  14  123.99   57.78
  -4  -1  14  178.77   66.10
  -4   0 -14   -9.58    8.40
   4   0 -14    7.34   32.50
   0   4 -14    8.75   11.16
   0   4 -14    8.94   20.99
   0  -4  14    3.94   18.18
   4   0  14  -28.38   38.62
  -4   0  14    3.06   26.08
   1   4 -14  195.44   60.95
   1   4 -14  189.50   56.19
   4  -1  14   60.11   72.38
  -1  -4  14  234.66   59.70
   2   4 -14    8.62   22.42
   2   4 -14   -1.49   12.54
  -4   2 -14   -4.64    8.81
  -2  -4  14   -4.30   18.76
   3   4 -14  128.88   55.23
  -4   3 -14  161.10   56.53
   3   4 -14  118.04   60.93
   4  -3  14  311.41   65.51
  -3  -4  14  122.79   60.11
   4   4 -14  128.98   67.31
  -4   4 -14  214.97   73.31
  -4   4 -14  175.54   63.42
   4  -4  14  214.65   63.33
   4  -4  14  217.28   70.39
  -4  -4  14  141.59   67.20
   5   4 -14   76.35   39.99
  -4   5 -14   68.85   32.63
   5   4 -14  102.26   32.39
  -4   5 -14  103.22   40.16
   4  -5  14   81.07   36.14
   4  -5  14  112.13   34.10
  -5  -4  14   72.24   38.40
  -3   5 -14  215.89   64.09
  -3   5 -14  182.99   56.83
   5   3 -14   81.41   62.20
   5   3 -14  127.11   54.31
   3  -5  14  206.01   60.84
   3  -5  14  161.23   57.71
  -5  -3  14  145.90   63.13
  -2   5 -14  149.31   48.48
  -2   5 -14  133.01   54.38
   5   2 -14   88.46   57.47
   5   2 -14  124.22   45.83
  -5  -2  14  108.18   56.97
   2  -5  14  174.48   51.92
   2  -5  14  146.31   49.46
   5   1 -14  436.52  118.21
   5   1 -14  286.51  139.33
  -1   5 -14  366.86  123.79
  -1   5 -14  351.52  132.31
   1  -5  14  391.55  129.31
   1  -5  14  302.80  124.90
  -5  -1  14  360.34  143.87
   5   0 -14   36.42   33.00
   0   5 -14    5.80   13.53
   5   0 -14    1.65   13.23
   0   5 -14    1.54   20.11
   0  -5  14    5.05   16.40
   5   0  14    1.70   43.31
   0  -5  14  -12.91   18.09
  -5   0  14    3.21   27.87
  -5   1 -14    3.58  122.10
   1   5 -14  442.39  100.78
   1   5 -14  329.45  108.35
  -1  -5  14  329.93  106.85
  -1  -5  14  309.48  103.57
   5  -1  14  211.05  131.45
   2   5 -14  105.97   48.30
   2   5 -14  117.39   44.34
  -5   2 -14   51.86   63.97
   5  -2  14   18.50   68.74
  -2  -5  14  134.83   47.26
   5  -2  14  188.06   53.84
  -2  -5  14  142.94   46.38
   3   5 -14  171.45   47.21
  -5   3 -14  154.31   58.97
   3   5 -14  126.36   52.77
   5  -3  14    1.56   64.95
   5  -3  14   71.46   53.47
  -3  -5  14  200.03   51.66
  -3  -5  14  131.07   50.92
  -5   4 -14   67.22   38.93
   4   5 -14   82.47   35.42
  -5   4 -14   47.25   43.74
   4   5 -14   75.18   30.78
  -5   4 -14   74.35   28.54
  -4  -5  14   67.01   33.70
   5  -4  14   18.05   50.32
   5  -4  14   81.73   29.14
  -4  -5  14   98.16   34.03
   5  -4  14   92.14   42.86
  -5   5 -14  221.21  104.79
   5   5 -14  272.98  100.21
  -5   5 -14  417.99  113.74
   5   5 -14  380.73   94.21
  -5   5 -14  260.11  105.41
  -5   5 -14  257.45   97.57
   5  -5  14  331.45  106.43
   5  -5  14  126.91  125.41
  -5  -5  14  222.71  100.46
   6   5 -14  -13.05   18.49
  -5   6 -14   29.61   22.76
  -5   6 -14   14.59   16.41
   6   5 -14    8.28   27.90
  -6  -5  14   -6.50   26.39
  -6  -5  14   -1.54   23.63
   6   4 -14  185.25   71.21
  -4   6 -14  189.48   83.08
  -4   6 -14  216.41   74.39
   6   4 -14  185.15   78.23
   4  -6  14  273.48   76.99
  -6  -4  14  204.90   79.51
   4  -6  14  226.74   79.56
  -3   6 -14  238.54   92.25
  -3   6 -14  249.47   83.98
   6   3 -14  208.62   89.99
   6   3 -14  260.05   79.77
   3  -6  14  215.75   85.78
  -6  -3  14  280.47   92.15
   3  -6  14  222.21   89.78
  -2   6 -14  163.98   63.60
   6   2 -14  212.47   55.17
  -2   6 -14  151.55   58.50
   6   2 -14  113.23   67.49
  -6  -2  14  191.76   68.66
   2  -6  14  146.99   60.22
   2  -6  14  141.21   62.50
   6   1 -14   75.46   22.73
  -1   6 -14   54.51   24.83
   6   1 -14   34.32   38.00
  -1   6 -14   51.10   27.53
   1  -6  14   50.47   25.84
   1  -6  14   39.33   26.97
  -6  -1  14   54.00   36.39
   6   0 -14  126.71   36.92
   6   0 -14   28.22   51.96
   0   6 -14  116.30   38.79
   0   6 -14  115.46   41.95
   0  -6  14   73.32   40.73
   0  -6  14  119.00   41.66
   6   0  14  160.55   64.41
  -6   0  14   40.80   51.17
  -6   1 -14   14.64   56.02
   1   6 -14   72.60   27.52
   1   6 -14   49.33   24.68
  -1  -6  14   54.23   26.19
  -1  -6  14   36.62   25.69
   6  -1  14   87.04   42.50
   6  -1  14  -12.60   56.83
   2   6 -14  154.29   55.46
  -6   2 -14  115.49   72.39
   2   6 -14  133.21   58.32
   6  -2  14   83.04   80.96
  -2  -6  14  176.72   57.93
  -2  -6  14  187.98   58.78
   6  -2  14  171.59   62.46
   3   6 -14  246.15   79.18
  -6   3 -14  225.06   84.15
   3   6 -14  204.88   75.47
  -3  -6  14  215.44   79.68
   6  -3  14   95.66   95.35
  -3  -6  14  306.42   78.94
   6  -3  14  178.87   80.46
   4   6 -14  177.45   72.59
  -6   4 -14  184.02   76.49
  -6   4 -14  194.20   83.01
   4   6 -14  179.57   67.83
   6  -4  14  250.69   79.42
  -4  -6  14  223.47   72.42
  -4  -6  14  159.16   72.14
   6  -4  14  139.14   88.07
   5   6 -14  -11.48   25.11
  -6   5 -14    8.61   37.58
  -6   5 -14   16.16   37.09
  -5  -6  14   -9.46   22.64
   6  -5  14   11.67   44.67
   6  -5  14 -132.29   70.12
   6   6 -14   80.11   32.49
   6   6 -14   58.52   36.17
  -6  -6  14   99.25   36.53
  -6  -6  14   85.53   37.92
   6  -6  14  -78.37   96.60
   6  -6  14   37.99   58.04
   7   6 -14    9.87   30.84
   7   6 -14   -4.30   25.31
  -7  -6  14  -32.88   29.06
  -7  -6  14  -18.11   32.51
   7   5 -14  183.81   66.41
   7   5 -14  158.46   73.18
  -7  -5  14  236.12   72.34
  -7  -5  14  173.03   73.08
   7   4 -14   48.49   20.84
   7   4 -14   21.10   31.44
  -4   7 -14   55.45   25.05
   4  -7  14   45.79   29.84
  -7  -4  14   24.75   30.30
  -7  -4  14    8.58   29.22
   7   3 -14  230.52   78.47
  -3   7 -14  223.52   82.85
  -3   7 -14  223.14   91.04
   7   3 -14  262.46   90.07
  -7  -3  14  209.89   92.39
   3  -7  14  251.61   87.00
  -2   7 -14   98.07   46.82
  -2   7 -14  148.01   43.01
   7   2 -14  121.99   38.98
   7   2 -14  106.50   53.87
   2  -7  14   88.22   45.13
  -7  -2  14   60.08   53.12
  -1   7 -14  310.97  103.68
  -1   7 -14  153.74   96.30
   7   1 -14  381.69   91.87
   7   1 -14  315.72  112.86
   7   1  14  274.31  121.51
  -7  -1  14  210.13  118.63
   1  -7  14  226.40   99.87
   0   7 -14    3.80   18.96
   7   0 -14    2.81   14.85
  -7   0 -14    2.24   61.62
   7   0 -14    6.49   35.51
   0   7 -14   12.63   20.78
   7   0  14   -5.88   57.27
   0  -7  14   12.05   21.53
  -7   0  14   -7.17   31.59
  -7   1 -14   78.26  119.00
   1   7 -14  350.99   99.76
   1   7 -14  343.17  103.98
  -1  -7  14  296.68  102.65
   7  -1  14  357.59  105.75
   7  -1  14  259.01  129.23
  -7   2 -14   78.70   65.21
   2   7 -14  107.12   46.64
   2   7 -14  187.69   48.47
  -2  -7  14  180.48   50.04
   7  -2  14  104.60   54.59
   7  -2  14   55.59   72.23
  -7   3 -14  263.34   90.79
  -7   3 -14  258.66  105.83
   3   7 -14  210.74   84.17
   3   7 -14  304.70   81.68
  -3  -7  14  300.68   84.55
   7  -3  14  125.62  102.57
   7  -3  14  190.14   87.40
   4   7 -14   15.38   23.38
  -7   4 -14   41.35   40.69
  -7   4 -14   11.33   46.78
   4   7 -14   31.79   25.14
   7  -4  14   46.94   49.79
  -4  -7  14   26.48   28.56
   7  -4  14   29.26   52.84
  -7   5 -14  192.95   85.53
  -7   5 -14  214.15   83.24
   5   7 -14  147.21   73.32
  -5  -7  14  222.43   74.40
   7  -5  14  217.13   89.58
  -7   6 -14    3.86   44.14
  -7   6 -14   29.07   54.33
   6   7 -14   10.84   25.25
   6   7 -14  -25.47   28.68
   7  -6  14  -14.18   60.35
   7  -6  14   47.43   92.82
  -6  -7  14   10.01   27.16
  -6  -7  14  -76.20   31.61
   7   7 -14  250.03   84.06
   7   7 -14  214.22   80.36
  -7  -7  14  272.69   85.48
  -7  -7  14  113.10   86.55
   8   7 -14   17.30   30.58
   8   7 -14   91.76   37.23
  -8  -7  14   -4.71   35.91
  -8  -7  14   76.58   36.67
   8   6 -14   60.87   39.06
   8   6 -14   45.56   34.29
  -8  -6  14   90.43   41.37
  -8  -6  14   52.53   37.60
   8   5 -14   19.18   22.58
   8   5 -14  -10.61   32.38
  -8  -5  14   -7.51   29.87
  -8  -5  14    1.78   29.95
  -4   8 -14  447.07  236.81
   8   4 -14  618.47  202.25
   8   4 -14  548.09  218.88
  -8  -4  14  726.83  227.80
   8   3 -14   79.55   39.82
   8   3 -14   63.50   26.29
  -3   8 -14   49.60   31.33
  -8  -3  14   74.70   39.51
   8   2 -14  254.33  127.59
   8   2 -14  342.19  107.11
  -2   8 -14  370.74  122.91
  -8  -2  14  290.93  134.28
   2  -8  14  317.24  119.81
  -1   8 -14   -5.87   21.43
   8   1 -14   -1.55   37.65
  -1   8 -14    6.11   21.60
   8   1 -14   18.13   16.79
   1  -8  14    4.99   25.97
   8   1  14  -39.07   71.31
  -8  -1  14   -8.33   35.20
   0   8 -14  237.08   75.00
   0   8 -14  291.29   79.05
   8   0 -14  230.09   71.88
  -8   0 -14    4.67  102.03
   8   0 -14   80.35   89.58
   0  -8  14  235.48   78.69
   8   0  14  277.06  107.14
  -8   0  14  141.96   95.34
   8   0  14  266.03   86.07
   1   8 -14    1.56   23.23
   1   8 -14   64.50   23.59
  -8   1 -14    1.99   66.05
  -1  -8  14    8.83   27.84
   8  -1  14   -7.50   67.89
   8  -1  14    0.89   41.70
   2   8 -14  408.89  114.81
  -8   2 -14  224.88  124.20
   2   8 -14  335.14  108.91
  -2  -8  14  369.74  115.22
   8  -2  14  178.25  140.33
   8  -2  14  348.10  114.93
  -8   3 -14   34.87   48.97
   3   8 -14   31.37   29.69
  -8   3 -14   56.88   56.26
   3   8 -14   64.27   28.65
  -3  -8  14   16.02   32.94
   8  -3  14   46.44   46.91
   8  -3  14   12.89   58.37
   4   8 -14  832.00  247.28
  -8   4 -14  254.20  272.60
   4   8 -14  621.06  239.77
  -8   4 -14  516.93  255.52
  -4  -8  14  995.33  248.61
   8  -4  14 1063.64  273.77
   8  -4  14  716.00  254.15
   5   8 -14   -3.11   27.44
  -8   5 -14   -3.66   50.65
  -8   5 -14  -11.20   49.16
   8  -5  14  -40.04   64.10
   8  -5  14  -57.07   78.51
  -8   6 -14   39.27   53.19
   6   8 -14   82.28   37.61
   6   8 -14   55.46   36.68
  -8   6 -14   48.16   67.80
  -6  -8  14   85.12   43.37
   8  -6  14  -18.78  102.96
   8  -6  14   87.15   69.81
   7   8 -14  100.55   40.85
   8  -7  14  -22.19  113.70
   9   8 -14   21.78   42.03
   9   8 -14  169.47   43.24
  -9  -8  14    1.90   49.18
   9   6 -14  221.30   68.60
   9   6 -14  149.06   74.75
  -9  -6  14  375.21   76.29
  -9  -6  14   89.05   73.23
   9   5 -14  175.24   74.99
   9   5 -14  181.51   68.37
  -9  -5  14  280.53   75.56
  -9  -5  14  145.16   75.82
   9   4 -14   -9.51   21.73
   9   4 -14   18.94   34.48
  -4   9 -14    3.40   24.44
  -9  -4  14   27.51   30.91
  -9  -4  14   20.27   34.66
  -3   9 -14  368.08  147.60
   9   3 -14  402.63  129.60
   9   3 -14  332.37  145.59
  -9  -3  14  452.09  153.64
   9   2 -14    5.97   35.79
   9   2 -14    0.98   17.13
  -2   9 -14  -10.71   24.43
  -9  -2  14   14.15   36.92
  -1   9 -14  207.26   77.88
   9   1 -14  304.57   69.02
   9   1 -14  100.36   87.67
  -9  -1 -14  -22.24  106.25
   9   1  14  342.83  109.99
  -9  -1  14  147.20   93.04
  -9   0 -14  -42.27   83.03
   9   0 -14   10.37   41.66
   9   0 -14   15.07   22.51
   0   9 -14   12.22   27.85
   9   0  14  204.14   56.52
   0  -9  14   15.76   34.42
  -9   0  14   30.94   41.00
  -9   1 -14  145.68   98.22
   1   9 -14  164.65   67.14
   9  -1 -14  216.84   64.52
   1   9 -14  259.11   70.24
  -1  -9  14  173.67   70.96
   9  -1  14   96.24  105.59
   9  -1  14  116.98   79.20
   2   9 -14    8.03   26.92
   2   9 -14  -18.55   27.19
  -9   2 -14  -57.08   62.48
   9  -2  14  -76.50   49.08
  -2  -9  14    1.58   32.73
  -9   3 -14  470.40  169.71
   3   9 -14  393.21  129.79
  -9   3 -14  346.04  144.62
   3   9 -14  382.76  135.56
  -3  -9  14  444.55  137.58
   9  -3  14  510.27  140.62
   9  -3  14  131.91  162.12
  -9   4 -14   10.73   58.57
  -9   4 -14   -8.00   55.27
   4   9 -14   14.00   28.00
   4   9 -14   33.05   30.31
   9  -4  14  160.88   68.03
   9  -4  14   37.26   63.45
  -4  -9  14   16.42   36.28
  -9   5 -14  154.57   87.00
  -9   5 -14  113.94   80.92
   5   9 -14  189.95   62.26
   9  -5  14  233.21   91.17
   9  -5  14  -38.67  107.22
  -9   6 -14  134.77   89.64
  -9   6 -14   40.78   69.80
   9  -6  14  -12.09  117.78
   9  -6  14  132.55   87.66
   7   9 -14   -2.18   33.90
  -9   7 -14  -23.38   52.40
   9  -7  14   67.77  120.17
  -7  -9  14    9.42   41.35
   9  -7  14   30.17   81.06
   8   9 -14   -7.86   36.80
   8   9 -14   25.24   35.72
  -8  -9  14  -18.10   44.69
   9   9 -14    5.56   38.30
   9   9 -14  -31.52   37.55
  -9  -9  14   25.87   48.15
  10   9 -14   52.45   42.17
  10   9 -14   17.98   42.57
 -10  -9  14  -47.89   55.54
 -10  -9  14   23.74   43.58
  10   8 -14  -34.67   37.69
  10   8 -14   24.98   40.34
 -10  -8  14   19.46   38.66
 -10  -8  14    2.10   50.45
  10   7 -14    8.11   35.01
 -10  -7  14   12.77   44.74
  10   5 -14   28.61   47.58
  10   5 -14   92.58   39.23
 -10  -5  14   50.07   44.87
 -10  -5  14  179.17   45.58
  10   4 -14  152.00   67.00
  10   4 -14  181.99   76.90
 -10  -4  14  271.94   75.68
 -10  -4  14  173.75   80.09
  10   3 -14   24.48   44.81
  10   3 -14   70.52   29.47
 -10  -3  14   94.57   46.22
  10   2 -14   84.71   51.25
  10   2 -14   98.08   33.95
  10   2  14  -33.04   89.16
 -10  -2  14  118.91   52.51
 -10  -1 -14  -17.65   84.02
  10   1 -14  -27.42   42.30
  10   1 -14   26.29   19.96
 -10  -1  14  -33.88   41.35
  10   1  14  110.58   85.92
  10   0 -14  -10.40   21.84
 -10   0 -14  -18.86   89.30
  10   0  14   34.38   54.16
 -10   0  14  -25.70   38.74
  10   0  14   34.25   85.00
 -10   1 -14   68.66   81.10
   1  10 -14   24.40   29.48
  10  -1 -14   -1.26   22.87
  10  -1  14   90.70   51.63
  10  -1  14    1.68   77.94
   2  10 -14   43.99   37.31
 -10   2 -14  125.71   74.67
  10  -2  14   55.28   66.84
  10  -2  14   45.64   55.41
 -10   3 -14   54.47   71.54
 -10   3 -14   70.74   64.29
   3  10 -14   28.47   34.46
  10  -3  14  -42.41   61.30
  -3 -10  14  173.60   43.33
  10  -3  14  -29.06   72.34
 -10   4 -14  259.24   95.33
 -10   4 -14  229.98   88.73
  10  -4  14  156.77   92.90
  10  -4  14   39.37   97.48
 -10   5 -14   35.78   62.87
 -10   5 -14   25.29   74.66
  10  -5  14   69.35   78.71
  10  -5  14  -83.25   96.86
   6  10 -14   21.07   43.95
 -10   6 -14   47.28   65.15
 -10   6 -14  -18.90   90.36
   6  10 -14  185.55   43.81
  10  -6  14  138.15  124.15
  -6 -10  14   34.83   52.64
  10  -6  14   54.33   89.00
   7  10 -14   24.51   37.51
 -10   7 -14   73.76   97.31
 -10   7 -14  -19.37   62.75
   7  10 -14   33.82   35.42
  -7 -10  14  -11.54   50.07
   8  10 -14   10.06   39.31
   8  10 -14  -15.46   37.03
  -8 -10  14    2.46   50.78
   9  10 -14   42.53   43.29
   9  10 -14   67.91   43.75
  -9 -10  14    5.25   57.77
  10  10 -14   15.99   43.71
  10  10 -14  -20.11   43.10
 -10 -10  14  -16.89   58.31
  11  10 -14    1.72   50.92
 -11 -10  14  -84.90   64.03
 -11 -10  14  -72.82   51.93
  11   9 -14    2.79   42.74
  11   9 -14  -32.72   45.19
 -11  -9  14    2.58   57.48
 -11  -9  14   23.91   45.07
  11   8 -14   40.25   40.90
  11   8 -14  -82.17   47.49
 -11  -8  14    2.26   51.52
 -11  -8  14    9.82   41.30
  11   7 -14   -9.41   46.66
  11   7 -14   -8.64   36.58
 -11  -7  14  -30.42   49.79
 -11  -7  14   32.18   40.83
  11   6 -14   26.73   35.91
 -11  -6  14 -110.64   49.20
  11   4 -14  127.29   39.33
  11   4 -14   42.42   51.15
 -11  -4  14  -83.35   52.83
 -11  -4  14  269.06   48.20
  11   3 -14   40.99   26.21
  11   3 -14   50.49   43.72
 -11  -3  14   -2.53   41.59
  11   2 -14   80.07   42.23
  11   2 -14  -14.82   22.23
 -11  -2  14   46.20   43.80
  11   1 -14  -65.09   45.90
 -11  -1 -14   -3.17   96.03
  11   1  14    2.81   61.81
 -11  -1  14   25.85   43.83
 -11   0 -14   44.10   99.11
  11   0 -14  -13.68   22.90
  11   0  14  -27.86   56.64
  11   0  14 -124.62   90.67
 -11   0  14  -33.34   42.85
 -11   1 -14   12.82   88.90
  11  -1 -14   18.76   26.88
  11  -1  14   68.23   80.69
  11  -1  14  -26.75   56.25
 -11   2 -14  -84.84   81.40
  11  -2  14  -68.41   56.62
  11  -2  14   -7.32   78.20
 -11   3 -14   43.65   70.38
 -11   3 -14   -5.61   81.21
  11  -3  14  -90.54   65.71
  11  -3  14  -15.15   80.80
 -11   4 -14  -30.50   81.06
 -11   4 -14   50.47   79.94
  11  -4  14  209.43   96.59
  11  -4  14   56.11   85.23
 -11   5 -14   59.27   75.79
 -11   5 -14   75.96   86.90
 -11   6 -14    4.34   96.01
 -11   6 -14  -19.31   66.38
 -11   7 -14    4.90  107.40
  11  -7  14  -36.54  102.11
  12  11 -14   17.85   53.97
 -12 -11  14   35.46   65.62
  12  10 -14   32.01   56.26
 -12 -10  14   25.97   56.90
 -12 -10  14  157.08   73.45
  12   9 -14  -88.31   51.19
  12   9 -14  -65.36   48.88
 -12  -9  14  106.25   65.02
 -12  -9  14   28.38   49.64
  12   8 -14    1.76   56.10
  12   8 -14  104.43   49.41
 -12  -8  14   70.48   52.41
 -12  -8  14  130.09   63.47
  12   7 -14  -16.80   42.21
  12   7 -14   68.32   51.82
 -12  -7  14    2.20   54.66
 -12  -7  14   19.43   48.63
  12   6 -14   50.84   40.46
  12   6 -14   38.47   46.82
 -12  -6  14   64.98   51.37
 -12  -6  14  -21.62   44.65
  12   5 -14   45.55   36.35
 -12  -5  14   43.04   50.00
  12   3 -14  111.95   66.82
 -12  -3  14  140.71   67.97
  12   2 -14  -37.03   23.93
  12   2 -14  -38.85   47.43
  12   2  14  -31.66  106.74
 -12  -2  14   -1.45   46.05
  12   1 -14   13.11   45.83
  12   1 -14    9.97   26.81
 -12  -1  14   67.40   46.71
  12   1  14   68.29  103.91
  12   0 -14   14.87   25.57
  12  -1 -14   10.12   26.21
 -12   6 -14   39.92   78.08
  12  -6  14  188.14  144.38
 -12   7 -14  488.75  143.62
  12  -7  14   22.82  162.98
 -12   8 -14  118.74   84.68
 -12   8 -14   42.63  145.14
  12  -8  14  239.97  127.12
  13  11 -14  188.65   74.65
 -13 -11  14   58.36   76.79
  13  10 -14  -72.57   59.46
 -13 -10  14  -42.24   56.68
 -13 -10  14   14.68   75.28
  13   9 -14  -25.88   54.36
  13   9 -14  147.80   61.49
 -13  -9  14   -9.49   73.98
 -13  -9  14   97.97   57.91
  13   8 -14    8.76   46.18
  13   8 -14   22.94   57.05
 -13  -8  14   32.08   51.18
 -13  -8  14 -112.32   64.23
  13   7 -14   -1.80   50.88
  13   7 -14  -79.42   45.90
 -13  -7  14  -69.20   51.31
 -13  -7  14    2.44   56.91
  13   6 -14  104.64   54.93
  13   6 -14  129.03   47.41
 -13  -6  14    2.18   59.39
 -13  -6  14   41.64   52.95
  13   5 -14   21.70   47.30
  13   5 -14   66.57   35.05
 -13  -5  14  -52.51   48.26
 -13  -5  14   48.86   48.26
  13   4 -14   61.23   34.40
 -13  -4  14    7.19   45.98
 -13  -2 -14   64.39  114.63
  13   2  14  -29.22  111.44
  13   1 -14   -1.91   47.64
 -13  -1 -14  106.95  120.51
  13   1  14   77.74  105.35
 -13  -1  14  -22.65   49.11
  13   1  14   -9.98   70.74
 -13   0 -14  -65.93  131.08
  13   0 -14   71.56   29.13
  13   0  14  -21.74   72.03
  13   0  14    7.50   93.57
 -13   1 -14   68.97  115.51
  13  -1  14  -95.15   84.87
  13  -1  14   23.38   70.79
 -13   2 -14    3.54  103.26
 -13   2 -14  -74.53  115.33
  13  -2  14  104.76   75.70
  13  -2  14   91.58   99.11
 -13   3 -14  -17.72   98.88
 -13   3 -14  157.36  106.76
  13  -3  14    9.26   81.86
  13  -3  14    5.46  102.11
 -13   4 -14  -24.75  102.07
 -13   4 -14  -34.74   90.65
  13  -4  14  -33.93   95.69
  13  -4  14  -11.49  112.86
 -13   5 -14  -41.05   87.92
 -13   5 -14   12.97  105.05
  13  -5  14   69.32  129.50
  13  -5  14 -111.62  122.88
 -13   6 -14   25.37  120.64
 -13   6 -14   13.76   84.71
  13  -6  14   37.01  122.55
  13  -6  14  -50.92  156.22
 -13   7 -14   36.24   80.72
 -13   7 -14 -120.79  135.73
  13  -7  14 -123.82  130.33
  13  -7  14 -159.96  155.76
 -13   8 -14    3.38  150.20
 -13   8 -14  -50.41   76.56
  13  -8  14 -214.35  132.01
  14  11 -14  102.51   67.75
 -14 -11  14   -1.87   68.05
  14  10 -14  -65.72   64.12
 -14 -10  14   79.74   62.19
  14   9 -14  -55.10   54.78
  14   9 -14    2.15   64.02
 -14  -9  14 -202.44   78.76
 -14  -9  14 -126.99   64.17
  14   8 -14  -99.65   50.75
  14   8 -14    2.06   57.00
 -14  -8  14  -33.20   56.75
 -14  -8  14  -20.82   66.73
  14   7 -14   81.84   62.83
  14   7 -14   17.00   54.66
 -14  -7  14  259.30   69.92
 -14  -7  14   46.09   61.72
  14   6 -14  -65.43   47.88
 -14  -4  14    9.18   52.46
 -14  -4  14   84.98   51.85
 -14  -2 -14   92.84  128.18
  14   2  14 -109.91  119.32
 -14  -1 -14   21.27  133.07
  14   1  14 -100.75   79.63
  14   1  14   24.30  109.39
 -14   0 -14   12.39  137.87
  14   0  14  -55.43   94.58
  14   0  14  137.02   80.25
 -14   1 -14   37.46  131.50
  14  -1  14  -12.99   95.10
  14  -1  14  -42.71   77.18
 -14   2 -14  118.73  124.45
 -14   2 -14   78.68  108.35
  14  -2  14  -42.21   80.99
  14  -2  14  -59.73  101.47
 -14   3 -14  118.56  108.01
 -14   3 -14   47.60  119.83
  14  -3  14  -74.97  104.16
  14  -3  14   -6.99   92.42
 -14   4 -14  -27.17  101.77
 -14   4 -14   11.38  111.30
  14  -4  14  -48.24  123.78
  14  -4  14   76.53  105.00
 -14   5 -14  -37.86  101.79
 -14   5 -14  -79.86  127.52
  14  -5  14 -284.35  140.43
 -14   6 -14   -7.71   96.90
 -14   6 -14  229.37  137.72
  14  -6  14 -199.69  144.15
  14  -6  14 -173.20  170.75
 -14   7 -14   40.17   92.46
 -14   7 -14   13.91  152.99
  14  -7  14  296.57  141.06
  14  -7  14 -180.01  178.57
 -14   8 -14  -45.07  165.93
 -14   8 -14  -33.84   85.07
  14  -8  14   50.85  138.75
 -15  -2 -14   73.56  240.37
  15   2  14  296.12  249.33
 -15  -1 -14  362.99  186.53
  15   1  14  -21.86  116.54
  15   1  14  238.51  154.47
 -15   0 -14   14.07  167.20
  15   0  14 -146.30  109.13
  15   0  14 -188.35   99.03
 -15   1 -14  107.38  190.86
 -15   1 -14    4.34  182.46
  15  -1  14  266.76  131.53
 -15   2 -14  188.66  289.61
 -15   3 -14  -75.63  133.23
 -15   3 -14  219.77  121.61
 -15   4 -14  -60.83  116.00
 -15   4 -14 -117.60  144.11
  15  -4  14  225.87  116.92
  15  -4  14  183.16  145.05
 -15   5 -14  148.99  106.56
 -15   5 -14  145.10  138.93
  15  -5  14  -28.43  150.59
  15  -5  14 -152.86  139.06
 -15   6 -14  -82.38  106.65
 -15   6 -14  -32.76  154.12
  15  -6  14  103.64  177.57
  15  -6  14  278.35  154.67
 -15   7 -14  -70.74   98.55
 -15   7 -14 -136.86  165.82
  15  -7  14  111.13  177.64
  15  -7  14  151.88  152.09
 -15   8 -14  174.95  194.60
 -15   8 -14   79.05  106.13
  15  -8  14  178.37  159.95
 -16  -2 -14  126.18  169.62
  16   2  14   46.01  144.25
 -16  -1 -14 -210.55  175.00
  16   1  14  -36.05  116.09
  16   1  14  -13.30   95.52
 -16   0 -14  -85.56  181.64
  16   0  14   91.78  118.44
  16   0  14   98.04  100.70
 -16   1 -14 -128.57  176.67
 -16   1 -14   52.89  140.21
  16  -1  14 -173.40   97.02
  16  -1  14   67.34  120.83
 -16   2 -14  215.44  184.73
 -16   2 -14  257.71  166.88
  16  -2  14  224.35  130.65
  16  -2  14  250.48  151.36
 -16   3 -14  321.42  177.04
 -16   3 -14   12.83  189.70
  16  -3  14  441.21  171.65
  16  -3  14  225.97  148.57
 -16   4 -14   24.15  123.69
 -16   4 -14  -59.47  161.07
  16  -4  14  159.03  127.30
  16  -4  14  -25.50  156.35
 -16   5 -14  -56.65  161.86
 -16   5 -14  105.14  120.39
  16  -5  14  104.12  166.40
  16  -5  14   66.35  148.70
 -16   6 -14  -78.93  175.29
 -16   6 -14  -76.91  119.20
  16  -6  14 -282.58  184.22
 -16   7 -14 -181.22  201.34
 -16   7 -14 -153.00  120.81
 -16   8 -14  185.31  121.54
 -16   8 -14  -13.81  204.39
  16  -8  14  305.07  185.17
 -16   9 -14   23.98  212.95
  16  -9  14  180.33  179.55
 -17  -1 -14  -85.91  196.03
  17   1  14   95.62  119.77
  17   1  14   94.46  107.57
 -17   0 -14   48.98  205.32
 -17   0 -14 -258.48  158.41
  17   0  14   53.97  108.54
  17   0  14   50.67  129.07
 -17   1 -14   95.75  154.92
 -17   1 -14 -125.55  205.37
  17  -1  14   94.39  109.15
  17  -1  14  -71.07  136.22
 -17   2 -14    5.44  211.97
 -17   2 -14 -263.59  164.22
  17  -2  14 -286.79  129.93
 -17   3 -14  118.46  202.73
 -17   3 -14  -42.81  144.71
 -17   4 -14 -295.04  214.35
 -17   4 -14   26.46  155.70
  17  -4  14 -348.84  221.41
 -17   5 -14  105.71  132.66
 -17   5 -14   96.53  182.69
  17  -5  14 -118.32  158.48
 -17   6 -14  134.21  200.97
 -17   6 -14   27.00  126.92
  17  -6  14  -78.59  182.77
  17  -6  14 -148.17  213.39
 -17   7 -14  157.46  214.74
 -17   7 -14 -132.49  122.11
  17  -7  14  -72.19  224.51
  17  -7  14  168.64  198.89
 -17   8 -14  -74.39  123.06
 -17   8 -14 -210.10  221.53
  17  -8  14 -227.79  204.81
 -17   9 -14  121.47  224.23
  17  -9  14 -244.96  195.54
 -18  -2 -14 -554.51  222.65
  18   2  14  -34.02  133.19
 -18  -1 -14 -301.62  233.27
  18   1  14   94.44  125.94
  18   1  14  186.32  144.02
 -18   0 -14   63.35  242.78
 -18   0 -14  286.64  185.36
  18   0  14  171.70  134.51
  18   0  14   63.56  154.65
 -18   1 -14 -173.45  241.75
 -18   1 -14  130.00  172.87
  18  -1  14   72.11  126.98
  18  -1  14   64.93  148.85
 -18   2 -14  170.21  231.32
 -18   2 -14  -35.71  166.95
  18  -2  14 -105.42  145.00
  18  -2  14  -40.31  130.15
 -18   3 -14   59.44  168.44
 -18   3 -14 -164.73  236.14
  18  -3  14 -201.52  144.62
  18  -3  14 -222.09  178.32
 -18   4 -14   49.94  210.38
 -18   4 -14   88.63  149.41
  18  -4  14    5.97  150.16
  18  -4  14 -136.51  192.62
 -18   5 -14  -60.90  218.05
 -18   5 -14  278.87  148.31
  18  -5  14 -214.22  163.18
  18  -5  14 -199.81  216.38
 -18   6 -14 -301.67  231.48
 -18   6 -14  412.66  152.97
  18  -6  14  153.40  238.05
  18  -6  14  181.10  206.00
 -18   7 -14 -105.61  229.52
 -18   7 -14  -12.37  138.03
  18  -7  14 -173.79  235.76
  18  -7  14  285.91  231.84
 -18   8 -14  149.09  266.52
  18  -8  14 -247.18  221.37
  19   1  14 -223.21  144.56
 -19   0 -14  373.64  277.24
  19   0  14 -263.57  144.97
 -19   1 -14  -88.53  283.55
  19  -1  14  -75.23  146.18
 -19   2 -14   87.75  266.14
  19  -2  14  -94.45  142.00
 -19   3 -14   42.41  262.37
  19  -3  14  128.63  158.35
   0   0 -15    4.37   10.96
   1   0 -15  261.07   86.36
  -1   0 -15  188.25   88.13
   1   1 -15   -3.18    9.97
   1   1 -15   -2.83   31.25
  -1   1 -15    4.19   29.59
  -1   1 -15    1.14    9.24
  -1  -1  15   -2.76   24.43
   1  -1  15    2.70   23.98
  -1   2 -15   12.17   29.68
  -1   2 -15    0.59    9.58
   2   1 -15   -3.42   10.60
   2   1 -15    2.83   32.72
  -2  -1  15  -10.45   25.97
   1  -2  15    3.24   23.63
   1  -2  15   -5.26   27.05
   0   2 -15  -13.25   29.22
   2   0 -15  -11.64   12.34
   0   2 -15   -1.24   10.79
  -2   0  15    8.21   24.91
   0  -2  15    0.82   24.12
   1   2 -15    0.65   10.51
   1   2 -15  -15.77   28.51
  -2   1 -15    1.62    9.18
   2  -1  15    6.45   30.40
  -1  -2  15    7.54   24.89
   2  -1  15    8.20   24.35
   2   2 -15    9.05   11.21
  -2   2 -15   -6.20   32.11
  -2   2 -15    1.14    9.69
   2   2 -15  -20.46   28.49
   2  -2  15  -27.56   33.94
  -2  -2  15   -5.13   24.20
   2  -2  15   -7.29   24.61
  -2   3 -15   -2.31    9.92
   3   2 -15  -11.06   28.44
   3   2 -15    4.39   12.66
  -2   3 -15   11.38   26.52
   2  -3  15   11.97   23.52
  -3  -2  15    8.88   25.34
   3   1 -15  165.36   52.44
  -1   3 -15  212.95   62.54
   3   1 -15  165.78   67.16
  -1   3 -15  149.97   53.56
   1  -3  15  152.31   60.15
  -3  -1  15  136.55   64.11
   0   3 -15    0.64   10.54
   0   3 -15    6.03   24.54
   3   0 -15  -18.82   12.48
  -3   0  15    3.18   27.30
   0  -3  15   10.64   22.53
  -3   1 -15   91.60   47.53
   1   3 -15  139.27   55.79
   1   3 -15  132.33   46.65
  -1  -3  15  185.97   54.10
   2   3 -15    7.26   25.61
   2   3 -15   19.11   13.12
  -3   2 -15   -5.18   33.08
  -3   2 -15   13.95   10.20
   3  -2  15   30.04   25.15
  -2  -3  15   10.58   22.77
   3   3 -15   -9.59   27.46
  -3   3 -15   -3.24    9.41
  -3   3 -15   28.79   28.50
  -3   3 -15    1.22   39.55
   3   3 -15   -1.48   12.64
   3  -3  15   -1.42   23.70
   3  -3  15  -27.70   30.23
  -3  -3  15    3.15   23.96
  -3   4 -15   53.72   34.27
   4   3 -15   63.98   34.91
  -3   4 -15   66.53   23.80
   3  -4  15   48.99   24.91
  -4  -3  15   49.58   32.97
   3  -4  15   81.38   30.32
  -2   4 -15  230.92   65.92
  -2   4 -15  212.75   74.31
   4   2 -15  159.46   76.01
   2  -4  15  236.02   72.32
   2  -4  15  132.68   66.36
  -4  -2  15  125.14   76.49
   4   1 -15   36.41   35.58
  -1   4 -15   24.10   15.62
  -1   4 -15   32.37   27.01
  -4  -1  15   43.01   30.22
   1  -4  15   42.40   23.40
  -4   0 -15   13.35   10.01
   4   0 -15  -11.15   32.95
   0   4 -15   -2.18   12.24
   0   4 -15  -21.92   22.52
  -4   0  15    1.10   26.88
   4   0  15    0.53   38.19
   0  -4  15    0.64   20.52
   1   4 -15   46.40   15.28
  -4   1 -15   10.98   12.53
   1   4 -15   42.91   25.15
  -1  -4  15   15.27   22.10
   4  -1  15   33.47   41.75
   2   4 -15  167.66   76.86
  -4   2 -15  103.01   86.80
   2   4 -15  267.54   70.83
  -4   2 -15  225.70   72.89
  -2  -4  15  187.39   76.09
   4  -2  15  294.78   84.38
   3   4 -15   65.50   23.98
  -4   3 -15   51.67   22.26
  -4   3 -15   73.40   38.07
   3   4 -15   55.42   33.59
  -3  -4  15   46.36   30.24
   4  -3  15   69.23   33.50
   4   4 -15    1.03   27.24
  -4   4 -15   16.70   27.29
  -4   4 -15   10.04   12.06
   4   4 -15    8.50   14.37
   4  -4  15    6.26   14.47
   4  -4  15    0.62   21.89
  -4  -4  15    9.90   23.51
   5   4 -15   55.70   42.02
  -4   5 -15   93.57   42.69
  -4   5 -15   69.28   33.87
   4  -5  15   92.63   38.51
   4  -5  15  119.93   34.57
  -5  -4  15   71.78   40.33
  -3   5 -15   20.46   26.26
   5   3 -15    6.58   16.50
  -3   5 -15   27.96   15.86
   5   3 -15   26.41   30.74
   3  -5  15   17.33   22.46
  -5  -3  15   12.21   28.14
   3  -5  15   22.65   18.94
   5   2 -15   19.63   36.64
   5   2 -15   58.39   24.44
  -2   5 -15   75.90   25.12
  -2   5 -15   65.09   32.62
   2  -5  15   61.91   26.51
  -5  -2  15   65.34   36.38
   2  -5  15   70.25   29.41
  -1   5 -15   72.13   45.43
   5   1 -15  165.55   38.54
   5   1 -15  133.65   53.84
  -1   5 -15  103.23   39.41
   1  -5  15  111.00   40.66
   1  -5  15  104.80   42.58
  -5  -1  15   93.33   50.96
   0   5 -15   41.18   23.03
  -5   0 -15    5.24   10.90
   5   0 -15   11.46   36.58
   5   0 -15    9.74   14.42
   0   5 -15   43.57   16.76
   0  -5  15   17.61   18.33
  -5   0  15   25.29   29.85
   0  -5  15   27.94   20.78
   5   0  15   10.47   45.08
  -5   1 -15   63.91   32.75
   1   5 -15  110.37   34.00
   1   5 -15   74.65   39.78
   5  -1  15  107.32   61.26
  -1  -5  15   78.56   36.05
  -1  -5  15   97.36   37.64
   2   5 -15   52.78   30.50
  -5   2 -15   59.26   19.97
   2   5 -15   57.43   22.42
  -5   2 -15   36.81   51.37
  -2  -5  15   38.96   25.79
  -2  -5  15   31.01   27.14
   5  -2  15   45.52   39.48
   5  -2  15   10.58   52.40
   3   5 -15    3.95   18.56
  -5   3 -15   20.30   44.14
  -5   3 -15   26.60   12.75
   3   5 -15   29.72   26.56
   5  -3  15    9.10   32.16
  -3  -5  15   46.36   23.43
   5  -3  15  -14.92   37.24
  -3  -5  15   25.88   22.42
  -5   4 -15   77.20   35.97
  -5   4 -15  109.05   48.00
  -5   4 -15   49.66   49.65
   4   5 -15  111.72   43.90
  -5   4 -15   73.39   46.78
   4   5 -15   79.70   37.59
   5  -4  15  240.32   55.86
   5  -4  15   96.63   44.89
  -4  -5  15   64.84   40.78
  -4  -5  15  108.55   40.48
   5   5 -15   -8.34   26.91
  -5  -5  15   -6.25   25.02
   6   5 -15  103.54   43.25
   6   5 -15   92.65   50.50
  -6  -5  15  131.82   48.11
  -6  -5  15  112.83   48.89
   6   4 -15  253.51   74.57
   6   4 -15  157.95   82.28
  -4   6 -15  248.03   78.62
  -4   6 -15  199.52   89.35
   4  -6  15  246.61   84.08
   4  -6  15  197.38   80.42
  -6  -4  15  193.67   84.15
  -3   6 -15   89.92   41.68
   6   3 -15   89.19   45.29
  -3   6 -15   66.92   36.03
   6   3 -15  111.83   32.55
  -6  -3  15   52.72   44.37
   3  -6  15   78.08   38.89
   3  -6  15   99.57   37.27
   6   2 -15  328.61  108.36
   6   2 -15  313.02   91.17
  -2   6 -15  290.61   96.90
  -2   6 -15  225.38  105.60
   2  -6  15  232.68   98.18
   2  -6  15  332.70  102.53
  -6  -2  15  185.48  110.77
   6   1 -15   41.91   44.82
  -1   6 -15   78.95   33.91
  -1   6 -15   71.00   29.53
   6   1 -15   60.67   26.83
   1  -6  15   78.59   32.38
  -6  -1  15   71.25   42.36
   1  -6  15   56.29   31.61
   0   6 -15    3.37   22.33
   6   0 -15   11.17   14.47
   6   0 -15    8.44   37.63
   0   6 -15   12.85   17.68
   0  -6  15   -1.74   20.34
   0  -6  15    4.88   20.71
  -6   0  15   -2.42   31.21
   6   0  15   54.28   55.80
  -6   1 -15   -1.98   62.13
   1   6 -15   70.86   35.48
   1   6 -15   57.27   31.74
  -1  -6  15   84.87   33.75
  -1  -6  15  106.68   33.54
   6  -1  15   94.30   67.30
  -6   2 -15   96.05  105.12
   2   6 -15  180.32   87.20
   2   6 -15  405.28   92.65
   6  -2  15  165.89  114.21
  -2  -6  15  383.20   90.24
   6  -2  15  226.02   92.58
  -2  -6  15  230.40   91.81
   3   6 -15  116.08   41.23
   3   6 -15   97.23   44.60
  -6   3 -15   75.18   55.12
   6  -3  15   54.52   58.99
   6  -3  15  146.73   48.80
  -3  -6  15  158.39   43.53
  -3  -6  15   93.44   43.00
  -6   4 -15  216.64   94.18
   4   6 -15  246.11   82.95
  -6   4 -15  235.83   85.34
   4   6 -15  266.26   78.58
  -4  -6  15  251.18   82.54
  -4  -6  15  274.31   82.40
   6  -4  15  225.78   84.65
   6  -4  15   73.53   98.49
   5   6 -15   79.94   48.58
   6  -5  15  147.10   65.44
  -5  -6  15  129.47   48.50
   6   6 -15  -26.42   29.62
   6   6 -15  -70.54   38.26
  -6  -6  15 -105.96   37.59
  -6  -6  15  -14.89   36.90
   7   6 -15  146.35   47.42
   7   6 -15   88.07   40.46
  -7  -6  15   79.94   45.67
  -7  -6  15   49.13   46.18
   7   5 -15  -18.26   25.00
   7   5 -15  -63.29   39.99
  -7  -5  15  -63.93   36.14
   7   4 -15   56.25   49.27
  -4   7 -15  165.10   46.94
  -4   7 -15   80.95   41.53
   7   4 -15   87.31   39.97
   4  -7  15   76.64   44.65
  -7  -4  15   88.07   49.86
   4  -7  15  190.10   44.84
  -3   7 -15   85.40   39.52
  -3   7 -15   71.70   35.69
   7   3 -15  118.04   32.82
   7   3 -15   59.04   44.84
  -7  -3  15   82.90   45.00
   3  -7  15   68.56   38.33
  -2   7 -15  300.27  112.81
   7   2 -15  214.18  116.88
   7   2 -15  402.35   97.81
  -2   7 -15  236.02  104.18
  -7  -2  15  236.56  121.02
   2  -7  15  300.45  107.08
   7   1 -15   42.57   19.47
  -1   7 -15    2.59   22.18
  -1   7 -15   25.19   24.77
   7   1 -15   53.97   41.73
  -7  -1  15   28.71   36.08
   7   1  15   75.81   59.12
   1  -7  15   22.12   24.31
   7   0 -15  106.42   45.97
   7   0 -15  111.49   63.46
   0   7 -15  173.11   51.85
   0   7 -15  129.02   48.63
   0  -7  15  137.09   50.66
   7   0  15  131.21   78.24
  -7   0  15  110.94   63.04
   1   7 -15   23.97   22.68
   1   7 -15   32.29   23.05
  -7   1 -15   18.46   61.18
   7  -1  15   17.73   43.61
   7  -1  15  -18.39   61.55
  -1  -7  15   39.51   26.95
  -7   2 -15  248.75  120.04
   2   7 -15  327.62  103.75
   2   7 -15  331.85  108.27
   7  -2  15  177.05  130.53
  -2  -7  15  395.41  107.20
   7  -2  15  303.88  108.53
  -2  -7  15  302.08  110.05
   3   7 -15  129.06   37.77
  -7   3 -15   89.24   55.50
   3   7 -15   76.06   38.22
  -3  -7  15   31.47   40.15
   7  -3  15   20.40   58.80
   7  -3  15  110.59   47.59
  -3  -7  15  104.39   38.59
   4   7 -15  -30.02   43.46
  -7   4 -15  108.11   48.35
   4   7 -15   14.87   41.54
  -7   4 -15  115.96   56.18
  -4  -7  15   84.16   41.11
  -4  -7  15  125.83   40.04
   7  -4  15  100.00   54.04
  -7   5 -15  -24.60   45.59
  -5  -7  15  -67.41   32.52
   7  -5  15 -187.95   75.68
   7  -5  15  -39.97   58.94
   6   7 -15   98.02   47.64
   6   7 -15  115.90   49.76
  -6  -7  15  135.68   49.67
  -6  -7  15  108.20   52.23
   7   7 -15    1.73   24.59
   7   7 -15  -22.58   33.21
  -7  -7  15   17.42   30.85
  -7  -7  15    9.00   31.85
   8   6 -15  -51.06   36.39
   8   6 -15   37.31   26.67
  -8  -6  15   -0.96   32.18
  -8  -6  15  124.17   33.03
   8   5 -15  217.66   81.34
   8   5 -15  173.60   72.90
  -8  -5  15  207.78   81.79
  -8  -5  15  204.28   80.15
  -4   8 -15   66.66   30.99
   8   4 -15   55.05   38.57
   8   4 -15   39.78   26.50
  -8  -4  15   28.13   37.30
  -8  -4  15   66.46   35.93
  -3   8 -15  295.42  111.95
   8   3 -15  356.16   96.20
   8   3 -15  277.80  111.02
  -8  -3  15  352.70  115.03
   3  -8  15  111.77  108.03
  -2   8 -15   34.51   30.12
   8   2 -15   75.36   24.62
   8   2 -15   44.30   42.81
  -2   8 -15   40.58   28.81
   2  -8  15   14.47   34.85
  -8  -2  15   91.94   42.30
   8   1 -15  204.11   87.83
  -1   8 -15  264.82   70.91
   8   1 -15  218.24   65.98
  -1   8 -15  180.74   76.11
   1  -8  15  125.86   74.32
  -8  -1  15  110.48   89.02
   8   1  15  218.01  102.96
   8   0 -15   19.78   39.53
   0   8 -15  -12.42   22.59
  -8   0 -15   -9.86   69.88
   8   0 -15    2.16   18.87
   0   8 -15   14.46   23.90
  -8   0  15  -16.19   34.28
   0  -8  15  -20.87   27.26
   8   0  15  -95.71   70.75
   1   8 -15  266.33   73.17
  -8   1 -15   76.10   97.42
   1   8 -15  218.36   70.02
  -1  -8  15  295.97   73.96
   8  -1  15  161.03   79.64
   8  -1  15   71.25  102.28
  -8   2 -15   90.93   68.39
   2   8 -15  133.59   34.73
   2   8 -15   87.98   34.10
   8  -2  15    9.54   65.36
   8  -2  15   25.82   48.25
  -2  -8  15   25.92   37.91
  -8   3 -15  328.58  129.90
   3   8 -15  297.18   97.75
  -8   3 -15  312.00  109.80
   3   8 -15  363.50  101.20
   8  -3  15   45.81  122.51
  -3  -8  15  343.11  102.23
   8  -3  15  264.53  103.61
  -8   4 -15   52.10   46.57
  -8   4 -15   28.36   55.69
   4   8 -15   56.50   32.04
   4   8 -15   44.08   31.89
   8  -4  15   58.00   53.42
   8  -4  15   26.90   60.33
  -4  -8  15   25.32   36.07
  -8   5 -15  162.65   89.95
   5   8 -15  312.79   77.37
  -8   5 -15  146.65   89.85
   8  -5  15   82.71  109.48
   8  -5  15  236.46   96.74
   6   8 -15  -56.85   31.45
  -6  -8  15    3.82   31.14
   8   8 -15   23.00   38.05
  -8  -8  15    1.81   45.86
  -8  -8  15   -1.05   34.54
   9   8 -15   -4.29   40.44
   9   8 -15    8.84   38.08
  -9  -8  15    1.98   46.44
  -9  -8  15   26.79   37.97
   9   7 -15   44.54   37.23
  -9  -7  15   89.81   47.72
   9   5 -15  -12.13   43.92
   9   5 -15   90.47   34.05
  -9  -5  15   60.77   41.69
  -9  -5  15  124.10   41.61
   9   4 -15  254.27  118.56
  -4   9 -15  248.15  123.92
   9   4 -15  338.78  107.26
  -9  -4  15  508.68  115.65
  -9  -4  15  227.66  122.51
   9   3 -15   14.25   19.14
   9   3 -15  -45.20   39.59
  -3   9 -15   -3.64   24.83
  -9  -3  15   -1.16   37.95
   9   2 -15  351.60  129.86
   9   2 -15  359.31  108.23
  -2   9 -15  274.52  122.74
  -9  -2  15  318.61  135.79
  -1   9 -15  -14.29   26.69
   9   1 -15  -54.95   43.36
   9   1 -15    2.22   18.95
   1  -9  15   36.60   33.08
  -9  -1  15   18.92   41.19
   9   1  15   57.14   75.73
  -9   0 -15  -57.09   76.23
   9   0 -15   23.06   20.87
   0   9 -15   25.74   28.08
   0   9 -15   10.75   25.81
   0  -9  15    1.54   33.45
  -9   0  15   18.57   39.86
   9   0  15   26.96   76.50
   9   0  15   -3.50   52.10
  -9   1 -15    7.01   74.19
   1   9 -15    4.00   25.19
   1   9 -15   12.87   27.26
  -1  -9  15  -46.90   34.38
   9  -1  15  -53.67   73.55
   9  -1  15  -12.32   48.36
   2   9 -15  399.58  101.84
   2   9 -15  329.41  106.50
  -9   2 -15  286.34  122.28
   9  -2  15  175.09  107.71
  -2  -9  15  374.90  108.53
   9  -2  15  189.84  131.45
  -9   3 -15   10.87   57.62
   3   9 -15   -1.91   30.18
   3   9 -15  -13.90   29.22
  -9   3 -15   46.50   66.56
   9  -3  15   -1.38   66.16
  -3  -9  15   -1.58   34.24
   9  -3  15  -10.74   48.03
   4   9 -15  343.18  112.92
   4   9 -15  493.74  109.29
  -9   4 -15  260.67  137.12
  -9   4 -15  317.66  123.45
   9  -4  15  162.23  137.01
   9  -4  15  301.61  123.48
  -9   5 -15   25.27   60.11
  -9   5 -15   59.47   62.23
   9  -5  15   30.56   85.68
   9  -5  15   37.57   76.93
   6   9 -15   70.16   36.42
   9  -6  15  -62.89  108.84
   9  -6  15   87.55   74.98
   7   9 -15   13.40   35.87
   7   9 -15   11.50   37.23
  -7  -9  15   31.39   46.89
   8   9 -15  -12.28   36.93
   8   9 -15   -7.05   36.42
  -8  -9  15  -33.49   47.79
  -8  -9  15   -6.95   38.06
   9   9 -15   15.25   39.28
   9   9 -15    1.49   40.61
  -9  -9  15  -32.83   39.88
  -9  -9  15    2.25   48.73
  10   9 -15   24.22   44.56
  10   9 -15  -58.61   43.63
 -10  -9  15    9.64   56.36
 -10  -9  15  -76.16   44.53
  10   8 -15   41.32   40.60
  10   8 -15   17.21   41.87
 -10  -8  15  -28.66   41.00
 -10  -8  15  -96.04   52.21
  10   7 -15   20.55   36.20
  10   7 -15  -64.29   45.78
 -10  -7  15  -67.39   41.74
 -10  -7  15   -7.61   48.18
  10   6 -15  -18.14   31.80
 -10  -6  15   60.82   41.54
  10   4 -15   51.17   44.71
  -4  10 -15    4.78   36.04
  10   4 -15  123.67   33.93
 -10  -4  15  213.12   41.79
 -10  -4  15    3.52   45.93
  -3  10 -15  185.99  102.29
  10   3 -15  186.43   92.99
  10   3 -15  508.96  108.13
 -10  -3  15  348.27  110.51
  10   2 -15  -25.60   43.56
  10   2 -15    1.12   20.24
  -2  10 -15  -11.05   26.64
 -10  -2  15   29.67   42.67
  -1  10 -15   28.89   28.66
 -10  -1 -15   55.11   83.76
  10   1 -15   12.85   21.53
  10   1 -15   -3.74   44.59
  10   1  15   64.54   85.41
 -10  -1  15  -21.45   41.95
 -10   0 -15  -78.01   82.29
  10   0 -15   14.85   22.97
   0  10 -15  -13.76   27.19
  10   0  15 -105.85   56.82
 -10   0  15  -12.13   41.85
  10   0  15  -15.63   83.54
   1  10 -15   21.83   29.82
 -10   1 -15  -14.89   83.36
  -1 -10  15   26.84   36.65
  10  -1  15   68.10   80.73
  10  -1  15   42.51   52.60
   2  10 -15   -1.13   28.32
 -10   2 -15  -53.99   76.82
  10  -2  15  -29.85   61.65
  -2 -10  15   68.26   36.67
  10  -2  15  -59.34   50.36
 -10   3 -15  251.89   96.10
 -10   3 -15  176.61  112.38
  10  -3  15  106.23  102.80
  10  -3  15  110.06   82.78
 -10   4 -15  -13.87   63.77
 -10   4 -15  -24.73   69.15
  10  -4  15  -16.54   65.08
  10  -4  15    5.66   72.98
   5  10 -15  258.51   49.40
 -10   5 -15  103.08   79.99
 -10   5 -15   16.71   73.71
   5  10 -15  -30.45   48.35
  -5 -10  15   10.27   56.10
  10  -5  15  194.33   93.61
  10  -5  15   98.36  102.50
 -10   6 -15   57.03   75.28
   6  10 -15   14.60   34.99
 -10   6 -15   12.25   56.69
  10  -6  15 -208.02   91.59
   7  10 -15  -46.10   38.57
   7  10 -15  -32.03   38.90
  -7 -10  15   18.36   50.72
   8  10 -15  -40.38   40.66
   8  10 -15   48.70   39.62
  -8 -10  15    4.89   49.96
   9  10 -15  -19.86   43.31
   9  10 -15  -21.67   42.30
  -9 -10  15   10.43   57.11
  10  10 -15  -95.97   42.27
  10  10 -15   23.32   45.49
 -10 -10  15  -50.89   47.50
 -10 -10  15   50.43   62.18
  11  10 -15  -63.53   48.43
  11  10 -15  -10.91   50.55
 -11 -10  15  -45.97   52.69
 -11 -10  15  -72.37   62.78
  11   9 -15  -81.97   49.12
  11   9 -15   19.99   43.30
 -11  -9  15  -10.40   59.63
 -11  -9  15  110.33   50.09
  11   8 -15   69.70   42.91
  11   8 -15   78.62   47.85
 -11  -8  15  -59.86   56.44
 -11  -8  15  -49.16   46.84
  11   7 -15   18.19   40.55
  11   7 -15   29.26   46.69
 -11  -7  15   -4.11   48.26
 -11  -7  15   61.87   43.80
  11   6 -15   33.07   47.64
  11   6 -15   52.33   39.63
 -11  -6  15   57.70   48.83
 -11  -6  15   31.07   44.21
  11   5 -15  -29.10   34.68
 -11  -5  15  -58.50   47.15
  11   3 -15  -26.71   44.36
 -11  -3  15   52.58   44.74
  11   2 -15   34.96   23.47
  11   2 -15  -27.16   47.43
 -11  -2  15  -43.27   45.63
  11   1 -15   33.04   48.96
  11   1 -15   38.39   25.48
 -11  -1 -15   22.86   95.28
 -11  -1  15   25.88   45.98
  11   0 -15   75.89   39.17
 -11   0 -15   30.35  104.08
 -11   0  15   70.57   65.18
  11   0  15   88.43   67.73
  11  -1 -15   18.70   29.02
 -11   1 -15  107.56   96.69
  11  -1  15   60.48   59.15
  11  -1  15  -20.98   79.36
 -11   2 -15   42.32   88.35
  11  -2  15   45.27   77.99
  11  -2  15   65.56   60.41
 -11   3 -15   63.82   79.26
 -11   3 -15  -31.32   79.82
  11  -3  15   -8.84   81.24
  11  -3  15   -9.44   62.34
 -11   4 -15    5.36   74.29
 -11   4 -15   50.52   79.30
 -11   5 -15   14.93   81.39
 -11   5 -15  -29.72   72.63
  11  -5  15 -156.87  109.75
 -11   6 -15   32.80   95.76
 -11   6 -15  117.34   70.87
  11  -6  15  175.00  105.91
   7  11 -15   68.03   42.67
  -7 -11  15    2.70   58.41
   8  11 -15   -1.60   41.81
  -8 -11  15   25.75   58.61
   9  11 -15   32.16   45.16
  -9 -11  15    3.05   65.12
  10  11 -15   80.15   53.87
  11  11 -15   40.15   52.54
 -11 -11  15  -32.76   57.80
  12  11 -15  154.68   60.28
 -12 -11  15  -89.34   60.46
  12  10 -15  107.92   53.56
  12  10 -15    2.00   54.93
 -12 -10  15   -1.58   55.54
 -12 -10  15   10.18   71.06
  12   9 -15  -28.64   55.79
  12   9 -15   12.14   48.61
 -12  -9  15  -40.99   51.99
 -12  -9  15    2.90   62.33
  12   8 -15  102.24   54.82
  12   8 -15    2.75   43.98
 -12  -8  15    2.84   47.90
  12   7 -15   66.88   51.85
  12   7 -15   36.37   45.90
 -12  -7  15   -6.68   57.21
 -12  -7  15   15.14   50.64
  12   6 -15  -17.20   39.63
  12   6 -15   52.41   47.28
 -12  -6  15   12.09   50.31
 -12  -6  15  -77.63   46.59
  12   5 -15  -23.02   35.82
  12   5 -15    9.95   45.56
 -12  -5  15  -14.76   44.69
 -12  -5  15   10.98   46.22
  12   4 -15   50.36   32.49
 -12  -4  15   11.91   45.21
  12   2  15   19.73  107.22
  12   1 -15   39.95   54.68
 -12  -1  15   19.43   52.44
  12   1  15   68.07  106.10
  12   0 -15  258.99  121.88
  12   0  15  500.57  166.11
  12  -1 -15   -4.66   34.02
  12  -5  15   98.59  118.82
 -12   6 -15   30.53   73.04
  12  -6  15  -28.75  130.40
  12  -7  15  686.01  150.99
  12  -7  15  -63.06  178.07
  13  11 -15  168.18   76.79
 -13 -11  15   47.42   74.93
  13  10 -15   59.27   63.13
 -13 -10  15   18.34   76.51
 -13 -10  15   60.74   62.03
  13   9 -15   29.20   60.49
  13   9 -15    3.31   51.44
 -13  -9  15   28.26   71.28
 -13  -9  15   99.85   59.07
  13   8 -15   56.43   57.74
  13   8 -15  -23.97   49.19
 -13  -8  15   11.05   63.30
 -13  -8  15   27.74   54.35
  13   7 -15  444.83  158.43
  13   7 -15  459.89  167.60
 -13  -7  15  354.59  173.36
 -13  -7  15  571.50  172.38
  13   6 -15  159.94   63.54
  13   6 -15   57.29   54.29
 -13  -6  15    4.45   66.66
 -13  -6  15  211.71   66.31
  13   5 -15   85.74   56.32
  13   5 -15  138.09   44.73
 -13  -5  15   14.20   55.60
 -13  -5  15    8.75   54.94
  13   4 -15  -70.87   52.28
  13   4 -15    3.65   30.93
 -13  -4  15   29.54   44.79
 -13  -4  15   19.50   49.26
  13   3 -15  215.19   80.89
 -13  -3  15  440.85   84.34
 -13  -3  15    1.73   76.47
  13   2 -15  -11.70   27.04
  13   2  15 -110.43  112.86
 -13  -1 -15 -100.91  118.41
  13   1  15  -11.04  104.08
  13   1  15  -59.10   72.32
 -13   0 -15   78.35  120.46
  13   0  15    9.58   69.95
  13   0  15  -97.13   94.29
 -13   1 -15 -111.99  119.76
  13  -1  15   82.56   81.98
  13  -1  15  -96.63   73.64
 -13   2 -15  114.85  104.08
 -13   2 -15   98.21  114.36
  13  -2  15   43.10   73.41
  13  -2  15  -20.40   93.21
 -13   3 -15  -28.76  104.90
 -13   3 -15  -30.10  104.75
  13  -3  15   -4.33   99.86
  13  -3  15  -22.37   80.03
 -13   4 -15   27.85   99.48
 -13   4 -15   95.21   95.82
  13  -4  15   16.61  105.83
  13  -4  15   33.31   88.11
 -13   5 -15  248.58  110.55
 -13   5 -15   -3.44   93.23
  13  -5  15   -5.95  130.40
  13  -5  15   89.60  114.65
 -13   6 -15  165.29  117.96
 -13   6 -15   51.37   84.82
  13  -6  15   35.37  124.65
  13  -6  15 -162.40  148.61
 -13   7 -15  -28.72  153.17
 -13   7 -15  112.56  197.63
  13  -7  15  400.54  181.22
  13  -7  15  723.83  210.52
  14  11 -15  100.86   84.64
 -14 -11  15  169.12   84.80
  14  10 -15 -141.23   72.55
 -14 -10  15  -99.19   86.18
 -14 -10  15  -20.03   66.66
  14   9 -15 -147.93   52.12
  14   9 -15  158.32   67.52
 -14  -9  15  -45.10   61.95
 -14  -9  15 -110.07   79.96
  14   8 -15  -99.57   60.31
  14   8 -15   -3.19   51.77
 -14  -8  15   55.32   58.23
 -14  -8  15    3.08   68.65
  14   7 -15    5.75   49.32
  14   7 -15  103.22   58.03
 -14  -7  15  -41.26   65.81
 -14  -7  15   55.47   58.88
  14   6 -15  -56.13   47.22
  14   6 -15  -21.42   55.67
 -14  -6  15  156.77   57.95
 -14  -6  15   51.78   61.97
  14   5 -15  -82.18   44.51
  14   4 -15  -53.31   38.99
 -14  -3  15   65.26   56.11
 -14  -3  15   22.92   50.72
 -14  -2 -15 -301.36  123.47
  14   2  15  -36.51  120.10
 -14  -1 -15 -154.91  136.97
  14   1  15  -16.67   79.34
  14   1  15   28.01  109.57
 -14   0 -15   33.54  135.14
  14   0  15   -8.67   76.75
  14   0  15  -69.24   94.99
 -14   1 -15  -39.78  138.22
  14  -1  15   18.63   82.19
  14  -1  15  -31.09   95.57
 -14   2 -15  -35.87  114.91
 -14   2 -15  -38.79  129.78
  14  -2  15   12.98   81.09
  14  -2  15   39.84  103.00
 -14   3 -15 -172.49  113.38
 -14   3 -15   12.64  118.35
  14  -3  15  -97.90  113.58
  14  -3  15   16.89   84.99
 -14   4 -15  -35.40  110.54
 -14   4 -15 -163.40  121.72
 -14   5 -15   96.73  101.68
 -14   5 -15   40.66  122.20
 -14   6 -15  196.33  130.68
 -14   6 -15   69.23   93.96
  14  -6  15   17.19  154.74
  14  -6  15 -122.68  142.60
 -14   7 -15   79.95  144.70
 -14   7 -15    3.99   92.60
  14  -7  15  -67.67  137.12
  14  -7  15 -134.91  172.86
 -15 -11  15  -45.96   73.01
 -15 -10  15 -177.95   99.37
 -15  -2 -15   94.41  142.09
  15   2  15  -91.53  129.37
 -15  -1 -15  221.46  150.69
  15   1  15  -41.96  116.21
  15   1  15  -20.47   88.99
 -15   0 -15   61.12  161.89
  15   0  15  -25.16   93.56
  15   0  15 -228.32  106.53
 -15   1 -15   18.17  153.03
 -15   1 -15   39.51  129.88
  15  -1  15  -69.31  108.80
  15  -1  15 -249.67   94.38
 -15   2 -15  150.10  146.54
 -15   2 -15  -57.56  125.94
  15  -2  15   35.77  114.15
  15  -2  15  -18.35   89.03
 -15   3 -15   32.85  144.41
 -15   3 -15   66.70  118.62
  15  -3  15  181.49   98.33
  15  -3  15  -78.27  112.54
 -15   4 -15   22.01  114.30
 -15   4 -15   67.89  141.91
  15  -4  15  -44.60  107.32
  15  -4  15   24.79  133.88
 -15   5 -15  166.85  112.24
 -15   5 -15   71.89  140.50
  15  -5  15   86.10  149.66
  15  -5  15   49.56  124.40
 -15   6 -15 -296.51  152.93
 -15   6 -15  138.47  102.99
  15  -6  15  121.40  154.68
  15  -6  15 -346.26  178.61
 -15   7 -15  162.79  170.70
 -15   7 -15   17.80  104.00
  15  -7  15   87.61  185.16
  15  -7  15  204.62  163.31
 -16  -2 -15   72.02  163.73
  16   2  15  142.13  137.97
 -16  -1 -15  287.58  171.07
  16   1  15  -45.54  101.46
  16   1  15  164.70  120.33
 -16   0 -15   32.36  180.43
  16   0  15  118.10  118.18
  16   0  15   93.33  101.31
 -16   1 -15  156.29  184.51
 -16   1 -15   33.99  147.01
  16  -1  15  113.77  101.75
  16  -1  15   -4.08  120.63
 -16   2 -15 -152.49  139.04
 -16   2 -15  121.76  170.32
  16  -2  15  -20.74  100.96
  16  -2  15 -111.21  122.00
 -16   3 -15    9.87  132.39
 -16   3 -15  126.29  172.10
  16  -3  15   13.57  131.03
  16  -3  15 -140.26  106.90
 -16   4 -15  147.91  161.01
 -16   4 -15  -92.74  125.92
  16  -4  15  -41.61  116.74
  16  -4  15   19.76  148.60
 -16   5 -15  -81.68  123.48
 -16   5 -15  164.07  156.45
  16  -5  15 -145.28  141.43
 -16   6 -15 1256.00 1086.51
 -16   7 -15  180.65  176.80
 -16   7 -15   44.78  109.00
  16  -7  15 -145.11  169.94
  16  -7  15 -219.40  197.44
 -16   8 -15   62.34  192.05
  16  -8  15  -76.74  175.97
 -17  -2 -15  704.06  974.04
  17   2  15 3710.50  981.52
 -17  -1 -15 2191.36  680.82
 -17   0 -15  487.12  239.73
 -17   0 -15   63.82  190.34
 -17   1 -15  311.32  254.07
 -17   1 -15  971.86  283.74
  17  -1  15   45.98  195.34
 -17   2 -15  277.77 1259.80
 -17   2 -15  330.17 1162.48
  17  -2  15 4184.32 1127.99
  17  -2  15 4481.91 1058.74
 -17   3 -15  -10.86  149.96
 -17   4 -15   18.96  184.52
 -17   4 -15  -48.07  143.47
  17  -4  15 -437.90  176.75
  17  -4  15  -44.26  139.27
 -17   5 -15  -47.25  188.19
 -17   5 -15   31.90  135.55
  17  -5  15  153.25  186.25
  17  -5  15  184.22  150.88
 -17   6 -15  -37.87  130.25
 -17   6 -15  -52.42  193.34
  17  -6  15 -158.67  171.76
  17  -6  15   39.84  211.90
 -17   7 -15  137.79  124.95
 -17   7 -15  129.71  193.28
  17  -7  15   28.20  209.61
  17  -7  15 -360.10  206.92
 -17   8 -15   10.00  219.52
 -17   8 -15 -102.40  122.24
  17  -8  15   85.17  196.24
 -18  -2 -15  197.71  208.46
  18   2  15 -128.82  142.79
 -18  -1 -15  231.83  225.74
  18   1  15  128.24  145.12
  18   1  15  137.58  131.98
 -18   0 -15 -147.23  179.25
 -18   0 -15    7.08  227.87
  18   0  15   62.82  144.38
  18   0  15 -194.82  128.83
 -18   1 -15  -90.07  239.28
 -18   1 -15 -137.16  171.42
  18  -1  15   -1.69  147.43
  18  -1  15 -106.57  127.45
 -18   2 -15  -53.79  237.98
 -18   2 -15 -318.73  165.32
  18  -2  15  -68.62  145.97
  18  -2  15  137.11  130.85
 -18   3 -15   53.76  159.36
 -18   3 -15   48.36  225.43
  18  -3  15  -82.04  135.50
  18  -3  15   -5.95  168.61
 -18   4 -15  211.66  232.26
 -18   4 -15  -65.50  153.32
  18  -4  15 -169.94  149.39
  18  -4  15 -171.04  188.98
 -18   5 -15 -150.97  219.35
 -18   5 -15 -178.82  149.09
  18  -5  15  118.12  215.44
  18  -5  15 -238.06  170.14
 -18   6 -15 -102.28  217.92
 -18   6 -15   60.84  146.52
  18  -6  15 -124.41  182.22
  18  -6  15 -241.03  227.21
 -18   7 -15   12.36  133.23
 -18   7 -15  -44.06  227.51
  18  -7  15 -203.05  203.93
 -18   8 -15  365.28  256.25
  18  -8  15  128.66  245.51
   0   1 -16  -16.96   34.66
   0   1 -16    7.13   11.03
   1   0 -16   -8.88   13.13
   0  -1  16   13.91   25.82
  -1   1 -16  251.97  113.97
  -1   1 -16  273.85   96.73
   1   1 -16  279.12  114.54
   1   1 -16  332.61   95.26
  -1  -1  16  275.24  112.43
   1  -1  16  285.32  111.84
  -1   2 -16   21.97   34.63
  -1   2 -16   28.64   14.60
   2   1 -16   41.22   15.81
   2   1 -16    4.72   35.79
  -2  -1  16   32.87   29.38
   1  -2  16    9.87   28.37
   0   2 -16   25.71   32.89
   0   2 -16   17.36   12.86
   2   0 -16   19.95   14.37
   0  -2  16   16.30   27.46
   1   2 -16    7.69   14.72
   1   2 -16   13.58   33.16
  -2   1 -16   16.94   13.31
  -1  -2  16   26.70   28.79
   2  -1  16  115.54   32.62
   2   2 -16   85.45   52.58
  -2   2 -16  109.82   55.99
  -2   2 -16  152.57   39.57
   2   2 -16   72.52   38.51
  -2  -2  16  115.19   50.54
   2  -2  16  126.35   50.69
  -2   3 -16  301.43  108.00
   3   2 -16  324.11   91.22
   3   2 -16  206.97  105.59
  -3  -2  16  273.43  105.39
   2  -3  16  288.24  104.95
  -1   3 -16   36.95   31.15
  -1   3 -16   40.27   14.37
   3   1 -16    7.75   14.86
   3   1 -16    7.89   37.99
   1  -3  16   53.87   26.17
  -3  -1  16    2.12   29.87
   0   3 -16   -9.23   28.73
   3   0 -16    1.75   13.20
   0   3 -16   10.35   12.14
   0  -3  16    2.41   24.97
  -3   0  16  -21.69   27.74
  -3   1 -16   11.04   11.72
   1   3 -16   35.32   14.30
   1   3 -16   18.26   29.49
  -1  -3  16   17.08   25.73
   2   3 -16  225.49   82.29
  -3   2 -16  266.64   85.79
  -3   2 -16  219.93  103.71
   2   3 -16  261.77   93.94
  -2  -3  16  269.30   93.57
   3  -2  16  210.31   99.75
   3   3 -16   65.23   47.53
   3   3 -16  150.15   37.35
  -3   3 -16   98.77   52.12
  -3   3 -16   75.25   38.18
  -3  -3  16  131.37   46.60
   3  -3  16  105.76   48.09
  -3   4 -16    3.40   11.95
  -3   4 -16   -9.32   29.02
   4   3 -16   -4.88   32.59
   4   3 -16    4.95   13.85
   3  -4  16   -4.13   15.52
   3  -4  16   11.16   23.73
  -4  -3  16    0.91   27.72
   4   2 -16    0.82   14.68
  -2   4 -16   -1.01   26.25
  -2   4 -16   -9.86   11.83
   4   2 -16   28.31   34.93
   2  -4  16   19.48   23.79
  -4  -2  16   15.24   31.63
  -1   4 -16  165.73   56.74
  -1   4 -16  140.29   48.64
   4   1 -16  164.38   62.65
   1  -4  16  143.73   54.05
  -4  -1  16  120.54   59.64
   0   4 -16    9.03   13.52
   0   4 -16   21.26   26.50
   0  -4  16   11.45   23.59
  -4   0  16   -1.18   29.60
  -4   1 -16   75.35   40.78
   1   4 -16  169.53   48.72
   1   4 -16  160.46   40.80
   4  -1  16   36.28   60.27
  -1  -4  16  129.04   47.10
   2   4 -16    1.05   27.75
   2   4 -16    3.29   14.67
  -4   2 -16    4.43   34.43
  -4   2 -16   -6.72   10.58
  -2  -4  16   -1.53   23.81
   4  -2  16   40.40   29.07
   4  -2  16  -19.78   44.87
  -4   3 -16  -11.00   10.02
   3   4 -16   -1.08   27.98
  -4   3 -16   10.22   34.29
   3   4 -16    6.87   14.96
  -3  -4  16    0.80   24.01
   4  -3  16  -18.09   27.92
   4   4 -16   41.34   31.68
   4   4 -16    3.60   16.54
  -4   4 -16   22.32   13.66
  -4   4 -16  -11.73   30.88
  -4  -4  16    1.67   26.75
   4  -4  16   27.64   26.59
   4  -4  16   14.75   15.92
  -4   5 -16   15.50   17.37
   5   4 -16    5.82   32.39
  -4   5 -16   28.70   31.01
  -5  -4  16    8.80   28.92
   4  -5  16   42.02   19.52
   4  -5  16   37.11   25.56
  -3   5 -16    0.85   14.51
  -3   5 -16    4.74   27.37
   5   3 -16   16.46   34.49
  -5  -3  16  -15.28   27.75
   3  -5  16    1.35   16.90
   3  -5  16   10.70   22.46
   5   2 -16  398.36  128.52
   5   2 -16  391.86  109.85
  -2   5 -16  312.29  117.11
  -2   5 -16  318.45  126.61
   2  -5  16  250.90  116.46
   2  -5  16  390.22  123.00
  -5  -2  16  290.26  130.30
   5   1 -16    3.31   39.58
  -1   5 -16   16.17   26.26
  -1   5 -16   -0.87   14.83
   5   1 -16   21.93   15.93
  -5  -1  16   10.39   32.39
   1  -5  16    7.79   22.44
   1  -5  16   18.18   18.37
  -5   0 -16    7.97    9.75
   0   5 -16    0.92   15.55
   0   5 -16    7.74   26.54
   5   0 -16   -5.68   15.40
   0  -5  16   13.39   22.11
   0  -5  16    2.40   19.46
   5   0  16  -15.90   45.94
  -5   0  16  -14.80   31.78
   1   5 -16   18.47   15.57
   1   5 -16    9.87   25.79
  -5   1 -16  -32.27    9.65
   5  -1  16   16.24   50.14
  -1  -5  16   11.99   20.46
  -1  -5  16   43.72   22.64
  -5   2 -16  290.95  126.57
   2   5 -16  432.50  122.70
   2   5 -16  383.74  128.44
   5  -2  16  222.78  146.64
  -2  -5  16  453.40  127.79
  -2  -5  16  444.71  125.48
  -5   3 -16   -8.12   37.12
  -5   3 -16    9.44    9.85
   3   5 -16   17.75   27.69
   3   5 -16  -14.12   17.02
   5  -3  16  -12.30   33.97
  -3  -5  16   -7.66   23.29
   5  -3  16  -22.22   36.02
  -3  -5  16    0.75   24.61
   4   5 -16   33.52   32.09
   4   5 -16   53.87   21.31
  -4  -5  16   19.39   26.80
  -4  -5  16   39.61   28.68
   5   5 -16   20.61   30.91
  -5  -5  16   -0.85   27.69
   6   5 -16 -100.54   45.11
   6   5 -16  -25.66   28.22
  -6  -5  16 -119.63   46.28
  -6  -5  16   -1.18   37.68
   6   4 -16   28.97   18.40
   6   4 -16   -4.92   34.84
  -4   6 -16   -7.40   28.36
  -4   6 -16  -11.09   19.10
  -6  -4  16   14.15   29.83
   4  -6  16   18.21   20.89
   4  -6  16   11.94   22.55
   6   3 -16  158.78   54.35
  -3   6 -16  220.03   58.14
  -3   6 -16  191.70   66.71
   6   3 -16   91.12   66.81
   3  -6  16  182.21   62.55
  -6  -3  16  134.52   66.67
   3  -6  16  105.52   58.81
  -2   6 -16   17.56   28.51
   6   2 -16   31.77   39.58
   6   2 -16   33.87   18.51
  -2   6 -16   45.38   21.22
  -6  -2  16   11.21   34.56
   2  -6  16   34.06   24.78
   2  -6  16   25.90   23.19
  -1   6 -16  135.91   55.80
  -1   6 -16  158.34   50.76
   6   1 -16   88.65   66.58
   6   1 -16  116.53   46.18
   1  -6  16  134.33   53.72
   1  -6  16  154.87   51.43
  -6  -1  16   99.49   65.00
   6   0 -16   40.85   19.95
   0   6 -16   28.88   21.84
   0   6 -16   47.40   27.56
   0  -6  16   50.33   24.86
  -6   0  16   16.78   34.74
   6   0  16  -20.90   52.13
   0  -6  16   22.44   24.62
   1   6 -16  175.74   58.08
   1   6 -16  141.74   62.72
   6  -1  16  191.82   84.21
  -1  -6  16  162.24   60.96
  -1  -6  16  167.54   60.26
  -6   2 -16  -16.26   56.85
   2   6 -16   32.26   29.15
   2   6 -16   22.20   21.99
   6  -2  16   61.92   42.02
  -2  -6  16   10.78   25.79
   6  -2  16   34.13   54.86
  -2  -6  16   63.72   25.68
   3   6 -16  223.23   59.77
   3   6 -16  262.64   54.75
  -6   3 -16   98.38   71.53
   6  -3  16    1.70   70.90
  -3  -6  16  146.39   57.91
  -3  -6  16  148.03   57.04
   6  -3  16  136.70   60.40
   4   6 -16    3.83   22.81
   4   6 -16  -32.31   31.29
  -4  -6  16   -4.53   27.29
  -4  -6  16   -0.79   25.66
   5   6 -16  -59.54   42.48
  -5  -6  16 -106.24   38.90
   6   6 -16   58.98   38.90
   6   6 -16   29.58   30.19
  -6  -6  16   43.75   36.72
  -6  -6  16   70.92   35.06
   7   6 -16   74.20   34.67
   7   6 -16   37.95   43.54
  -7  -6  16  201.39   40.75
  -7  -6  16   27.05   41.10
   7   5 -16   26.91   23.88
   7   5 -16   36.89   37.94
  -7  -5  16    1.26   33.11
  -7  -5  16   33.02   33.40
  -4   7 -16  143.76   60.83
   7   4 -16  141.24   51.55
  -4   7 -16  133.14   54.14
   7   4 -16  153.93   61.51
  -7  -4  16  194.70   60.76
   4  -7  16  104.31   56.23
   4  -7  16  171.83   58.08
   7   3 -16  121.92   47.44
   7   3 -16  145.07   64.60
  -3   7 -16  101.63   53.08
  -3   7 -16  131.28   60.56
   3  -7  16   72.05   55.09
   3  -7  16  101.00   57.81
  -7  -3  16  185.99   65.98
   7   2 -16  118.18   86.01
   7   2 -16  251.20   68.24
  -2   7 -16  161.34   80.41
  -2   7 -16  225.44   74.07
   2  -7  16  203.43   75.19
   2  -7  16  228.34   79.17
  -7  -2  16  149.29   87.48
  -1   7 -16   73.66   30.80
  -1   7 -16   40.53   34.49
   7   1 -16   81.32   49.58
   7   1 -16   67.76   28.13
   1  -7  16   52.54   33.63
  -7  -1  16   81.90   45.62
   1  -7  16   68.17   32.70
   0   7 -16   20.58   21.05
   0   7 -16    5.51   25.07
   7   0 -16    4.30   18.02
   7   0  16   34.08   59.09
   0  -7  16   -5.59   23.08
  -7   0  16   -4.07   35.63
   0  -7  16   -8.50   23.93
   1   7 -16   96.03   34.43
   1   7 -16  100.74   33.12
  -7   1 -16  -28.53   66.87
  -1  -7  16   84.28   35.47
   7  -1  16   -3.54   72.53
  -1  -7  16   62.33   33.76
   2   7 -16  278.49   75.82
   2   7 -16  266.82   71.66
  -7   2 -16   52.85   93.72
   7  -2  16  113.61   97.32
  -2  -7  16  283.51   75.40
   7  -2  16  137.41   78.48
  -2  -7  16  225.66   76.00
  -7   3 -16   61.63   95.34
   3   7 -16  358.53   85.04
   3   7 -16  248.64   82.42
  -3  -7  16  378.12   84.99
   7  -3  16  176.30   86.82
   7  -3  16  266.23   98.06
   4   7 -16  179.88   47.86
   4   7 -16   48.72   43.86
  -4  -7  16  116.92   46.17
  -4  -7  16   99.72   48.85
   7  -4  16   93.48   54.10
   7  -4  16  -24.82   68.49
   5   7 -16   27.00   32.31
  -5  -7  16   43.96   31.23
  -5  -7  16   36.69   35.86
   6   7 -16   10.05   27.75
   6   7 -16   86.13   37.50
  -6  -7  16    4.34   35.45
  -6  -7  16   29.26   33.96
   8   7 -16  -18.59   32.69
  -8  -7  16    1.65   40.99
   8   5 -16   40.80   25.12
   8   5 -16   22.80   37.40
  -8  -5  16    1.04   36.69
   8   4 -16   95.79   54.10
  -4   8 -16  111.88   50.40
   8   4 -16  123.49   42.57
  -8  -4  16  119.07   53.87
  -3   8 -16   34.86   32.26
  -3   8 -16   42.46   29.41
   8   3 -16   68.22   44.12
   8   3 -16   42.74   25.52
   3  -8  16   61.27   35.47
  -8  -3  16   58.94   40.46
   8   2 -16  141.80   72.40
  -2   8 -16  162.85   60.63
  -2   8 -16  140.80   64.85
   8   2 -16  200.46   55.89
   2  -8  16  142.80   63.29
  -8  -2  16  156.04   73.07
  -1   8 -16  -14.24   25.06
   8   1 -16   34.85   19.49
   8   1 -16   76.20   45.25
  -1   8 -16    4.62   26.55
  -8  -1  16   41.70   40.68
   1  -8  16   28.30   27.49
   8   1  16 -141.90   68.85
   8   0 -16    8.07   20.52
   0   8 -16    6.54   26.79
   0   8 -16   27.40   25.59
   8   0  16   15.82   71.49
   0  -8  16  -10.15   31.62
  -8   0  16   22.98   38.91
   1   8 -16    4.84   26.24
  -8   1 -16    6.88   72.15
   1   8 -16    4.97   24.87
   8  -1  16  -38.95   70.55
  -1  -8  16   19.37   28.97
   8  -1  16  -13.47   50.96
   2   8 -16  189.69   57.20
  -8   2 -16  102.49   85.56
   2   8 -16  187.40   58.07
   8  -2  16   24.81   82.82
   8  -2  16  153.21   65.88
  -2  -8  16  152.16   58.68
   3   8 -16   65.96   37.71
  -8   3 -16   78.22   63.01
   3   8 -16   59.87   36.32
   8  -3  16   89.19   49.03
  -3  -8  16  103.09   39.39
   8  -3  16   38.50   61.40
   4   8 -16  138.74   45.71
  -8   4 -16   60.33   59.20
   4   8 -16   70.74   43.25
  -8   4 -16  114.70   66.79
  -4  -8  16  133.56   45.70
   8  -4  16  100.18   56.81
   8  -4  16   29.40   70.68
  -4  -8  16   48.57   49.53
   5   8 -16  -31.78   32.87
  -5  -8  16    2.81   31.57
   7   8 -16   -1.32   31.81
   7   8 -16    4.02   32.70
  -7  -8  16    1.77   41.73
   8   8 -16  -30.87   38.94
   8   8 -16   -7.00   39.62
  -8  -8  16   18.74   36.69
  -8  -8  16  -92.52   46.26
   9   8 -16   55.88   45.12
   9   8 -16   56.44   51.78
  -9  -8  16  171.51   49.87
  -9  -8  16  -20.25   55.73
   9   7 -16  -16.48   45.56
   9   7 -16   27.52   33.37
  -9  -7  16   -9.10   38.55
  -9  -7  16    1.80   46.93
   9   6 -16   -8.69   31.93
  -9  -6  16    6.39   41.61
   9   4 -16   24.97   45.50
  -4   9 -16   30.24   35.78
   9   4 -16  150.82   29.60
  -9  -4  16   40.56   44.27
  -9  -4  16    1.36   37.09
   9   3 -16  303.99  104.97
  -3   9 -16  236.99  103.32
   9   3 -16  250.09   86.67
  -9  -3  16  213.89  107.81
   9   2 -16   56.86   24.35
  -2   9 -16   33.21   31.68
   9   2 -16   31.43   48.55
  -9  -2  16   60.43   44.79
   2  -9  16   27.36   36.91
  -1   9 -16   44.86   29.62
   9   1 -16   23.68   23.53
   9   1 -16    7.72   47.59
  -1   9 -16   22.50   30.09
   1  -9  16   34.17   35.32
  -9  -1  16   27.14   43.84
   9   1  16   68.64   76.69
  -9   0 -16  -29.90   75.52
   0   9 -16    5.10   26.64
   9   0 -16    3.70   21.71
   0   9 -16    7.48   28.06
   0  -9  16  -22.73   33.12
  -9   0  16   63.74   41.17
   9   0  16  -33.87   78.65
   1   9 -16   48.80   30.96
  -9   1 -16   24.49   76.99
   1   9 -16   29.38   30.10
   9  -1  16   60.61   52.81
  -1  -9  16   15.59   37.13
   9  -1  16  -13.60   81.60
  -9   2 -16   64.80   75.15
   2   9 -16   29.11   33.77
   2   9 -16   -1.08   31.54
   9  -2  16   74.41   62.87
   9  -2  16   53.65   49.41
  -2  -9  16   48.56   37.23
   3   9 -16  324.88  113.28
  -9   3 -16  202.61  141.63
   3   9 -16  399.38  109.94
  -9   3 -16  170.29  125.27
  -3  -9  16  540.50  114.97
   9  -3  16  314.66  116.04
  -9   4 -16  -24.15   65.59
  -9   4 -16   32.09   58.35
   9  -4  16   70.53   68.97
   9  -4  16  -10.65   55.20
   5   9 -16   53.50   42.86
   9  -5  16  108.73   87.64
   9  -5  16  166.57   70.90
  -5  -9  16    1.76   47.42
   6   9 -16    2.52   34.48
   7   9 -16    1.34   36.16
   7   9 -16  -23.52   39.14
  -7  -9  16  -75.54   47.28
  -7  -9  16   57.88   37.86
   8   9 -16   76.70   49.81
   8   9 -16   78.35   48.72
  -8  -9  16  113.82   49.27
  -8  -9  16   16.98   57.85
   9   9 -16   46.98   45.52
   9   9 -16   71.55   45.74
  -9  -9  16    2.27   51.33
  -9  -9  16  -22.64   41.95
  10   9 -16    1.69   44.94
  10   9 -16    2.76   44.04
 -10  -9  16   75.59   56.60
 -10  -9  16   30.86   45.81
  10   8 -16   44.88   47.89
  10   8 -16   54.25   44.81
 -10  -8  16   16.39   44.10
 -10  -8  16   34.80   52.14
  10   7 -16   32.47   39.42
  10   7 -16  123.29   47.97
 -10  -7  16    1.23   42.66
 -10  -7  16 -108.53   48.69
  10   6 -16  -38.69   49.86
  10   6 -16  -27.74   34.41
 -10  -6  16 -163.43   50.05
  10   5 -16   19.35   29.30
 -10  -5  16   -6.34   40.74
  -3  10 -16   36.83   31.51
  10   3 -16  -27.01   46.81
 -10  -3  16   49.42   44.85
  10   2 -16  133.40   32.05
  10   2 -16   70.35   54.33
  -2  10 -16   34.49   37.69
 -10  -2  16   27.21   50.94
  -1  10 -16   20.33   30.06
  10   1 -16   22.09   45.11
  10   1 -16   -2.49   24.32
 -10  -1  16   47.02   44.35
  10   1  16   29.60   87.60
   0  10 -16   59.29   31.29
  10   0 -16    9.28   25.32
 -10   0 -16  -17.30   83.73
 -10   0  16   -3.21   44.51
   0 -10  16  -11.56   39.35
  10   0  16   84.81   87.34
  10   0  16   33.48   56.72
   1  10 -16   15.73   29.53
 -10   1 -16  -34.62   86.88
  10  -1  16 -112.59   54.06
  -1 -10  16  132.87   39.22
  10  -1  16 -125.86   76.72
 -10   2 -16   57.11   83.19
  10  -2  16   -7.45   65.42
  10  -2  16   45.01   53.21
 -10   3 -16   10.23   73.46
 -10   3 -16    9.60   71.63
  10  -3  16  -52.73   77.78
  10  -3  16    2.01   52.78
 -10   4 -16  114.46   97.00
   4  10 -16  449.64   77.36
 -10   4 -16  220.34  108.49
   4  10 -16  140.66   74.97
  10  -4  16  209.31   92.37
  -4 -10  16   36.50   83.60
  10  -4  16   47.07  107.12
 -10   5 -16   -1.57   64.30
 -10   5 -16   -9.73   62.83
   5  10 -16    1.31   34.54
   5  10 -16    2.40   37.01
  -5 -10  16    2.04   41.46
   6  10 -16  -83.53   40.85
   7  10 -16   35.69   39.75
   7  10 -16   21.00   42.92
  -7 -10  16   70.85   54.82
   8  10 -16   52.39   44.27
   8  10 -16   72.38   42.79
  -8 -10  16 -119.19   55.31
   9  10 -16    1.62   45.22
   9  10 -16    2.90   46.42
  -9 -10  16    5.50   45.34
  -9 -10  16   57.19   60.70
  10  10 -16    3.07   48.95
  10  10 -16  -35.22   49.27
 -10 -10  16  -66.85   64.28
 -10 -10  16  -66.29   50.20
  11  10 -16   -1.94   51.83
  11  10 -16  -38.98   51.50
 -11 -10  16   28.12   71.35
 -11 -10  16    3.07   52.29
  11   9 -16  -61.06   52.68
  11   9 -16  -26.33   46.99
 -11  -9  16    2.85   50.03
 -11  -9  16  -97.14   62.23
  11   8 -16   77.73   58.46
  11   8 -16   68.04   51.99
 -11  -8  16  100.63   63.07
 -11  -8  16   89.84   54.61
  11   7 -16  -82.83   40.70
  11   7 -16   25.80   46.61
 -11  -7  16   85.95   46.71
 -11  -7  16  -23.01   49.64
  11   6 -16   -8.31   46.68
  11   6 -16   44.76   36.12
 -11  -6  16   30.41   48.85
 -11  -6  16   43.18   46.97
  11   5 -16   -1.65   44.78
  11   5 -16  -16.17   32.35
 -11  -5  16  -14.48   45.16
 -11  -5  16   12.15   44.48
  11   4 -16  -18.25   27.89
 -11  -4  16  -89.04   41.23
  11   1 -16  -37.28   45.44
 -11  -1  16   27.46   45.89
 -11   0 -16   15.58   96.04
  11   0  16   40.05   62.92
 -11   1 -16    8.74   96.05
  11  -1  16   38.26   74.20
  11  -1  16   17.67   60.67
 -11   2 -16   48.67  113.84
  11  -2  16  -54.99   79.33
 -11   3 -16   43.29   86.74
   3  11 -16    1.31   37.29
 -11   3 -16  204.27   94.48
  11  -3  16   84.44   85.46
 -11   4 -16   23.51   81.76
   4  11 -16   29.73   35.02
 -11   4 -16  -31.22   76.73
  -4 -11  16   -2.41   49.35
  11  -4  16  -40.09   89.13
 -11   5 -16  -38.25   74.38
   5  11 -16  -47.91   36.20
 -11   5 -16  148.77   72.79
  11  -5  16   79.68   86.80
  -5 -11  16   21.84   51.55
   6  11 -16   31.13   39.56
   7  11 -16   -3.11   41.26
  -7 -11  16    8.10   55.19
   8  11 -16    1.65   45.27
  -8 -11  16    2.87   58.97
   9  11 -16  -77.56   48.16
  -9 -11  16    3.06   62.59
  10  11 -16    1.85   50.10
 -10 -11  16  -71.91   68.27
 -10 -11  16   46.12   52.58
  11  11 -16   68.57   57.73
 -11 -11  16 -154.24   74.08
 -11 -11  16  -66.73   58.62
  12  11 -16   -2.22   61.82
 -12 -11  16   51.39   60.93
 -12 -11  16   -3.91   78.62
  12  10 -16  -66.98   50.26
  12  10 -16   12.74   58.63
 -12 -10  16  -26.97   75.40
 -12 -10  16  -83.68   59.02
  12   9 -16   50.88   49.92
  12   9 -16  -54.61   54.73
 -12  -9  16   11.65   66.07
 -12  -9  16   44.70   54.55
  12   8 -16  117.74   66.30
  12   8 -16   37.52   57.03
 -12  -8  16   -2.59   69.33
 -12  -8  16  165.00   63.01
  12   7 -16   20.38   52.30
  12   7 -16   25.49   45.02
 -12  -7  16   40.41   52.20
 -12  -7  16  101.77   59.21
  12   6 -16  -35.80   48.92
  12   6 -16    9.05   38.41
 -12  -6  16 -102.81   49.25
 -12  -6  16   81.70   49.74
  12   5 -16  -60.31   47.48
  12   5 -16    7.73   34.14
 -12  -5  16   54.61   44.27
 -12  -5  16  -67.24   48.90
  12   4 -16    3.41   31.54
  12   4 -16  -14.57   50.03
 -12  -4  16   16.24   48.59
 -12  -4  16   -5.25   45.74
  12   3 -16   19.48   56.20
  12   3 -16  161.81   72.60
 -12  -3  16  381.18   78.14
  12   2 -16   -9.68   25.40
 -12  -1 -16  -43.53  100.69
  12   1  16  -43.59  103.44
 -12   0 -16  843.17  164.56
  12   0  16  -24.97  163.27
  12  -1  16   84.98   87.09
  12  -2  16    5.34   87.08
  12  -3  16   79.64   99.74
 -12   4 -16   28.81   93.55
  12  -4  16  141.63   98.50
 -12   5 -16  -18.38   82.91
  12  -5  16  202.27  114.99
  12  -6  16   72.16  191.26
  12  -6  16  912.12  178.42
  13  11 -16   17.07   68.90
 -13 -11  16  -49.19   66.55
  13  10 -16   48.70   57.11
  13  10 -16 -106.72   65.91
 -13 -10  16   -5.31   61.15
 -13 -10  16    3.64   78.67
  13   9 -16  -87.96   53.57
  13   9 -16  -30.80   62.78
 -13  -9  16  160.55   60.17
 -13  -9  16    3.15   68.20
  13   8 -16  -52.88   57.89
  13   8 -16    3.07   49.11
 -13  -8  16    5.60   64.06
 -13  -8  16   11.44   55.57
  13   7 -16   71.61   58.24
  13   7 -16   73.44   50.41
 -13  -7  16   43.99   58.74
 -13  -7  16    2.51   63.19
  13   6 -16  289.08  154.52
  13   6 -16  401.77  142.97
 -13  -6  16  411.32  162.55
 -13  -6  16  433.34  156.89
  13   5 -16  -47.94   53.44
  13   5 -16  -39.02   39.98
 -13  -5  16  -22.71   52.75
 -13  -5  16   81.08   53.12
  13   4 -16    9.59   33.73
  13   4 -16   70.86   53.28
 -13  -4  16  -51.83   48.21
 -13  -4  16  -14.38   51.78
  13   3 -16    3.33   30.49
  13   3 -16  -59.55   53.75
 -13  -3  16   72.33   47.07
 -13  -3  16  -89.66   54.27
  13   2 -16  -10.72   53.24
  13   2 -16  -30.97   28.12
  13   2  16  124.15  119.62
 -13  -2  16    5.14   51.60
  13   1 -16  -56.01   30.77
 -13  -1 -16  -75.11  120.39
  13   1 -16  165.78   54.04
  13   1  16  -42.09  110.02
 -13  -1  16  123.92   52.03
 -13   0 -16  124.80  118.55
  13   0 -16   19.50   31.38
  13   0  16  138.72   74.66
  13   0  16  -66.82   94.58
 -13   1 -16  -43.85  124.28
  13  -1  16   43.14   83.26
  13  -1  16  -48.30   73.05
 -13   2 -16   14.56  106.86
 -13   2 -16   52.89  119.34
  13  -2  16  -79.75   92.33
  13  -2  16  -42.83   70.98
 -13   3 -16  -69.61  110.35
 -13   3 -16   54.63  103.29
  13  -3  16 -127.61   96.80
  13  -3  16   70.00   73.65
 -13   4 -16  162.18  106.22
 -13   4 -16  -32.26  100.09
  13  -4  16   18.86   84.80
  13  -4  16  170.47  109.84
 -13   5 -16   62.18   87.93
 -13   5 -16  -77.58   98.18
  13  -5  16  -18.14   98.58
  13  -6  16 1087.09  354.36
  14  11 -16   26.63   73.60
 -14 -11  16 -103.96   75.83
  14  10 -16  -51.79   62.68
  14  10 -16   12.60   70.70
 -14 -10  16 -152.09   91.08
 -14 -10  16 -114.30   67.75
  14   9 -16   -2.38   66.43
  14   9 -16   36.92   61.77
 -14  -9  16 -215.03   84.17
 -14  -9  16    1.83   68.56
  14   8 -16  -26.82   62.76
  14   8 -16  -16.77   57.62
 -14  -8  16 -111.86   74.99
 -14  -8  16  -88.74   61.09
  14   7 -16   51.26   60.29
  14   7 -16   36.32   50.93
 -14  -7  16   55.81   65.66
 -14  -7  16  -47.87   61.14
  14   6 -16   13.44   53.11
  14   6 -16  139.01   62.84
 -14  -6  16  162.78   66.63
 -14  -6  16   20.18   63.67
  14   5 -16   37.27   58.63
  14   5 -16   19.23   45.83
 -14  -5  16   49.02   57.99
 -14  -5  16  105.37   59.32
  14   4 -16 -161.63   63.95
  14   4 -16  -58.28   46.04
 -14  -4  16 -145.76   61.46
 -14  -4  16 -170.97   70.58
  14   3 -16    1.86   66.02
  14   3 -16  195.24   92.92
 -14  -3  16  194.70  101.83
 -14  -3  16  103.78   83.64
  14   2  16   95.95  123.37
 -14  -2  16 -148.96   64.59
 -14  -1 -16   87.16  132.62
  14   1  16 -121.49  113.23
 -14   0 -16   16.91  135.16
  14   0  16  -89.37   94.80
  14   0  16   -8.92   80.19
 -14   1 -16  -45.52  142.04
  14  -1  16   -2.12   97.50
  14  -1  16  -75.60   78.51
 -14   2 -16   15.12  141.51
 -14   2 -16 -129.36  119.18
  14  -2  16 -168.09   90.24
 -14   3 -16  381.80  182.93
 -14   3 -16  150.38  179.62
  14  -3  16  470.27  156.05
 -14   4 -16 -166.34  123.83
 -14   4 -16   -3.98  118.70
 -14   5 -16  -40.26  111.40
 -14   5 -16  -11.66  102.44
  14  -5  16  102.17  108.41
  14  -5  16  116.04  136.52
 -14   6 -16  -18.26  125.40
 -14   6 -16  -23.01   94.63
  14  -6  16   62.96  125.99
  14  -6  16 -129.74  155.42
  15  11 -16    2.89   80.45
 -15 -11  16   37.75   77.44
  15  10 -16  193.38   80.68
 -15 -10  16  -97.78   93.08
 -15 -10  16  -92.01   73.88
 -15  -9  16   15.91   71.67
 -15  -9  16  145.17   89.33
 -15  -8  16    3.47   77.88
  15   2  16   51.70  127.46
 -15  -1 -16   -4.86  143.87
  15   1  16   53.87   87.36
  15   1  16 -118.52  112.59
 -15   0 -16  -23.82  155.54
  15   0  16  -87.42   88.37
  15   0  16  -25.04   97.75
 -15   1 -16  -31.02  134.80
 -15   1 -16   -4.71  153.73
  15  -1  16   65.99   86.59
  15  -1  16  -37.29  102.65
 -15   2 -16  -30.40  151.96
 -15   2 -16  -49.22  130.70
  15  -2  16    3.79  110.16
  15  -2  16  -18.77   87.94
 -15   3 -16   -4.50  122.43
 -15   3 -16 -173.78  148.70
  15  -3  16    2.53  111.76
  15  -3  16  166.07   94.60
 -15   4 -16   83.82  140.50
 -15   4 -16  207.86  125.50
  15  -4  16  164.64  143.35
  15  -4  16   30.17  110.93
 -15   5 -16   94.55  109.78
 -15   5 -16 -174.94  137.95
  15  -5  16  123.75  144.22
  15  -5  16   11.01  114.29
 -15   6 -16   30.21  107.94
 -15   6 -16  -58.87  142.63
  15  -6  16   80.20  167.26
  15  -6  16  215.56  136.88
  16   2  16   23.56  133.13
 -16  -1 -16    5.45  165.39
  16   1  16  112.61   96.92
  16   1  16  -77.78  115.34
 -16   0 -16   59.44  170.29
  16   0  16 -215.64  103.17
  16   0  16  -59.06  117.57
 -16   1 -16  -43.11  182.88
 -16   1 -16  -93.06  146.09
  16  -1  16  -77.96  118.12
  16  -1  16   -6.60  103.09
 -16   2 -16   -5.00  179.98
 -16   2 -16   34.80  146.64
  16  -2  16  150.40  106.40
  16  -2  16   41.71  123.63
 -16   3 -16  174.73  137.60
 -16   3 -16   22.37  168.92
  16  -3  16   51.96  129.67
  16  -3  16   50.64  106.89
 -16   4 -16 -273.62  196.24
 -16   4 -16 -271.46  154.75
 -16   6 -16   -8.11  166.97
 -16   6 -16   29.14  116.82
  16  -6  16 -424.79  150.05
  16  -7  16  349.21  228.40
  16  -7  16  210.45  210.39
  17   2  16 -226.41  148.13
 -17  -1 -16  -49.38  188.56
 -17   0 -16 -203.51  201.17
 -17   0 -16  267.82  169.33
 -17   1 -16 -111.37  215.07
 -17   1 -16   21.64  157.09
 -17   2 -16  -52.01  209.03
 -17   2 -16   21.98  160.32
  17  -2  16 -249.17  125.03
  17  -2  16 -208.27  144.38
 -17   3 -16  104.14  151.00
 -17   3 -16  209.97  208.04
  17  -3  16 -199.85  143.89
  17  -3  16  134.79  122.35
 -17   4 -16 -155.44  195.51
 -17   4 -16  103.96  146.55
  17  -4  16  -30.13  130.93
  17  -4  16  189.24  166.83
 -17   5 -16  -19.54  195.47
 -17   5 -16 -178.58  136.11
  17  -5  16   13.37  138.80
  17  -5  16 -199.68  185.84
 -17   6 -16   43.80  137.56
 -17   6 -16   36.81  186.41
  17  -6  16  124.08  164.75
  17  -6  16  274.28  213.13
 -17   7 -16  184.88  206.27
 -17   7 -16  205.52  139.30
  17  -7  16  188.69  187.49
  17  -7  16  -13.82  213.24
  18   2  16   60.66  144.24
 -18  -1 -16   77.38  214.73
  18   1  16   66.30  123.67
  18   1  16  -15.85  136.18
 -18   0 -16  -11.85  172.89
 -18   0 -16 -127.27  228.92
  18   0  16  130.78  142.81
  18   0  16   90.14  127.20
 -18   1 -16  162.15  176.41
 -18   1 -16  114.04  241.23
  18  -1  16  -50.44  130.52
  18  -1  16  -91.64  143.17
 -18   2 -16  -66.58  171.01
 -18   2 -16 -641.56  268.22
  18  -2  16 -110.98  129.74
  18  -2  16  -13.19  146.18
 -18   3 -16   84.42  164.01
 -18   3 -16   64.06  232.44
  18  -3  16   13.62  132.80
  18  -3  16   21.44  167.41
 -18   4 -16  143.78  159.68
 -18   4 -16  173.48  231.07
  18  -4  16   62.91  187.46
  18  -4  16 -112.17  141.71
 -18   5 -16  -61.68  215.76
 -18   5 -16   -5.98  149.09
  18  -5  16  -74.98  153.02
  18  -5  16   -2.58  209.78
 -18   6 -16 -152.03  150.27
 -18   6 -16 -293.25  221.85
  18  -6  16  271.43  167.38
  18  -6  16  -22.82  226.73
 -18   7 -16 -170.10  229.37
  18  -7  16 -164.49  186.77
   0   1 -17  586.00  201.12
   0   1 -17  383.63  177.08
   0  -1  17  728.99  199.74
   1   1 -17    2.93   12.63
  -1   1 -17   -4.63   10.97
   1   1 -17   -1.70   37.33
   1  -1  17   -7.57   27.62
  -1  -1  17   -5.47   29.18
   2   1 -17  -20.64   38.24
  -1   2 -17   10.82   35.35
  -1   2 -17    2.05   12.15
   2   1 -17   -1.58   13.60
   1  -2  17    5.90   29.32
  -2  -1  17    5.58   29.72
   0   2 -17  -57.43   37.86
   0   2 -17   -5.01   11.80
   0  -2  17   -1.99   29.10
   1   2 -17    8.97   33.39
  -2   1 -17    1.26   10.62
   1   2 -17   -2.99   13.22
  -1  -2  17    2.01   28.82
  -2   2 -17    5.22   11.26
  -2   2 -17   -4.77   38.05
   2   2 -17   -1.57   14.08
   2   2 -17   -7.53   35.03
  -2  -2  17   23.66   29.13
   2  -2  17   -0.99   28.80
  -2   3 -17  246.14  100.39
   3   2 -17  287.37   98.94
   3   2 -17  300.43   83.53
  -2   3 -17  221.72   86.56
   2  -3  17  242.56   97.30
  -3  -2  17  253.02   97.25
   3   1 -17   50.53   23.36
  -1   3 -17   53.77   40.27
  -1   3 -17   85.58   23.39
   3   1 -17   40.08   45.29
  -3  -1  17   40.03   36.26
   1  -3  17   53.87   34.31
   0   3 -17   78.84   25.09
   3   0 -17   27.40   25.80
   0   3 -17   59.97   41.43
   0  -3  17   95.29   36.40
  -3   1 -17   15.51   19.95
   1   3 -17   72.15   21.16
   1   3 -17   69.39   39.17
  -1  -3  17   80.31   33.15
  -3   2 -17  204.40   77.56
   2   3 -17  220.58   87.38
  -3   2 -17  153.01   95.68
   2   3 -17  247.58   74.50
   3  -2  17  189.58   91.98
  -2  -3  17  271.14   86.16
  -3   3 -17   -1.92   11.52
  -3   3 -17   11.23   36.22
   3   3 -17  -15.85   32.54
   3   3 -17   -5.03   12.94
   3  -3  17   12.61   29.31
  -3  -3  17   -7.65   28.98
  -3   4 -17  116.84   67.91
  -3   4 -17  169.31   56.70
   4   3 -17  175.12   54.30
   4   3 -17  128.50   65.82
  -4  -3  17  206.92   65.06
   3  -4  17  155.65   64.91
  -2   4 -17  361.83  139.13
   4   2 -17  307.48  151.70
  -2   4 -17  456.35  152.34
   4   2 -17  516.83  131.46
   2  -4  17  391.55  148.84
  -4  -2  17  378.55  152.18
   4   1 -17   67.56   37.38
   4   1 -17   88.70   57.08
  -1   4 -17  116.14   48.16
  -1   4 -17  119.35   38.23
   1  -4  17  142.75   45.56
  -4  -1  17  149.05   51.54
   0   4 -17   10.44   13.15
   0   4 -17   -3.38   29.73
  -4   0  17  -13.95   31.33
   0  -4  17    1.59   25.27
   1   4 -17  180.77   45.62
   1   4 -17  148.60   36.04
  -4   1 -17   30.41   35.15
   4  -1  17   28.15   55.87
  -1  -4  17  148.43   44.24
   2   4 -17  425.51  135.56
  -4   2 -17  320.38  140.69
   2   4 -17  476.15  145.12
   4  -2  17  438.76  158.12
  -2  -4  17  404.10  145.43
   3   4 -17  173.98   60.44
  -4   3 -17  145.12   52.85
   3   4 -17  136.91   51.29
  -4   3 -17  109.32   71.33
  -3  -4  17  104.90   59.09
   4  -3  17  217.21   65.05
  -4   4 -17    9.95   13.80
   4   4 -17   -9.51   16.82
  -4   4 -17  -17.19   35.00
   4   4 -17   10.97   30.79
   4  -4  17    4.64   15.02
   4  -4  17   -8.09   27.57
  -4  -4  17   10.96   27.73
   5   4 -17  -22.80   40.67
  -4   5 -17   18.47   32.65
  -4   5 -17   52.00   18.09
   4  -5  17   51.72   28.29
   4  -5  17   40.94   19.83
  -5  -4  17  -64.18   35.90
  -3   5 -17  298.73  111.27
   5   3 -17  280.95  107.37
  -3   5 -17  336.53   99.65
   3  -5  17  299.39  107.10
  -5  -3  17  251.16  107.54
   3  -5  17  201.52   97.74
   5   2 -17   32.07   41.64
  -2   5 -17   33.73   32.60
  -2   5 -17   48.14   20.44
  -5  -2  17   38.92   36.58
   2  -5  17   39.54   22.72
   2  -5  17   22.22   28.86
  -1   5 -17  140.00   63.65
  -1   5 -17  214.22   56.33
   5   1 -17  132.53   71.32
   1  -5  17  169.20   60.99
  -5  -1  17  121.90   68.46
   1  -5  17  160.42   56.65
   5   0 -17   -1.01   16.72
   0   5 -17    4.24   26.71
   0   5 -17    1.89   16.45
   0  -5  17    2.22   23.86
   0  -5  17    1.66   19.54
  -5   0  17   -9.23   32.87
   5   0  17    1.79   47.45
   1   5 -17  220.41   59.57
  -5   1 -17   68.58   59.42
   1   5 -17  279.90   66.45
  -1  -5  17  205.85   61.06
  -1  -5  17  199.65   63.38
   5  -1  17   94.39   80.57
  -5   2 -17   28.33   18.18
   2   5 -17   45.10   32.84
   2   5 -17   68.65   22.06
   5  -2  17  -27.07   57.32
  -2  -5  17   41.24   28.73
  -2  -5  17   58.60   26.22
   3   5 -17  353.93  112.17
   3   5 -17  388.61  105.82
  -3  -5  17  281.55  109.22
  -3  -5  17  256.99  112.03
   4   5 -17  -54.87   34.78
   4   5 -17   18.95   18.54
  -4  -5  17  -56.07   33.86
  -4  -5  17   26.74   27.13
   6   5 -17    3.68   21.24
   6   5 -17  -23.06   35.88
  -6  -5  17  -18.20   30.77
  -6  -5  17  -15.59   32.60
  -4   6 -17   70.88   37.78
   6   4 -17   27.77   42.01
  -4   6 -17   96.90   28.15
   6   4 -17   43.12   27.47
   4  -6  17   88.62   29.72
  -6  -4  17  -14.31   41.89
   4  -6  17   92.15   33.10
  -3   6 -17   20.85   19.09
   6   3 -17  -20.37   41.59
   6   3 -17  -12.68   19.21
  -3   6 -17  -18.61   32.62
   3  -6  17    5.43   25.11
   3  -6  17   -1.66   20.44
  -6  -3  17  -16.45   35.15
   6   2 -17  280.20   85.98
  -2   6 -17  297.91  103.59
   6   2 -17  195.54  106.49
  -2   6 -17  312.40   94.35
   2  -6  17  232.37   93.66
   2  -6  17  272.75   99.31
  -6  -2  17  161.04  108.11
  -1   6 -17    9.28   28.52
   6   1 -17   10.03   17.34
  -1   6 -17    1.13   18.90
   6   1 -17   11.20   44.75
  -6  -1  17  -27.08   35.67
   1  -6  17   12.03   23.38
   1  -6  17    1.78   21.19
   6   0 -17   -4.26   17.03
   0   6 -17    5.94   20.02
   0   6 -17   -2.09   28.25
   0  -6  17    2.19   24.16
   6   0  17   60.57   53.19
   0  -6  17  -15.99   22.83
  -6   0  17   -9.65   35.76
   1   6 -17   -2.13   29.34
   1   6 -17    5.95   20.52
  -1  -6  17   21.93   24.72
   6  -1  17   15.56   56.51
  -1  -6  17   10.90   22.81
   2   6 -17  439.47  122.11
   2   6 -17  404.82  117.68
  -2  -6  17  332.12  119.26
  -2  -6  17  289.19  121.04
   3   6 -17  -40.53   37.68
   4   6 -17  -73.05   34.64
   4   6 -17  -61.75   39.67
  -4  -6  17  -37.93   44.53
   5   6 -17  -26.87   26.20
   5   6 -17    2.42   34.55
  -5  -6  17  -83.19   31.57
  -5  -6  17  -13.71   31.53
   6   6 -17   84.57   28.68
   6   6 -17  -12.91   36.77
  -6  -6  17    0.96   33.92
   7   5 -17   13.60   40.76
   7   5 -17   66.06   29.64
  -7  -5  17  -14.67   39.80
  -7  -5  17  194.27   37.66
  -4   7 -17    2.98   32.00
   7   4 -17   10.02   20.98
  -4   7 -17   27.60   23.68
   7   4 -17   -1.40   38.55
  -7  -4  17   39.01   35.93
  -3   7 -17  260.52  127.53
   7   3 -17  333.75  105.68
   7   3 -17  320.68  123.00
  -3   7 -17  299.05  114.36
   3  -7  17  286.39  115.40
   3  -7  17  376.29  122.10
  -7  -3  17  308.44  125.81
   7   2 -17  -37.88   42.73
  -2   7 -17   12.56   23.06
   7   2 -17  -23.01   20.43
  -2   7 -17   21.26   27.08
   2  -7  17  -12.48   24.88
   2  -7  17    0.69   25.31
  -7  -2  17    1.27   38.71
   7   1 -17   48.21   60.27
  -1   7 -17  132.81   44.36
  -1   7 -17  111.68   48.41
   7   1 -17  133.75   39.94
   1  -7  17   94.80   46.57
  -7  -1  17  115.30   57.59
   1  -7  17   72.84   45.74
   0   7 -17   22.31   28.81
   0   7 -17   -9.85   25.45
   7   0 -17    1.15   20.11
   0  -7  17    5.90   27.46
  -7   0  17   -2.89   38.78
   0  -7  17   -5.43   28.54
   7   0  17  165.06   60.52
   1   7 -17  104.61   52.09
   1   7 -17  162.93   48.29
   7  -1  17  218.57   79.36
  -1  -7  17   91.27   50.36
  -1  -7  17   95.60   51.05
   2   7 -17  -19.12   30.72
   2   7 -17    4.44   27.41
  -7   2 -17   34.49   64.06
   7  -2  17  -11.09   44.89
  -2  -7  17    1.19   28.91
  -2  -7  17  -65.70   30.28
   7  -2  17  -38.52   58.00
   3   7 -17  404.62  113.90
   3   7 -17  447.28  118.72
   7  -3  17  290.64  116.70
   7  -3  17  139.47  134.21
  -3  -7  17  305.82  117.35
  -3  -7  17  418.35  118.67
   4   7 -17   -5.83   33.34
   4   7 -17   59.08   29.26
  -4  -7  17    3.48   30.65
  -4  -7  17    1.32   33.51
   5   7 -17   -4.87   25.43
   5   7 -17    1.21   34.65
  -5  -7  17    1.85   31.55
  -5  -7  17   -1.40   30.09
   7   7 -17   21.46   30.88
  -7  -7  17  -56.50   41.72
   8   7 -17   -5.87   34.16
   8   7 -17   30.97   42.38
  -8  -7  17  -14.56   38.29
  -8  -7  17    1.72   43.10
   8   6 -17  -11.55   30.24
  -8  -6  17  -69.05   40.04
   8   4 -17    8.90   40.64
   8   4 -17   -2.45   17.52
  -8  -4  17   29.20   38.36
  -3   8 -17   59.15   33.73
   8   3 -17  102.29   46.65
  -3   8 -17   21.48   29.63
   8   3 -17   60.38   26.16
  -8  -3  17   47.22   43.60
   3  -8  17   41.34   34.13
   3  -8  17   54.13   31.82
  -2   8 -17  108.96   45.49
   8   2 -17   93.23   61.12
   8   2 -17  162.83   41.21
  -2   8 -17   72.53   49.57
   2  -8  17   91.81   48.75
  -8  -2  17  110.14   58.22
   2  -8  17  106.60   49.00
   8   1 -17  -15.98   48.64
  -1   8 -17    5.00   26.05
  -1   8 -17   17.89   27.52
   8   1 -17   37.14   22.25
   1  -8  17    2.34   26.97
   1  -8  17   -6.34   29.27
  -8  -1  17  -18.60   40.85
   0   8 -17   30.38   28.77
   8   0 -17   -1.23   21.18
   0   8 -17   17.23   28.60
   0  -8  17   38.76   27.43
   0  -8  17   34.72   30.43
  -8   0  17  -70.05   42.02
   8   0  17  -31.66   71.13
   1   8 -17    6.78   27.73
   1   8 -17   21.78   28.90
  -8   1 -17   -2.42   72.68
  -1  -8  17   -8.36   27.89
   8  -1  17   24.16   70.66
  -1  -8  17    5.26   30.31
   2   8 -17  128.96   46.91
   2   8 -17  160.66   45.92
  -8   2 -17   38.77   79.18
  -2  -8  17   81.96   46.63
   8  -2  17   76.94   71.37
   8  -2  17   58.81   58.28
  -2  -8  17  135.44   49.12
  -8   3 -17   -1.79   65.64
   3   8 -17   15.91   30.90
   3   8 -17   86.51   33.79
  -3  -8  17   29.81   33.84
   8  -3  17   26.77   45.64
  -3  -8  17    0.89   32.13
   8  -3  17   -5.89   56.55
   4   8 -17   16.33   32.91
  -4  -8  17    8.37   30.47
   6   8 -17    3.94   28.58
   7   8 -17  -29.81   37.18
   7   8 -17  -14.83   36.49
  -7  -8  17  -14.37   44.99
  -7  -8  17   49.90   37.10
   8   8 -17  -24.52   38.26
   8   8 -17   14.95   41.59
  -8  -8  17   11.64   39.95
  -8  -8  17   32.59   50.31
   9   8 -17  242.28   47.76
   9   8 -17  107.22   50.38
  -9  -8  17  -35.80   47.23
  -9  -8  17    2.05   54.31
   9   7 -17  -98.61   45.07
   9   7 -17   24.81   35.88
  -9  -7  17   60.50   41.43
  -9  -7  17    1.85   47.39
   9   6 -17  -69.32   37.68
   9   6 -17  -85.07   46.35
  -9  -6  17  -58.17   46.61
  -9  -6  17  -75.44   44.55
   9   5 -17    3.04   27.22
  -9  -5  17  -16.64   37.73
   9   3 -17   63.33   52.13
  -3   9 -17   58.19   39.13
   3  -9  17   66.02   44.58
  -9  -3  17   95.55   49.80
   9   2 -17    5.68   48.55
  -2   9 -17    3.83   28.08
  -2   9 -17    7.25   31.21
   2  -9  17  -18.79   35.44
  -9  -2  17   18.56   45.57
  -1   9 -17   -5.72   28.91
  -1   9 -17    2.11   28.80
   9   1 -17    2.07   45.22
   9   1 -17   -9.89   23.84
   9   1  17  -68.75   77.88
  -9  -1  17   27.36   42.48
   1  -9  17   -1.52   32.71
   9   0 -17   22.41   24.22
   0   9 -17   39.77   30.14
   0   9 -17  -13.37   29.09
   0  -9  17   28.66   34.06
  -9   0  17   62.63   44.92
   9   0  17  -71.33   81.13
   1   9 -17   41.45   32.51
  -9   1 -17   20.45   79.80
   1   9 -17   27.61   30.99
  -1  -9  17  -12.49   36.01
   9  -1  17  100.05   77.00
   9  -1  17   86.21   53.42
  -9   2 -17    9.28   80.04
   2   9 -17   -4.00   30.10
   2   9 -17   -1.12   31.42
   9  -2  17    4.94   68.57
   9  -2  17   16.39   51.73
  -9   3 -17   50.00   71.17
  -9   3 -17   73.05   73.12
   9  -3  17   75.13   52.19
   9  -3  17   72.73   68.89
   4   9 -17  -44.40   34.69
  -4  -9  17   22.68   43.18
   5   9 -17   -8.83   31.60
   5   9 -17    6.33   34.74
  -5  -9  17    5.40   40.06
  -5  -9  17    1.07   35.12
   6   9 -17    1.36   38.64
  -6  -9  17  -18.90   39.92
   7   9 -17    1.43   39.92
   7   9 -17   33.89   37.48
  -7  -9  17   -2.03   48.94
  -7  -9  17   17.42   39.35
   8   9 -17    1.56   43.10
   8   9 -17   71.25   41.89
  -8  -9  17    3.69   41.37
  -8  -9  17   -2.16   52.82
   9   9 -17  -81.38   46.87
   9   9 -17   34.85   39.98
  -9  -9  17   20.97   44.60
  -9  -9  17   59.99   54.39
  10   9 -17  136.30   50.35
  10   9 -17    7.19   50.41
 -10  -9  17  -81.07   60.45
 -10  -9  17    4.23   48.97
  10   8 -17    3.52   51.64
  10   8 -17   82.10   43.89
 -10  -8  17   43.19   46.60
 -10  -8  17    2.26   51.46
  10   7 -17    2.19   39.06
  10   7 -17 -107.66   48.42
 -10  -7  17   48.63   44.63
 -10  -7  17   11.89   49.75
  10   6 -17   62.23   46.38
  10   6 -17  -15.52   34.20
 -10  -6  17    1.79   43.01
 -10  -6  17   -3.91   44.63
  10   5 -17  -20.27   30.48
  10   5 -17  -85.02   50.55
 -10  -5  17 -153.12   47.29
 -10  -5  17  -73.76   49.33
  10   4 -17  -23.01   26.70
 -10  -4  17    6.10   39.21
  -3  10 -17  106.43   55.97
  -2  10 -17   64.56   37.16
  -1  10 -17  -69.23   32.39
  10   1 -17  -12.83   50.00
  10   1  17  -33.81   91.49
   1 -10  17   -5.82   39.94
 -10  -1  17    8.05   47.03
 -10   0 -17  -27.00   84.84
   0  10 -17   12.59   32.39
  10   0  17   58.35   84.01
   0 -10  17   68.49   41.37
 -10   1 -17   38.50   86.07
  10  -1  17 -113.46   56.99
  10  -1  17   -8.82   83.94
 -10   2 -17   32.13   87.31
  10  -2  17   20.74   58.40
  10  -2  17   22.41   69.80
 -10   3 -17   46.63   88.02
 -10   3 -17  104.29   85.70
   3  10 -17   97.99   45.62
  -3 -10  17    1.93   52.67
  10  -3  17  -40.30   81.88
  10  -3  17   86.39   61.67
   4  10 -17    1.30   34.26
   4  10 -17   43.60   36.19
  -4 -10  17    2.02   45.84
   5  10 -17   -4.92   38.71
   5  10 -17    2.69   36.11
  -5 -10  17   -6.37   49.88
   6  10 -17    1.40   37.96
   7  10 -17   98.45   42.84
   7  10 -17   51.14   48.56
  -7 -10  17   32.04   45.67
  -7 -10  17   27.66   54.39
   8  10 -17   -1.61   43.20
   8  10 -17   67.82   44.80
  -8 -10  17   24.10   44.20
  -8 -10  17 -105.43   54.90
   9  10 -17  175.48   52.47
   9  10 -17   44.52   48.85
  -9 -10  17  105.40   63.76
  -9 -10  17  -23.88   50.00
  10  10 -17    3.76   51.84
  10  10 -17  -77.20   46.70
 -10 -10  17    5.79   66.46
 -10 -10  17  -68.70   51.11
  11  10 -17  -40.83   54.16
  11  10 -17    2.06   57.63
 -11 -10  17   70.22   55.86
 -11 -10  17   27.96   67.19
  11   9 -17    9.21   49.92
  11   9 -17  -96.16   54.70
 -11  -9  17  -32.71   66.49
 -11  -9  17  -91.61   52.74
  11   8 -17    2.75   49.11
  11   8 -17    1.91   51.02
 -11  -8  17   16.09   50.43
 -11  -8  17   38.94   58.42
  11   7 -17   50.81   42.50
  11   7 -17   23.56   49.97
 -11  -7  17  110.72   56.38
 -11  -7  17   14.09   48.52
  11   6 -17  111.08   49.88
  11   6 -17    2.07   37.37
 -11  -6  17   47.19   47.96
 -11  -6  17  -47.51   49.27
  11   5 -17  -23.57   33.94
  11   5 -17   21.13   49.96
 -11  -5  17   92.70   49.31
 -11  -5  17   90.71   48.00
  11   4 -17   20.08   52.45
  11   4 -17   43.12   33.96
 -11  -4  17   16.00   50.93
 -11  -4  17   84.46   46.37
  11   3 -17   29.67   33.71
  11   3 -17   97.57   55.62
  -3  11 -17   27.24   38.23
 -11  -3  17  233.00   54.92
  11   2 -17  -37.85   26.63
  -2  11 -17  -71.99   34.30
   1  11 -17   -1.25   35.27
 -11   1 -17    9.01  103.58
   2  11 -17    1.29   34.50
 -11   2 -17  -49.56  103.82
  -2 -11  17    2.31   47.97
  11  -2  17  -59.53   66.41
 -11   3 -17  366.14   87.54
 -11   3 -17   -9.46   88.55
   3  11 -17  -65.61   36.57
  -3 -11  17  -46.11   47.02
  11  -3  17 -192.28   65.70
 -11   4 -17   22.85   79.81
   4  11 -17   46.16   41.27
 -11   4 -17  171.70   78.91
  11  -4  17   23.56   66.83
  -4 -11  17   -2.41   52.06
   5  11 -17  -36.61   39.85
  -5 -11  17  -45.35   53.03
   6  11 -17    1.53   40.78
  -6 -11  17   15.92   55.94
   7  11 -17   30.09   42.73
   7  11 -17 -141.65   41.95
  -7 -11  17    2.69   58.57
   8  11 -17    5.04   45.24
   8  11 -17    6.31   45.26
  -8 -11  17   -2.86   61.34
   9  11 -17   -6.63   46.71
   9  11 -17 -124.04   49.92
  -9 -11  17   69.66   52.59
  -9 -11  17   31.78   68.68
  10  11 -17  -29.30   52.26
  10  11 -17    3.50   53.41
 -10 -11  17   11.35   53.38
 -10 -11  17  -20.39   72.29
  11  11 -17  -38.69   56.77
 -11 -11  17  -34.45   57.09
 -11 -11  17   18.22   73.83
  12  11 -17 -186.14   72.92
 -12 -11  17  -79.07   73.55
 -12 -11  17 -223.36   91.99
  12  10 -17    7.22   58.13
  12  10 -17 -136.96   65.87
 -12 -10  17    3.35   74.17
 -12 -10  17    3.45   59.13
  12   9 -17   -3.26   52.95
  12   9 -17  -34.17   56.51
 -12  -9  17  -38.22   69.95
 -12  -9  17    1.64   55.48
  12   8 -17 -131.55   49.48
  12   8 -17 -123.53   58.83
 -12  -8  17   49.36   55.05
 -12  -8  17   15.76   62.46
  12   7 -17  115.93   61.81
  12   7 -17   79.89   70.28
 -12  -7  17  267.22   72.60
 -12  -7  17   21.49   66.80
  12   6 -17   30.39   51.82
  12   6 -17 -100.46   41.39
 -12  -6  17  -72.90   51.86
 -12  -6  17   78.89   51.84
  12   5 -17    2.03   37.13
  12   5 -17   64.79   51.39
 -12  -5  17   17.56   47.24
 -12  -5  17  -53.54   51.76
  12   4 -17  -73.11   54.60
  12   4 -17  -24.12   31.47
 -12  -4  17  154.26   52.28
 -12  -4  17    1.82   44.74
  12   3 -17   41.09   29.94
  12   3 -17    6.25   51.47
 -12  -3  17  -26.28   53.43
  12   2 -17   40.96   29.68
  12   2 -17   50.62   57.33
 -12  -2  17   23.86   55.19
  12   1 -17  102.07   72.71
  12   1 -17   95.15   48.01
  12   1  17  137.58  113.34
 -12  -1  17  118.43   77.43
 -12   0 -17   52.27  105.86
  12   0 -17   -9.92   30.07
  12   0  17    3.24   97.75
  12   0  17  -26.07   69.86
 -12   1 -17  531.96  201.04
  12  -1  17  605.98  179.71
 -12   2 -17  471.18  167.21
 -12   3 -17   78.77   98.96
  12  -3  17   98.14   91.74
 -12   4 -17  -16.16   90.66
  12  -4  17   70.34   89.04
  13  11 -17  -67.68   72.72
 -13 -11  17   80.14   88.53
 -13 -11  17    1.98   67.97
  13  10 -17  383.30  125.47
  13  10 -17  342.22  132.43
 -13 -10  17  156.49  132.17
 -13 -10  17  512.85  150.01
  13   9 -17  -32.42   63.60
  13   9 -17  -14.19   56.63
 -13  -9  17    1.79   61.04
 -13  -9  17    3.27   73.87
  13   8 -17  -51.65   50.71
  13   8 -17    2.18   60.91
 -13  -8  17    5.19   60.05
 -13  -8  17  -43.54   68.77
  13   7 -17    2.10   59.58
  13   7 -17   -2.86   48.45
 -13  -7  17  142.80   64.10
 -13  -7  17   28.42   58.96
  13   6 -17   32.83   58.92
  13   6 -17  -91.55   48.84
 -13  -6  17  -42.88   58.82
 -13  -6  17 -145.91   60.07
  13   5 -17  353.63  173.91
  13   5 -17  576.68  198.10
 -13  -5  17  412.30  211.84
 -13  -5  17  468.58  192.98
  13   4 -17    2.14   57.09
  13   4 -17  -69.78   37.99
 -13  -4  17  -98.65   51.22
 -13  -4  17    1.71   58.15
  13   3 -17  -98.33   33.27
  13   3 -17  -26.56   57.51
 -13  -3  17   56.31   47.80
 -13  -3  17   35.09   54.93
  13   2 -17   44.24   38.85
  13   2 -17  141.65   64.27
 -13  -2  17   79.70   60.82
  13   1 -17   19.42   30.10
 -13  -1 -17   16.15  109.21
  13   1  17 -106.66  108.60
 -13  -1  17  -13.27   53.30
 -13   0 -17   -3.84  116.72
  13   0 -17   45.13   39.33
  13   0  17  154.01   79.45
  13   0  17   16.78  100.64
 -13   1 -17  -66.89  124.12
  13  -1  17  -69.76   80.49
  13  -1  17  -45.30   73.93
 -13   2 -17  -10.53  124.79
 -13   2 -17   44.16  110.99
  13  -2  17  140.00   91.40
  13  -2  17 -135.60   75.18
 -13   3 -17  -61.99  118.83
 -13   3 -17    7.37  104.64
  13  -3  17  -27.60   96.24
  13  -3  17  -71.45   74.71
 -13   4 -17   -8.31  104.88
 -13   4 -17  -25.37  101.56
  13  -4  17 -138.04   83.44
  13  -5  17 3650.73 1054.08
  14  11 -17   13.69   78.53
 -14 -11  17   -4.72   94.68
 -14 -11  17  -58.44   72.90
  14  10 -17    4.17   64.29
  14  10 -17    7.95   72.91
 -14 -10  17  -12.25   72.64
 -14 -10  17    8.16   88.56
  14   9 -17 -204.66   81.96
 -14  -9  17   48.52   73.03
 -14  -9  17 -311.10   90.13
  14   8 -17   13.76   58.85
  14   8 -17   -2.35   65.45
 -14  -8  17 -152.15   68.04
 -14  -8  17 -169.60   76.07
  14   7 -17  -70.25   53.31
  14   7 -17    4.52   62.08
 -14  -7  17   -2.89   68.20
 -14  -7  17  -61.64   63.35
  14   6 -17   84.45   50.97
  14   6 -17   68.83   65.30
 -14  -6  17    2.55   61.88
 -14  -6  17   34.05   64.58
  14   5 -17   -2.45   42.00
  14   5 -17 -112.10   63.04
 -14  -5  17  -48.46   60.93
 -14  -5  17  -65.18   58.96
  14   4 -17   -2.26   60.79
  14   4 -17   -4.36   40.40
 -14  -4  17   36.47   60.03
 -14  -4  17  -34.67   52.51
  14   3 -17  -39.27   35.81
  14   3 -17  -57.90   62.10
 -14  -3  17  -39.00   59.27
 -14  -3  17    2.04   52.93
  14   2 -17  -98.10   62.65
  14   2 -17   16.54   34.81
 -14  -2  17   11.53   59.13
  14   1 -17   78.12   47.36
 -14  -1 -17   30.99  127.54
  14   1  17  225.52  124.54
 -14  -1  17   65.66   76.07
 -14   0 -17  -25.61  159.98
  14   0  17  239.37  109.64
  14   0  17  216.01  132.16
 -14   1 -17 -157.82  163.62
  14  -1  17  268.06  126.41
  14  -1  17  450.72  118.32
 -14   2 -17 -115.99  139.24
 -14   2 -17  -32.66  118.93
 -14   3 -17   67.62  134.21
 -14   3 -17    4.10  118.12
 -14   4 -17   52.29  107.53
 -14   4 -17  -99.27  125.07
  14  -4  17   44.60   88.05
  14  -4  17  -75.26  111.55
 -14   5 -17  -82.37  116.33
 -14   5 -17  -19.50  102.17
  14  -5  17  -99.28  101.58
  14  -5  17   92.14  136.26
  15  11 -17 -157.37   87.00
 -15 -11  17  -21.02   82.08
  15  10 -17  -44.83   81.69
  15  10 -17  -22.18   68.72
 -15 -10  17  154.75   79.20
 -15 -10  17   41.46   96.81
  15   9 -17  -40.03   75.32
  15   9 -17 -127.82   64.55
 -15  -9  17  -16.83   73.56
 -15  -9  17  -98.83   88.16
  15   8 -17   30.05   64.38
  15   8 -17  133.49   72.20
 -15  -8  17  217.33   74.92
 -15  -8  17 -244.04   82.24
 -15  -7  17 -128.52   86.68
 -15  -7  17 -207.82   83.53
 -15  -6  17   19.70   68.33
 -15  -1 -17   -9.82  147.28
  15   1  17    1.29  113.36
 -15   0 -17 -100.61  151.26
  15   0  17  -42.88   93.76
  15   0  17  182.53  105.13
 -15   1 -17    4.47  135.65
 -15   1 -17  103.65  157.88
  15  -1  17  -66.21   89.60
  15  -1  17 -240.16  106.53
 -15   2 -17    4.52  129.54
 -15   2 -17 -320.26  161.56
  15  -2  17   84.86   93.43
  15  -2  17  -73.69  113.79
 -15   3 -17 -106.78  150.47
 -15   3 -17   27.28  127.75
  15  -3  17 -100.55   93.35
  15  -3  17 -125.90  119.57
 -15   4 -17   53.57  122.41
 -15   4 -17  284.93  142.31
  15  -4  17 -119.84  130.18
  15  -4  17 -143.42   98.21
 -15   5 -17 -115.24  149.34
 -15   5 -17  153.35  131.01
  15  -5  17   99.61  126.52
  15  -5  17  475.80  158.37
 -16  -1 -17   71.44  166.40
  16   1  17   -6.55  118.01
 -16   0 -17  -75.86  172.01
  16   0  17   -4.56  100.98
  16   0  17   71.40  105.76
 -16   1 -17 -311.68  181.57
 -16   1 -17 -103.66  148.55
  16  -1  17 -191.76  120.89
  16  -1  17  -67.82  102.63
 -16   2 -17  110.28  151.50
 -16   2 -17 -441.64  205.46
  16  -2  17  -99.99  107.27
 -16   3 -17 -362.52  192.98
 -16   3 -17 -639.47  233.33
 -16   4 -17  313.37  190.61
 -16   5 -17 -217.71  130.83
 -16   5 -17   16.59  160.97
  16  -6  17   93.96  193.57
 -17  -1 -17   49.63  179.18
  17   1  17  -17.27  116.58
 -17   0 -17  -30.83  191.42
  17   0  17  160.18  126.37
  17   0  17  -25.55  116.82
 -17   1 -17  -98.02  160.56
 -17   1 -17  -74.50  212.69
  17  -1  17   84.91  132.31
  17  -1  17   14.79  111.99
 -17   2 -17  110.70  157.12
 -17   2 -17 -291.12  211.83
  17  -2  17   12.10  132.76
  17  -2  17   63.70  117.63
 -17   3 -17 -117.53  221.70
 -17   3 -17 -105.60  154.18
  17  -3  17 -129.97  142.74
  17  -3  17  -14.26  118.39
 -17   4 -17  -27.55  140.53
 -17   4 -17   26.43  193.48
  17  -4  17   38.39  163.62
  17  -4  17   39.15  123.81
 -17   5 -17 -241.90  202.72
 -17   5 -17  206.11  134.95
  17  -5  17  250.99  178.10
  17  -5  17 -203.22  137.45
  17  -6  17  -25.47  144.69
  17  -6  17  110.31  204.39
 -18  -1 -17 -338.60  201.46
  18   1  17  -53.35  136.51
 -18   0 -17 -134.14  227.55
 -18   0 -17  -41.72  181.05
  18   0  17  -68.65  143.68
  18   0  17 -158.45  130.42
 -18   1 -17   28.57  235.00
 -18   1 -17 -150.59  180.85
  18  -1  17  193.75  134.46
  18  -1  17  -55.91  144.33
 -18   2 -17  -67.11  168.23
 -18   2 -17   42.06  241.41
  18  -2  17  -42.18  141.46
  18  -2  17  -38.72  132.32
 -18   3 -17 -108.93  240.85
 -18   3 -17 -212.57  169.96
  18  -3  17 -138.80  137.12
  18  -3  17  243.24  164.78
 -18   4 -17  208.09  225.65
 -18   4 -17 -108.35  159.16
  18  -4  17   33.16  182.58
  18  -4  17 -126.98  138.22
 -18   5 -17  124.34  219.73
 -18   5 -17 -359.72  158.50
  18  -5  17   59.84  194.89
  18  -5  17  112.67  149.48
 -18   6 -17  108.64  220.80
 -18   6 -17  -24.30  144.91
  18  -6  17   91.37  155.90
  18  -6  17  131.93  201.20
   0   1 -18    7.44   11.99
   0  -1  18   16.42   29.75
  -1   1 -18  191.31   80.30
   1   1 -18  192.82   79.58
   1   1 -18  294.37   98.02
   1  -1  18  220.43   94.21
  -1  -1  18  375.18   94.02
   2   1 -18    9.29   41.37
  -1   2 -18    2.93   12.74
   2   1 -18    1.68   13.65
  -1   2 -18  -25.95   40.04
   1  -2  18    7.50   30.41
  -2  -1  18  -19.28   32.24
   0   2 -18    1.69   40.94
   0   2 -18   25.97   15.21
   0  -2  18   22.65   31.14
   1   2 -18    7.18   13.73
  -2   1 -18    8.77   11.31
   1   2 -18   13.28   41.82
  -1  -2  18   -8.77   31.60
   2   2 -18  113.36   54.34
  -2   2 -18  110.54   33.57
  -2   2 -18   59.51   55.81
   2   2 -18   79.27   32.85
  -2  -2  18  125.04   46.83
   2  -2  18   46.71   47.41
  -2   3 -18   -3.62   13.09
  -2   3 -18  -35.22   38.75
   3   2 -18    6.22   15.87
   3   2 -18   -8.43   39.87
   2  -3  18    6.90   31.18
  -3  -2  18  -11.46   32.63
  -1   3 -18  172.79   63.31
   3   1 -18  180.67   81.27
   3   1 -18  168.83   62.02
  -1   3 -18  236.65   78.05
   1  -3  18  202.32   74.41
  -3  -1  18  196.38   76.34
   0   3 -18   -3.14   14.13
   0   3 -18   11.80   37.22
   0  -3  18  -11.85   30.90
   1   3 -18  309.15   70.88
   1   3 -18  270.93   83.26
  -3   1 -18   82.02   71.54
  -1  -3  18  241.32   80.74
  -3   2 -18   10.85   12.74
   2   3 -18    2.90   36.46
   2   3 -18   12.74   14.95
  -3   2 -18   -8.87   40.90
   3  -2  18    5.53   32.51
  -2  -3  18  -11.15   31.11
  -3   3 -18  293.01  136.14
  -3   3 -18  251.54  116.99
   3   3 -18  517.20  126.76
   3   3 -18  335.72  111.76
  -3  -3  18  314.22  125.68
   3  -3  18  399.63  130.44
  -3   4 -18  377.89  139.32
  -3   4 -18  376.00  122.20
   4   3 -18  393.60  130.56
   4   3 -18  295.26  114.51
  -4  -3  18  402.73  130.54
   3  -4  18  317.53  133.23
  -2   4 -18  405.00  183.58
   4   2 -18  510.05  197.52
   4   2 -18  645.76  173.71
  -2   4 -18  570.64  201.20
   2  -4  18  445.75  195.97
  -4  -2  18  680.71  198.95
   4   1 -18  227.83   65.93
  -1   4 -18  247.22   68.30
   4   1 -18  165.27   84.67
  -1   4 -18  181.63   78.74
   1  -4  18  161.68   76.14
  -4  -1  18  189.90   81.18
   0   4 -18  350.67  103.85
   0   4 -18  293.41  115.07
   0  -4  18  256.20  113.83
  -4   1 -18   85.65   71.07
   1   4 -18  212.68   70.20
   1   4 -18  314.63   79.62
  -1  -4  18  260.57   76.82
   2   4 -18  570.93  181.16
  -4   2 -18  401.64  187.82
   2   4 -18  609.97  193.44
  -2  -4  18  638.49  193.42
   3   4 -18  437.38  131.99
  -4   3 -18  281.30  149.05
  -4   3 -18  276.53  127.38
   3   4 -18  401.35  121.44
   4  -3  18  425.24  143.04
  -3  -4  18  384.93  132.13
   4   4 -18  128.28  113.63
  -4   4 -18  320.81  106.65
  -4   4 -18  265.93  126.68
   4   4 -18  340.64  100.23
   4  -4  18  502.78  120.41
   4  -4  18  309.79  103.39
  -4  -4  18  226.75  112.81
   5   4 -18   96.94   41.62
  -4   5 -18   49.08   41.59
  -4   5 -18   59.95   23.88
  -5  -4  18   13.53   37.99
  -3   5 -18  139.65   65.12
  -3   5 -18  154.32   52.22
   3  -5  18   79.00   51.62
   3  -5  18  172.70   61.14
   5   2 -18  206.59   98.31
  -2   5 -18  243.31   84.74
  -2   5 -18  229.25   93.95
  -5  -2  18  238.64   96.59
   2  -5  18  267.37   91.26
   2  -5  18  228.05   83.48
  -1   5 -18   96.26   31.42
   5   1 -18   88.34   54.27
  -1   5 -18   75.91   43.09
   1  -5  18   56.82   38.98
   1  -5  18   49.83   32.98
  -5  -1  18   93.63   47.41
   0   5 -18    2.01   16.38
   0   5 -18   -1.17   31.86
   0  -5  18    9.12   27.72
   0  -5  18    6.12   21.18
   1   5 -18  110.37   33.22
   1   5 -18  103.22   41.77
  -1  -5  18   86.13   40.77
  -1  -5  18   88.44   35.99
   5  -1  18   -8.55   59.89
   2   5 -18  294.45   81.20
   2   5 -18  222.19   88.38
  -2  -5  18  250.26   83.25
  -2  -5  18  166.75   87.84
   3   5 -18  373.15  112.37
   4   5 -18   23.93   21.69
   4   5 -18  -54.85   38.93
  -4  -5  18   20.02   35.34
  -4  -5  18    6.68   33.79
   5   5 -18   82.19   27.96
   5   5 -18   97.81   42.27
  -5  -5  18   21.01   39.41
  -5  -5  18    1.18   32.65
   6   5 -18   -3.87   22.03
   6   5 -18  -12.40   38.59
  -6  -5  18   11.60   36.10
   6   4 -18  141.43   50.37
   6   4 -18   79.69   35.17
  -4   6 -18   58.75   35.09
  -4   6 -18   24.13   48.09
  -6  -4  18  147.32   47.82
   6   3 -18  502.95  177.09
   6   3 -18  576.62  155.24
  -3   6 -18  440.49  185.13
  -3   6 -18  434.97  169.01
  -6  -3  18  506.48  180.59
   3  -6  18  493.12  178.41
   3  -6  18  315.74  166.73
  -2   6 -18   78.33   29.96
   6   2 -18   87.13   28.95
  -2   6 -18   54.83   39.65
   6   2 -18  110.41   50.72
  -6  -2  18   23.17   43.84
   2  -6  18  102.14   35.77
   2  -6  18   49.99   30.85
  -1   6 -18  156.07   55.77
   6   1 -18  177.24   74.73
  -1   6 -18  150.42   62.40
   6   1 -18  156.18   51.57
   1  -6  18  140.21   59.56
   1  -6  18  139.29   56.35
  -6  -1  18  101.86   68.87
   6   0 -18   22.70   26.89
   0   6 -18   88.14   39.83
   0   6 -18   66.78   30.56
   0  -6  18   83.02   32.96
  -6   0  18   58.65   45.51
   0  -6  18   86.93   37.60
   6   0  18   10.62   62.07
   1   6 -18  130.27   60.89
   1   6 -18   41.86   67.45
  -1  -6  18  191.58   62.56
   6  -1  18  235.66   86.20
  -1  -6  18  219.75   64.80
   2   6 -18   15.19   26.05
   2   6 -18  -51.05   39.70
  -2  -6  18  -26.07   34.39
  -2  -6  18  -68.19   35.99
   3   6 -18  565.12  191.84
   3   6 -18  450.15  186.26
  -3  -6  18  591.66  188.96
  -3  -6  18  640.04  192.38
   4   6 -18   64.47   36.09
   4   6 -18   56.50   44.86
  -4  -6  18  150.96   42.99
  -4  -6  18    7.33   40.61
   5   6 -18   98.76   33.96
   5   6 -18  -46.37   44.94
  -5  -6  18  269.86   40.28
  -5  -6  18    0.99   41.58
   7   6 -18  -11.03   27.85
  -7  -6  18  -32.77   39.32
   7   4 -18   79.42   51.74
  -7  -4  18  114.93   50.14
  -3   7 -18   15.48   31.32
  -3   7 -18   35.40   25.20
   7   3 -18  -13.35   43.89
   7   3 -18    2.19   20.48
   3  -7  18  -17.61   25.41
  -7  -3  18   13.77   39.19
   3  -7  18   10.48   27.13
   7   2 -18  218.68   83.05
   7   2 -18  213.47  105.13
  -2   7 -18  255.72   91.52
  -2   7 -18  221.66  101.23
   2  -7  18  304.31   97.21
   2  -7  18  262.13   91.94
  -7  -2  18  222.16  106.10
  -1   7 -18   -1.43   24.37
   7   1 -18   -2.30   18.65
  -1   7 -18   20.25   31.28
   7   1 -18   91.26   49.19
  -7  -1  18    8.69   40.70
   1  -7  18    8.61   26.31
   1  -7  18   11.63   28.04
   0   7 -18   30.32   25.18
   0   7 -18    2.28   32.08
   7   0 -18   20.79   23.23
  -7   0  18   36.84   40.08
   7   0  18   44.81   66.47
   0  -7  18   -4.80   27.16
   0  -7  18  -24.53   28.62
   1   7 -18   20.91   33.98
   1   7 -18    3.02   26.61
  -1  -7  18   51.35   29.93
  -1  -7  18   -1.18   29.25
   7  -1  18   72.50   64.61
   2   7 -18  319.61  108.49
   2   7 -18  374.23  112.02
  -2  -7  18  331.46  111.82
  -2  -7  18  249.96  110.10
   3   7 -18   39.06   34.44
   3   7 -18   15.78   28.30
  -3  -7  18    1.30   31.92
  -3  -7  18   -0.89   30.99
   4   7 -18  153.86   39.45
  -4  -7  18   14.89   36.26
  -4  -7  18    1.37   29.76
   7   7 -18   77.65   47.24
   7   7 -18   16.92   34.67
  -7  -7  18    1.65   43.78
  -7  -7  18   32.68   38.25
   8   7 -18   -1.98   36.42
   8   7 -18  -29.81   51.12
  -8  -7  18  -96.80   44.52
  -8  -7  18 -172.30   50.39
   8   6 -18  122.75   53.22
   8   6 -18   96.79   40.19
  -8  -6  18   23.89   49.65
  -8  -6  18   51.04   47.48
   8   5 -18   18.71   23.62
  -8  -5  18    1.44   35.50
  -3   8 -18   75.58   40.58
  -3   8 -18   95.43   46.30
   8   3 -18   28.60   53.93
   3  -8  18  153.52   43.16
   3  -8  18   31.80   42.53
  -8  -3  18   95.09   53.74
   8   2 -18   11.67   47.53
   8   2 -18   -1.18   16.93
  -2   8 -18   -3.39   26.93
  -2   8 -18   -6.64   32.19
   2  -8  18   15.17   29.96
   2  -8  18    1.58   27.60
  -8  -2  18   18.60   43.02
   8   1 -18   96.53   29.76
  -1   8 -18   78.37   38.69
   8   1 -18   -2.13   52.97
  -1   8 -18   58.40   34.58
  -8  -1  18  -10.67   48.32
   1  -8  18   30.70   35.32
   1  -8  18   75.03   36.13
   0   8 -18    6.90   29.26
   8   0 -18   36.82   22.58
   0   8 -18   -7.96   31.94
   0  -8  18   -6.75   29.97
   0  -8  18   23.51   30.80
   8   0  18   28.38   71.64
   1   8 -18  135.67   41.18
   1   8 -18  100.06   38.10
   8  -1  18   41.29   74.72
  -1  -8  18   48.86   38.71
  -1  -8  18   41.36   38.72
   2   8 -18  -62.97   34.18
   2   8 -18   14.39   31.69
  -2  -8  18   -1.40   32.68
  -2  -8  18    4.52   29.75
   8  -2  18   35.02   51.44
   8  -2  18   37.00   62.18
   3   8 -18   74.62   47.17
  -3  -8  18  105.87   45.38
   5   8 -18   -1.35   33.27
   5   8 -18   33.36   32.76
  -5  -8  18   -5.13   27.54
  -5  -8  18    1.62   39.67
   6   8 -18  100.09   50.08
  -6  -8  18   78.50   47.62
   7   8 -18    7.59   45.08
   7   8 -18   64.45   39.78
  -7  -8  18    1.15   40.02
  -7  -8  18   20.14   47.56
   8   8 -18  198.61   89.79
   8   8 -18  308.20   95.00
  -8  -8  18  143.56   98.91
  -8  -8  18  248.49   94.07
   9   8 -18   22.43   49.34
   9   8 -18  106.30   44.69
  -9  -8  18   38.41   43.75
  -9  -8  18  -59.71   53.04
   9   7 -18   79.46   42.94
   9   7 -18   30.28   51.76
  -9  -7  18   64.68   47.85
  -9  -7  18   30.71   51.46
   9   6 -18   47.56   47.81
   9   6 -18   16.49   31.69
  -9  -6  18   17.95   45.48
  -9  -6  18    1.71   42.67
   9   5 -18  -75.85   45.79
   9   5 -18   14.32   30.99
  -9  -5  18  -70.80   41.96
  -9  -5  18   20.69   44.14
   9   4 -18    9.62   24.26
   9   4 -18    1.73   40.04
  -3   9 -18   38.11   44.36
   3  -9  18  127.66   42.74
   3  -9  18   74.09   45.79
  -2   9 -18   40.77   34.06
  -2   9 -18   30.78   35.77
   2  -9  18   67.99   34.16
   2  -9  18   36.58   37.22
  -1   9 -18   56.82   35.81
  -1   9 -18   70.01   35.31
   1  -9  18   35.66   36.54
   1  -9  18   25.61   37.66
   0   9 -18    4.54   31.97
   0   9 -18    6.02   32.00
   0  -9  18    7.77   36.82
   0  -9  18   23.98   31.93
   9   0  18   59.44   81.08
   1   9 -18   66.14   34.39
   1   9 -18   -6.10   27.99
  -9   1 -18    2.68   77.61
   9  -1  18  -16.63   79.14
  -1  -9  18   33.38   35.73
  -9   2 -18  -12.14   78.64
   9  -2  18  -59.10   67.37
   9  -2  18   69.06   53.20
   3   9 -18   98.72   40.70
  -3  -9  18    1.69   42.03
   4   9 -18  -44.72   37.55
   4   9 -18   20.82   35.10
  -4  -9  18   21.33   40.50
  -4  -9  18  -49.67   36.38
   5   9 -18  -62.97   38.70
   5   9 -18   37.95   36.64
  -5  -9  18    1.88   41.66
  -5  -9  18   -1.10   37.86
   6   9 -18    4.38   40.32
  -6  -9  18   40.46   39.07
   7   9 -18   62.93   48.87
   7   9 -18   54.14   47.33
  -7  -9  18  102.96   47.09
  -7  -9  18   -2.11   53.94
   8   9 -18    8.31   46.34
   8   9 -18  -26.78   44.49
  -8  -9  18   -5.14   42.21
  -8  -9  18  -13.49   51.55
   9   9 -18   27.06   61.39
   9   9 -18  256.48   60.75
  -9  -9  18  100.87   66.95
  -9  -9  18   69.11   59.42
  10   9 -18  291.46   77.20
  10   9 -18  152.81   78.71
 -10  -9  18  120.86   86.99
 -10  -9  18  105.47   78.46
  10   8 -18   81.00   46.92
  10   8 -18    1.86   51.80
 -10  -8  18   -1.43   48.85
 -10  -8  18   77.75   58.23
  10   7 -18  -46.18   50.58
  10   7 -18  105.83   44.30
 -10  -7  18   65.82   49.14
 -10  -7  18   28.82   51.73
  10   6 -18    8.70   49.60
  10   6 -18   48.71   36.30
 -10  -6  18    1.85   45.64
 -10  -6  18  -48.06   46.12
  10   5 -18    5.26   47.88
  10   5 -18  -13.60   28.95
 -10  -5  18   13.53   43.89
 -10  -5  18   27.68   45.09
  10   4 -18   15.11   31.29
  10   4 -18   54.99   51.19
 -10  -4  18   66.20   47.71
 -10  -4  18   14.31   42.74
  -3  10 -18   96.91   61.05
  10   3 -18   41.31   43.55
  10   3 -18   75.15   71.55
 -10  -3  18  165.53   69.35
  -2  10 -18   19.67   34.53
  10   2 -18   -5.34   24.71
  -1  10 -18  -40.02   34.27
  10   1 -18   -5.73   24.89
  10   1  18  309.63   88.43
   1 -10  18   57.22   39.71
  10   0  18   51.43   92.69
 -10   1 -18  -45.52   86.09
  10  -1  18  -99.31   82.87
  10  -1  18 -118.51   60.41
   2  10 -18  -16.58   33.42
 -10   2 -18  -47.62   92.11
  10  -2  18 -119.69   71.03
  10  -2  18 -137.42   60.70
  -2 -10  18  -82.33   42.00
   4  10 -18   19.92   38.78
   4  10 -18   18.77   36.22
  -4 -10  18    4.06   47.69
   5  10 -18   15.56   41.44
   5  10 -18   43.70   39.71
  -5 -10  18    2.14   50.24
  -5 -10  18    8.46   40.50
   6  10 -18  -64.95   44.15
   6  10 -18   39.93   41.57
  -6 -10  18  -72.36   52.34
  -6 -10  18   25.13   42.00
   7  10 -18    7.94   44.32
   7  10 -18   19.82   46.72
  -7 -10  18   39.35   44.56
   8  10 -18    1.73   49.49
   8  10 -18   86.11   49.03
  -8 -10  18   45.76   47.14
  -8 -10  18   17.85   60.11
   9  10 -18  119.02   76.85
   9  10 -18  259.21   77.14
  -9 -10  18  133.26   89.04
  -9 -10  18  179.51   79.29
  10  10 -18    3.99   54.94
  10  10 -18  105.37   54.51
 -10 -10  18    1.56   52.99
 -10 -10  18   -2.91   65.72
  11  10 -18 -108.84   60.71
  11  10 -18    3.48   54.42
 -11 -10  18   21.88   70.07
 -11 -10  18   63.82   56.60
  11   9 -18    9.45   56.58
  11   9 -18  232.32   66.86
 -11  -9  18  149.05   72.29
 -11  -9  18   24.07   58.24
  11   8 -18    2.01   59.82
  11   8 -18    2.77   51.42
 -11  -8  18  118.09   67.02
 -11  -8  18  125.85   58.64
  11   7 -18   34.36   68.79
  11   7 -18  246.93   64.01
 -11  -7  18  261.14   72.21
 -11  -7  18   69.03   68.82
  11   6 -18   24.35   51.23
  11   6 -18   13.01   38.88
 -11  -6  18   -8.93   50.16
 -11  -6  18   10.00   49.98
  11   5 -18  -36.02   35.05
  11   5 -18   17.04   50.22
 -11  -5  18 -110.72   46.54
 -11  -5  18    9.02   50.13
  11   4 -18   21.79   54.99
  11   4 -18   29.24   30.00
 -11  -4  18   13.78   44.40
 -11  -4  18   -1.55   50.25
  11   3 -18  -42.17   56.67
  11   3 -18   29.76   27.33
  -3  11 -18  -34.53   34.40
 -11  -3  18  -21.13   51.87
  11   2 -18  -36.04   54.21
  11   2 -18  -42.94   28.15
 -11  -2  18   39.17   51.92
  11   1 -18  150.12   68.32
  11   1 -18   81.60   42.78
  11   1  18  101.84  103.48
 -11  -1  18   76.95   64.74
  11   0 -18    4.88   62.08
   0  11 -18  336.05   69.72
   1  11 -18  119.19   45.45
  -1 -11  18    2.31   53.31
 -11   2 -18  -55.13  100.77
   2  11 -18  -73.06   36.32
  -2 -11  18    2.30   47.06
  11  -2  18   11.38   63.16
   3  11 -18    1.39   37.73
 -11   3 -18  103.01   94.24
  -3 -11  18   11.93   51.63
  11  -3  18  -48.45   61.13
   4  11 -18    4.35   38.29
   4  11 -18   47.45   41.37
  -4 -11  18   -2.39   48.05
   5  11 -18    1.50   38.64
   5  11 -18   29.00   45.18
  -5 -11  18    5.01   53.49
   6  11 -18  -30.22   46.51
   6  11 -18   17.21   40.45
  -6 -11  18 -147.98   59.51
   7  11 -18   53.10   50.67
  -7 -11  18   27.41   53.92
   8  11 -18   89.35   47.54
   8  11 -18   -1.76   48.26
  -8 -11  18   -1.51   51.28
  -8 -11  18    2.97   63.96
   9  11 -18  112.25   54.17
   9  11 -18  -45.19   53.75
  -9 -11  18  -36.34   54.37
  -9 -11  18    6.33   69.78
  10  11 -18   -3.66   52.67
  10  11 -18    2.08   57.71
 -10 -11  18   40.57   76.46
 -10 -11  18  -68.77   55.33
  11  11 -18  -38.68   61.84
  11  11 -18  -95.79   64.87
 -11 -11  18   47.13   78.27
 -11 -11  18 -132.42   63.12
  12  11 -18 -225.25   69.40
  12  11 -18 -174.56   73.21
 -12 -11  18 -129.32   71.99
 -12 -11  18 -215.38   96.07
  12  10 -18   30.25   58.90
  12  10 -18 -142.14   64.40
 -12 -10  18   -3.47   75.10
 -12 -10  18   36.73   61.67
  12   9 -18  -75.23   57.61
  12   9 -18   78.77   61.83
 -12  -9  18   -5.21   59.01
 -12  -9  18    9.13   72.75
  12   8 -18 -104.30   54.08
  12   8 -18    2.13   59.95
 -12  -8  18  -78.98   65.45
 -12  -8  18    3.38   57.14
  12   7 -18   59.50   49.80
  12   7 -18   -2.06   56.15
 -12  -7  18    8.16   55.43
 -12  -7  18    2.43   60.50
  12   6 -18 -101.15   61.66
  12   6 -18  -90.98   46.99
 -12  -6  18   33.06   57.01
 -12  -6  18  -59.73   58.37
  12   5 -18    2.02   55.16
  12   5 -18    2.04   37.14
 -12  -5  18   30.33   51.22
 -12  -5  18  -97.88   54.16
  12   4 -18   -2.10   55.74
  12   4 -18  -32.59   32.47
 -12  -4  18   58.82   54.91
 -12  -4  18    5.59   47.57
  12   3 -18  128.02   65.37
  12   3 -18   33.28   38.09
 -12  -3  18  -34.71   62.96
  12   2 -18  135.77   66.18
  12   2 -18    1.55   36.16
 -12  -2  18   90.02   63.09
  12   1 -18  -17.67   32.50
  12   1 -18  115.87   59.38
  12   1  18   -1.20  106.51
 -12  -1  18   41.58   55.48
  12   0 -18  178.37   57.73
 -12   0 -18  132.10  118.40
  12   0  18   51.64  112.75
 -12   1 -18    6.77  108.41
  12  -1  18  116.72   71.53
  12  -1  18   35.79   86.75
 -12   2 -18  103.82  115.98
  12  -2  18    5.24   84.55
 -12   3 -18   13.25  123.36
 -12   3 -18  384.84  127.09
   8  12 -18  -48.59   52.13
  -8 -12  18 -187.34   74.40
   9  12 -18    2.00   54.21
  -9 -12  18  -66.07   55.62
  -9 -12  18  -47.96   76.65
  10  12 -18   30.43   59.34
 -10 -12  18   34.61   61.56
  11  12 -18   28.66   70.74
 -11 -12  18  -40.60   70.10
  12  12 -18   -2.54   71.45
 -12 -12  18  -82.52   71.64
  13  12 -18   47.36   85.73
 -13 -12  18  161.75   87.28
  13  11 -18 -132.59   74.08
 -13 -11  18   17.51   92.58
 -13 -11  18   -4.10   72.41
  13  10 -18    4.01   62.54
  13  10 -18   62.99   72.00
 -13 -10  18 -192.86   73.61
 -13 -10  18  -74.91   82.92
  13   9 -18  -94.51   65.94
  13   9 -18 -191.96   75.79
 -13  -9  18 -282.80   85.53
 -13  -9  18   -7.57   70.45
  13   8 -18  -38.96   63.13
  13   8 -18  -81.68   58.81
 -13  -8  18  -82.37   68.68
 -13  -8  18 -112.27   67.52
  13   7 -18   -2.89   50.33
  13   7 -18   86.52   63.79
 -13  -7  18   57.83   64.85
 -13  -7  18   53.20   63.53
  13   6 -18   20.54   43.42
  13   6 -18 -138.94   60.67
 -13  -6  18    2.39   59.17
 -13  -6  18   -8.77   60.42
  13   5 -18 -114.49   43.08
  13   5 -18    6.58   59.98
 -13  -5  18    2.20   52.38
 -13  -5  18   31.62   56.91
  13   4 -18 -116.35   63.00
  13   4 -18   16.28   38.91
 -13  -4  18  -16.23   60.70
 -13  -4  18  104.63   54.79
  13   3 -18 -158.25   64.10
  13   3 -18  -33.31   35.72
 -13  -3  18   35.24   50.87
 -13  -3  18  -57.44   61.16
  13   2 -18  -52.05   61.55
  13   2 -18  -20.09   30.67
 -13  -2  18   91.98   57.19
  13   1 -18  258.20   59.74
  13   1  18   89.84  120.36
 -13  -1  18   39.90   80.40
  13   0 -18   11.12   33.23
 -13   0 -18   -3.90  117.38
  13   0  18   10.01  101.38
 -13   1 -18  -86.46  126.90
  13  -1  18  -22.88   92.32
  13  -1  18    4.83   76.34
 -13   2 -18  -22.29  107.53
 -13   2 -18  -10.97  125.53
  13  -2  18   64.37   77.50
  13  -2  18 -173.18   91.76
 -13   3 -18  -48.32  109.73
 -13   3 -18  -59.89  127.31
  13  -4  18   46.38  111.82
  14  11 -18   98.04   82.77
 -14 -11  18   -4.72   95.18
 -14 -11  18  -56.14   76.16
  14  10 -18  -42.70   68.97
  14  10 -18  -84.58   82.09
 -14 -10  18  -12.95   77.15
 -14 -10  18 -156.07   94.24
  14   9 -18   39.61   64.16
  14   9 -18 -106.95   73.11
 -14  -9  18  -14.63   85.61
 -14  -9  18  -96.53   71.15
  14   8 -18  405.02  143.63
  14   8 -18  646.63  137.57
 -14  -8  18    3.25  148.03
 -14  -8  18  316.87  146.67
  14   7 -18    4.79   66.76
  14   7 -18  -44.90   55.33
 -14  -7  18    2.91   68.82
 -14  -7  18  -63.41   65.78
  14   6 -18   48.68   54.96
  14   6 -18   49.18   65.56
 -14  -6  18   96.32   68.26
 -14  -6  18    5.29   67.87
  14   5 -18   33.48   47.22
  14   5 -18 -161.58   66.77
 -14  -5  18   60.64   62.19
 -14  -5  18   52.96   60.84
  14   4 -18  -96.28   44.63
  14   4 -18  -92.63   65.47
 -14  -4  18   38.56   63.79
 -14  -4  18  -98.99   58.49
  14   3 -18  -30.05   62.00
  14   3 -18  -55.82   39.50
 -14  -3  18 -129.36   61.58
 -14  -3  18   53.26   54.01
  14   2 -18   53.46   64.81
  14   2 -18   -5.64   36.95
 -14  -2  18   78.88   63.15
  14   1 -18  -36.91   33.59
  14   1  18 -110.89  119.32
 -14   0 -18  164.00  138.37
  14   0 -18   82.27   42.62
  14   0  18   20.57   83.71
  14   0  18   -9.13  102.84
 -14   1 -18   25.28  134.65
  14  -1  18   54.57   85.98
  14  -1  18  -51.83   82.92
 -14   2 -18 -136.89  145.42
 -14   2 -18  -82.35  119.20
  14  -2  18  -26.50   98.70
  14  -2  18  -37.30   81.29
 -14   3 -18   16.54  116.92
 -14   3 -18   49.52  138.29
  14  -3  18   -8.43   82.79
  14  -3  18  121.19  104.38
 -14   4 -18   44.57  109.67
 -14   4 -18  -94.72  125.02
  14  -4  18  120.49  112.05
  14  -4  18 -199.24   87.19
  15  11 -18    3.12   89.09
 -15 -11  18 -143.20   89.46
  15  10 -18 -116.19   73.67
  15  10 -18  -82.24   81.40
 -15 -10  18  -41.48   83.16
  15   9 -18   -4.22   69.63
  15   9 -18  106.37   80.87
 -15  -9  18  -87.09   92.78
 -15  -9  18  153.71   81.31
  15   8 -18   82.42   74.54
  15   8 -18  -84.81   64.39
 -15  -8  18   57.54   76.23
 -15  -8  18 -133.44   86.24
  15   7 -18  235.85   76.35
  15   7 -18    6.86   63.69
 -15  -7  18   24.98   74.64
 -15  -7  18    3.24   79.79
 -15  -6  18    2.91   89.63
 -15  -6  18  234.92   90.00
 -15  -5  18  -96.20   77.48
 -15  -5  18 -160.30   72.38
  15   1  18  -27.25  119.78
 -15   0 -18   28.93  151.68
  15   0  18  264.36  117.33
  15   0  18    2.06   99.15
 -15   1 -18 -166.65  161.86
  15  -1  18  -52.79  103.72
  15  -1  18 -117.71   94.97
 -15   2 -18  -95.55  137.44
 -15   2 -18 -302.80  171.54
  15  -2  18  -83.64  110.11
  15  -2  18    3.81   89.75
 -15   3 -18   48.19  159.15
 -15   3 -18  151.26  136.21
  15  -3  18   62.76   95.37
  15  -3  18   60.21  114.72
 -15   4 -18  -85.38  129.11
 -15   4 -18   -3.90  144.32
  15  -4  18  -48.62  130.41
  15  -4  18  -66.24   94.29
 -16   0 -18 1407.50  416.79
  16   0  18  644.26  380.97
 -16   1 -18  974.53  526.21
 -16   1 -18  347.99  620.37
  16  -1  18 1218.39  437.28
 -16   2 -18 -171.64  509.89
  16  -2  18 1411.44  438.22
 -16   3 -18 -439.31  202.96
 -16   3 -18  -55.78  152.59
 -16   4 -18 -115.23  138.19
 -16   4 -18  313.36  185.28
  16  -4  18  -64.11  108.93
 -17  -1 -18  180.93  182.39
  17   1  18   29.02  118.48
 -17   0 -18 -135.67  198.04
  17   0  18  -30.58  123.82
  17   0  18   38.53  113.10
 -17   1 -18   80.44  206.11
 -17   1 -18   49.46  164.36
  17  -1  18   -2.52  116.27
  17  -1  18 -185.15  130.50
 -17   2 -18  112.15  211.56
 -17   2 -18  -33.42  155.35
  17  -2  18  -16.41  129.93
  17  -2  18  -47.67  119.27
 -17   3 -18  374.96  171.12
 -17   3 -18  210.15  217.32
  17  -3  18  181.71  131.61
  17  -3  18  -27.15  149.81
 -17   4 -18   78.17  204.97
 -17   4 -18  -16.61  144.59
  17  -4  18  -29.18  120.66
  17  -4  18  100.03  159.64
  17  -5  18   40.76  172.67
 -18   0 -18   -7.04  221.71
 -18   0 -18 -209.70  182.46
  18   0  18  -86.69  130.16
 -18   1 -18  127.96  233.92
 -18   1 -18 -199.83  179.92
  18  -1  18   56.77  131.76
  18  -1  18 -142.85  143.96
 -18   2 -18  -64.68  242.85
 -18   2 -18  233.30  174.08
  18  -2  18  116.08  131.73
  18  -2  18 -114.94  139.45
 -18   3 -18  170.90  252.91
 -18   3 -18   73.36  166.08
  18  -3  18   62.07  165.52
  18  -3  18 -300.33  140.42
 -18   4 -18   42.27  157.65
 -18   4 -18   64.67  238.99
  18  -4  18 -181.05  135.07
 -18   5 -18   43.56  225.48
  18  -5  18   64.62  140.62
  18  -5  18    7.05  163.39
   0   1 -19  138.10   50.66
   0  -1  19  161.25   65.53
   1   1 -19   -5.97   14.78
  -1   1 -19  -11.35   12.98
  -1  -1  19   -1.27   33.07
   2   1 -19  -20.05   41.97
  -1   2 -19   -9.51   42.76
  -1   2 -19    7.80   14.10
   2   1 -19   10.75   15.73
  -2  -1  19   -1.29   33.97
   1  -2  19   -4.69   34.37
   0   2 -19    0.81   13.78
   0   2 -19   -3.76   44.16
   0  -2  19  -28.01   33.54
   1   2 -19    9.21   42.37
   1   2 -19    5.95   14.61
  -2   1 -19    2.16   12.66
  -1  -2  19   -1.18   33.75
   2   2 -19  -51.65   46.29
   2   2 -19   -4.44   14.98
  -2   2 -19   46.03   47.11
  -2   2 -19   -5.98   13.60
  -2  -2  19   -1.20   35.90
   2  -2  19   14.19   33.42
   3   2 -19  585.03  143.58
   3   2 -19  309.81  122.55
  -2   3 -19  478.51  148.76
  -3  -2  19  338.96  141.60
   2  -3  19  318.79  142.46
   3   1 -19   -6.59   15.86
  -1   3 -19   19.98   41.51
  -1   3 -19   13.65   14.29
   3   1 -19    2.03   47.33
  -3  -1  19    1.32   35.75
   1  -3  19    1.08   32.63
   0   3 -19  191.66   59.32
   0   3 -19  187.65   76.10
   0  -3  19  127.36   71.48
   1   3 -19   12.11   15.33
   1   3 -19   21.03   42.47
  -3   1 -19   11.93   12.88
  -1  -3  19   24.02   34.18
  -3   2 -19  271.79  120.37
   2   3 -19  418.58  115.76
   2   3 -19  324.60  133.39
   3  -2  19  245.54  138.29
  -2  -3  19  464.10  132.09
   3   3 -19  -10.34   18.91
  -3   3 -19  -19.63   49.48
  -3   3 -19   -1.47   13.65
   3   3 -19  -29.50   46.37
   3  -3  19   -9.87   35.36
  -3  -3  19  -81.03   40.77
   4   3 -19  262.27   99.43
   4   3 -19  248.17   82.79
  -3   4 -19  270.08  105.72
  -3   4 -19  259.92   88.51
  -4  -3  19  132.16   98.48
   3  -4  19  360.02   99.97
   4   2 -19   68.74   57.86
   4   2 -19   68.41   33.18
  -2   4 -19   62.64   51.23
  -2   4 -19  103.20   33.26
  -4  -2  19   73.90   50.05
   2  -4  19  109.76   45.80
  -1   4 -19  431.24  100.97
   4   1 -19  241.54   97.36
   4   1 -19  440.92  118.85
  -1   4 -19  302.50  114.24
   1  -4  19  332.43  110.14
  -4  -1  19  130.90  114.55
   0   4 -19  -19.97   39.29
   0   4 -19   -1.75   15.35
   0  -4  19  -26.54   31.14
  -4   1 -19   99.86   96.35
   1   4 -19  351.91  105.53
   1   4 -19  371.82   93.94
  -1  -4  19  303.30  104.17
   2   4 -19  151.31   50.64
   2   4 -19   84.67   34.42
  -4   2 -19   68.39   34.04
  -2  -4  19  113.73   47.33
  -4   3 -19  206.81   87.46
   3   4 -19  287.12   96.32
  -4   3 -19  250.41  110.13
   3   4 -19  370.48   83.12
  -3  -4  19   27.20   96.36
   4  -3  19  337.42  102.42
   4   4 -19  -41.12   40.60
  -4   4 -19   -3.25   46.34
  -4   4 -19   -0.80   15.38
   4   4 -19    6.12   17.83
  -4  -4  19    9.76   34.73
   5   4 -19  157.99   69.88
   5   4 -19  230.07   83.94
  -5  -4  19  242.29   83.93
   5   3 -19  393.83  111.53
  -3   5 -19  303.52  100.89
  -3   5 -19  264.24  116.29
   5   3 -19  102.52   91.42
   3  -5  19  259.19   97.30
  -5  -3  19  315.24  111.23
   3  -5  19  302.33  110.89
  -2   5 -19  306.54  137.98
  -2   5 -19  316.13  150.77
   5   2 -19  582.80  152.80
  -5  -2  19  385.51  152.43
   2  -5  19  415.60  134.53
   2  -5  19  335.15  146.47
  -1   5 -19  111.59   35.60
  -1   5 -19   90.51   48.36
   5   1 -19   63.04   59.76
   1  -5  19  109.71   37.50
   1  -5  19   76.15   43.90
  -5  -1  19    1.41   52.95
   0   5 -19  240.21   98.39
   0   5 -19  268.87   89.18
   0  -5  19  218.06   95.72
   0  -5  19  277.63   89.35
   1   5 -19   63.72   52.48
   1   5 -19  135.08   38.39
  -1  -5  19   22.42   48.06
  -1  -5  19  144.45   41.60
   2   5 -19  486.33  157.83
   2   5 -19  445.39  149.97
  -2  -5  19  545.79  151.54
  -2  -5  19  358.69  157.84
   3   5 -19  444.42  136.18
   3   5 -19  471.58  129.04
  -3  -5  19  405.58  131.34
  -3  -5  19  306.84  136.05
   4   5 -19  106.40   81.43
   4   5 -19  204.95   72.00
  -4  -5  19  223.94   76.87
  -4  -5  19  262.99   81.68
   5   5 -19    1.43   39.46
  -5  -5  19    1.08   36.10
   6   4 -19   86.45   54.90
  -6  -4  19  111.79   52.55
  -3   6 -19  147.84   54.53
   6   3 -19  143.51   49.70
   6   3 -19  143.18   70.13
  -3   6 -19  121.15   65.88
   3  -6  19  194.22   61.42
  -6  -3  19  102.67   66.33
   3  -6  19  102.67   53.58
   6   2 -19  336.17  109.75
   6   2 -19  372.19  134.20
  -2   6 -19  369.85  130.52
  -2   6 -19  308.30  120.54
   2  -6  19  287.32  117.68
  -6  -2  19  340.32  134.63
   2  -6  19  329.32  126.66
  -1   6 -19  129.91   48.31
  -1   6 -19   69.20   38.48
   6   1 -19   96.73   34.11
   6   1 -19   94.64   60.42
   1  -6  19  108.93   43.81
  -6  -1  19   51.45   52.84
   1  -6  19   72.94   38.64
   0   6 -19   11.61   23.33
   0   6 -19  -11.19   32.77
   6   0  19  -49.58   56.10
   0  -6  19   -7.13   25.38
   0  -6  19  -15.74   29.27
   1   6 -19   71.74   46.72
   1   6 -19   96.67   39.16
  -1  -6  19   74.74   40.31
  -1  -6  19  105.25   43.48
   2   6 -19  335.96  135.71
   2   6 -19  359.90  130.04
  -2  -6  19  491.74  136.00
  -2  -6  19  348.83  131.63
   3   6 -19  174.98   62.22
   3   6 -19  251.74   69.78
  -3  -6  19  123.34   67.52
  -3  -6  19  172.93   65.33
   4   6 -19  188.72   51.69
  -4  -6  19  154.80   49.39
  -4  -6  19  -12.73   44.15
   7   6 -19   95.16   51.03
   7   6 -19   42.92   36.33
  -7  -6  19   27.51   44.60
  -7  -6  19   80.41   45.40
   7   5 -19   -4.14   26.03
  -7  -5  19   61.82   35.38
  -3   7 -19  220.60  102.78
  -3   7 -19  271.73   91.63
   3  -7  19  200.30   90.39
   3  -7  19  307.11   97.41
  -2   7 -19   31.72   40.00
   7   2 -19   70.55   54.81
  -2   7 -19   34.87   32.73
   2  -7  19   76.42   34.01
  -7  -2  19   38.73   48.20
   2  -7  19   99.73   37.28
   7   1 -19   55.23   69.11
  -1   7 -19  121.90   47.73
   7   1 -19   34.27   43.91
  -1   7 -19  130.25   55.25
   1  -7  19  186.85   51.89
   1  -7  19  135.30   48.24
  -7  -1  19  104.53   63.16
   0   7 -19    4.61   27.31
   0   7 -19   16.16   32.95
   0  -7  19    8.14   27.40
   0  -7  19   16.63   30.32
   7   0  19   -0.75   62.24
   1   7 -19   87.97   53.34
   1   7 -19  157.65   59.29
  -1  -7  19  167.00   56.22
  -1  -7  19  135.11   54.99
   2   7 -19    9.01   38.12
   2   7 -19   48.19   31.98
  -2  -7  19   75.69   35.13
  -2  -7  19   24.22   32.80
   3   7 -19  305.85  102.55
  -3  -7  19  261.87  101.46
   5   7 -19    1.75   31.14
  -5  -7  19   14.85   37.00
   6   7 -19   92.53   46.84
  -6  -7  19   36.06   43.97
   7   7 -19  145.91   64.17
   7   7 -19  -76.65   40.33
  -7  -7  19   71.23   46.60
   8   7 -19   89.79   79.63
   8   7 -19  166.16   62.46
  -8  -7  19  198.52   69.07
  -8  -7  19    1.82   76.74
   8   6 -19    1.74   32.37
   8   6 -19  -58.81   50.26
  -8  -6  19  -96.77   45.41
  -8  -6  19    1.63   44.55
   8   5 -19  -77.89   48.43
   8   5 -19    1.51   29.00
  -8  -5  19  -55.55   38.74
  -8  -5  19  -24.47   41.87
   8   4 -19  385.35  113.99
  -8  -4  19  279.30  113.00
  -3   8 -19    3.43   25.94
   8   3 -19    6.11   22.16
  -3   8 -19    7.43   35.69
   3  -8  19    9.88   30.91
   3  -8  19   18.91   29.98
  -2   8 -19  115.35   46.52
  -2   8 -19   69.73   41.42
   2  -8  19   81.20   41.87
   2  -8  19   86.20   43.02
  -1   8 -19    8.58   33.22
  -1   8 -19  -17.53   28.62
   1  -8  19    1.29   29.24
   1  -8  19    2.59   30.11
   0   8 -19    1.24   35.13
   0   8 -19    3.51   29.13
   0  -8  19   13.21   31.09
   8   0  19   74.48   71.53
   0  -8  19   20.52   30.62
   1   8 -19   22.74   35.59
   1   8 -19    3.66   31.94
  -1  -8  19  -24.90   32.79
  -1  -8  19    1.39   33.78
   8  -1  19  -98.93   70.67
   2   8 -19   78.69   40.10
  -2  -8  19    3.82   37.10
   4   8 -19  -27.86   86.72
   4   8 -19  403.97   89.90
  -4  -8  19   27.14   90.59
  -4  -8  19  448.99   89.65
   5   8 -19   43.54   35.91
   5   8 -19    2.91   39.31
  -5  -8  19   -1.69   42.44
  -5  -8  19  -29.50   36.81
   6   8 -19    6.05   42.78
  -6  -8  19  -32.26   46.32
  -6  -8  19   30.56   41.06
   7   8 -19  199.11   81.47
   7   8 -19  235.30   78.83
  -7  -8  19   95.20   83.91
  -7  -8  19  237.47   79.21
   8   8 -19   47.59   50.14
   8   8 -19   75.96   42.05
  -8  -8  19    9.28   44.76
  -8  -8  19    2.03   52.12
   9   8 -19  132.35   68.12
   9   8 -19  195.58   73.55
  -9  -8  19  180.09   71.39
  -9  -8  19   86.58   76.81
   9   7 -19   26.60   52.61
   9   7 -19   63.52   40.97
  -9  -7  19   15.61   51.93
  -9  -7  19   69.01   48.60
   9   6 -19  -23.00   34.74
   9   6 -19    5.18   49.08
  -9  -6  19   69.91   45.52
  -9  -6  19   -5.31   45.46
   9   5 -19   36.87   29.02
   9   5 -19   72.03   51.25
  -9  -5  19    1.61   39.61
  -9  -5  19   -6.94   46.03
   9   4 -19   -1.44   26.89
   9   4 -19   57.33   52.54
  -9  -4  19    4.31   46.19
  -3   9 -19    6.06   30.53
   9   3 -19  -38.63   55.63
  -3   9 -19  -14.73   36.32
   9   3 -19   18.28   22.56
  -9  -3  19  -28.78   47.19
  -2   9 -19    7.21   33.75
   9   2 -19    2.21   47.45
   9   2 -19   -2.65   22.20
  -2   9 -19    2.02   31.99
  -9  -2  19    6.40   36.29
   2  -9  19   12.42   34.26
   2  -9  19   17.80   32.22
   9   1 -19   22.39   27.15
  -1   9 -19   30.37   34.99
  -1   9 -19    8.16   32.42
   1  -9  19   -4.61   33.09
   1  -9  19   52.61   35.73
   9   0 -19   34.49   31.12
   0   9 -19   51.79   38.77
   0  -9  19   18.72   34.63
   9   0  19   92.45   82.27
   0  -9  19   61.93   38.06
   9  -1  19 -106.30   77.47
   2   9 -19  -15.28   35.35
  -2  -9  19  -36.70   40.75
   3   9 -19  -25.92   35.68
   3   9 -19   30.66   35.09
  -3  -9  19    9.56   36.73
  -3  -9  19   -7.02   39.83
   4   9 -19    1.41   40.31
   4   9 -19   52.45   39.52
  -4  -9  19  -28.98   45.25
  -4  -9  19  129.02   42.68
   5   9 -19   33.65   39.88
   5   9 -19   54.66   42.08
  -5  -9  19   19.70   40.46
  -5  -9  19  -22.98   46.02
   6   9 -19   95.71   44.58
   6   9 -19   22.31   41.56
  -6  -9  19   -2.03   46.26
  -6  -9  19  -30.27   41.68
   7   9 -19  -80.42   45.43
   7   9 -19  -18.14   43.43
  -7  -9  19   32.29   44.44
   8   9 -19  160.31   61.57
   8   9 -19   81.48   64.20
  -8  -9  19  127.93   62.85
  -8  -9  19   50.33   69.62
   9   9 -19  -59.98   48.81
   9   9 -19    3.82   54.83
  -9  -9  19    1.48   48.45
  -9  -9  19    2.44   57.01
  10   9 -19    3.01   53.66
  10   9 -19   26.31   56.39
 -10  -9  19   80.05   54.16
 -10  -9  19   56.07   64.65
  10   8 -19 -118.60   47.72
  10   8 -19 -110.03   59.21
 -10  -8  19    2.37   60.94
 -10  -8  19 -186.04   55.65
  10   7 -19  125.32   48.52
  10   7 -19   63.77   59.01
 -10  -7  19  117.27   61.53
 -10  -7  19   53.04   56.87
  10   6 -19   36.69   37.83
  10   6 -19   -1.85   50.60
 -10  -6  19   34.26   46.50
 -10  -6  19   -1.46   49.06
  10   5 -19    9.45   51.38
  10   5 -19   42.68   32.15
 -10  -5  19   16.32   47.43
 -10  -5  19 -105.40   43.09
  10   4 -19   15.93   53.23
  10   4 -19  -37.05   29.14
 -10  -4  19  -15.34   49.54
  10   3 -19   19.24   58.99
  10   3 -19   25.28   26.93
 -10  -3  19   41.96   51.72
  10   2 -19 -119.70   63.19
  -2  10 -19   82.04   37.72
  10   2 -19   33.93   29.01
 -10  -2  19    1.68   51.66
   2 -10  19  107.08   43.08
  10   1 -19  135.67   53.58
  10   1 -19   77.36   84.91
 -10  -1  19   44.63   85.97
  10   0  19  709.09  225.14
 -10   1 -19  -53.23  102.92
   1  10 -19  122.73   58.43
  10  -1  19   61.34   99.49
  -1 -10  19  -32.33   64.26
   2  10 -19  -92.98   38.52
   2  10 -19  -24.33   35.94
  -2 -10  19   28.80   44.81
  -2 -10  19    7.82   38.38
   3  10 -19   38.36   38.14
   3  10 -19   22.73   40.73
  -3 -10  19  -96.52   46.44
  -3 -10  19   -2.31   38.13
   4  10 -19   37.66   40.85
   4  10 -19   10.26   38.66
  -4 -10  19   19.13   40.18
  -4 -10  19   25.34   48.82
   5  10 -19   -2.67   39.86
   5  10 -19    1.51   41.52
  -5 -10  19   12.41   41.05
  -5 -10  19  -49.81   50.15
   6  10 -19   75.21   47.13
   6  10 -19   -1.58   44.50
  -6 -10  19  -61.30   42.93
  -6 -10  19   -2.29   50.57
   7  10 -19    1.71   49.33
  -7 -10  19   34.10   47.41
   8  10 -19  -11.08   50.58
   8  10 -19   24.40   49.87
  -8 -10  19  -46.40   63.59
  -8 -10  19  -46.27   52.06
   9  10 -19  -50.67   54.36
   9  10 -19   54.47   54.15
  -9 -10  19    2.75   63.19
  -9 -10  19   15.25   52.77
  10  10 -19    2.12   56.95
  10  10 -19  -47.25   54.44
 -10 -10  19 -111.82   68.65
 -10 -10  19  -19.70   56.35
  11  10 -19    6.90   65.89
  11  10 -19  -83.93   58.74
 -11 -10  19  -98.48   62.30
 -11 -10  19    3.24   75.01
  11   9 -19  113.88   64.27
  11   9 -19   62.74   57.04
 -11  -9  19    2.86   66.50
 -11  -9  19   45.86   60.44
  11   8 -19   18.71   59.70
  11   8 -19   37.75   52.24
 -11  -8  19   87.48   56.68
 -11  -8  19   30.54   64.90
  11   7 -19  621.53  143.63
  11   7 -19  312.55  136.15
 -11  -7  19  151.41  142.93
 -11  -7  19  530.97  144.49
  11   6 -19   40.85   40.01
  11   6 -19    2.00   53.86
 -11  -6  19   31.06   51.87
 -11  -6  19   -7.92   52.24
  11   5 -19   32.16   51.74
  11   5 -19   -1.91   34.02
 -11  -5  19  -57.44   50.82
 -11  -5  19    6.42   50.41
  11   4 -19   10.55   55.84
  11   4 -19  -10.23   33.43
 -11  -4  19    7.14   43.94
 -11  -4  19  -34.83   54.89
  11   3 -19   50.04   58.91
  11   3 -19  -25.08   29.07
 -11  -3  19   -5.16   53.99
  11   2 -19   47.23   33.12
  11   2 -19   51.17   63.74
 -11  -2  19   26.83   57.60
  11   1 -19    3.21   32.85
  11   1 -19   22.44   60.74
 -11  -1  19    3.77   57.87
  11   1  19  -88.09   99.97
   0  11 -19  238.95   81.09
  11   0 -19  282.75   72.14
   0 -11  19    6.91   84.11
   1  11 -19  -53.38   43.18
  -1 -11  19   -6.86   49.88
   2  11 -19   43.74   42.73
   2  11 -19   46.03   43.36
  -2 -11  19  101.96   53.76
   3  11 -19    1.44   38.51
   3  11 -19   -5.66   41.65
  -3 -11  19   11.83   51.41
   4  11 -19   41.06   45.11
   4  11 -19  -67.17   42.47
  -4 -11  19  -69.32   53.68
   5  11 -19   44.71   46.83
   5  11 -19   17.24   43.22
  -5 -11  19   -2.60   56.95
  -5 -11  19 -112.94   44.63
   6  11 -19  -18.64   48.35
   6  11 -19    1.64   44.09
  -6 -11  19   -2.63   57.69
  -6 -11  19  -49.68   46.52
   7  11 -19    1.76   69.65
  -7 -11  19  101.93   76.19
   8  11 -19   64.53   53.76
   8  11 -19   89.40   53.80
  -8 -11  19   -7.80   52.23
  -8 -11  19   -2.96   66.79
   9  11 -19  135.51   56.27
   9  11 -19 -107.75   57.33
  -9 -11  19  -81.90   69.99
  -9 -11  19  -54.10   52.01
  10  11 -19 -117.43   61.71
  10  11 -19    3.75   59.57
 -10 -11  19  -38.58   76.79
 -10 -11  19    1.75   59.45
  11  11 -19  -82.29   65.52
  11  11 -19  -20.26   60.45
 -11 -11  19   78.94   89.55
 -11 -11  19  -35.73   65.28
  12  11 -19   34.31   67.88
  12  11 -19   66.78   69.94
 -12 -11  19  -60.56   85.94
 -12 -11  19    2.00   68.21
  12  10 -19  584.24  187.29
  12  10 -19  583.76  178.63
 -12 -10  19  312.02  187.77
 -12 -10  19  616.07  195.57
  12   9 -19   52.53   57.38
  12   9 -19  106.37   67.80
 -12  -9  19  -90.40   62.57
 -12  -9  19    9.23   70.35
  12   8 -19 -154.30   56.14
  12   8 -19  -98.48   62.21
 -12  -8  19  -90.61   68.03
 -12  -8  19  -72.51   61.29
  12   7 -19  -37.01   59.49
  12   7 -19    2.73   49.16
 -12  -7  19   15.61   56.85
 -12  -7  19    9.89   60.36
  12   6 -19   31.62   44.90
  12   6 -19 -162.63   61.08
 -12  -6  19 -122.13   59.62
 -12  -6  19 -105.18   59.59
  12   5 -19  336.30  128.16
  12   5 -19  134.75  113.40
 -12  -5  19  523.64  123.65
 -12  -5  19  445.73  130.02
  12   4 -19 -169.34   62.70
  12   4 -19  -75.91   37.03
 -12  -4  19 -137.68   51.77
 -12  -4  19  -40.88   59.03
  12   3 -19   -2.39   63.22
  12   3 -19   47.33   33.32
 -12  -3  19    7.34   58.84
  12   2 -19   35.97   30.18
  12   2 -19   20.33   63.01
 -12  -2  19  -19.05   57.32
  12   1 -19  160.44   50.42
  12   1  19   34.85  110.06
 -12  -1  19  125.54   73.98
  12   0 -19  -15.07   34.12
  12   0  19  -80.39   95.81
 -12   1 -19 -106.94  109.42
  12  -1  19   59.02   91.08
  12  -1  19   19.86   72.45
   2  12 -19   16.51   42.42
 -12   2 -19  -43.06  111.20
  12  -2  19  146.21   71.15
  12  -2  19   11.26   82.75
   3  12 -19    1.55   41.72
   4  12 -19   25.77   45.75
  -4 -12  19  -35.02   62.36
   5  12 -19   51.59   67.50
  -5 -12  19   27.56   85.27
   6  12 -19   -1.74   46.65
  -6 -12  19   37.27   70.04
   7  12 -19    1.85   50.77
  -7 -12  19   66.37   53.20
   8  12 -19    1.95   53.70
  -8 -12  19   -3.48   75.81
  -8 -12  19  -32.14   57.05
   9  12 -19   52.85   57.27
  -9 -12  19   39.03   58.76
  -9 -12  19    3.70   77.00
  10  12 -19  143.63  149.11
 -10 -12  19  534.72  157.00
 -10 -12  19  438.11  169.51
  11  12 -19 -113.33   68.48
 -11 -12  19   34.13   67.96
 -11 -12  19    4.38   91.44
  12  12 -19   26.95   75.51
 -12 -12  19   51.06   74.61
 -12 -12  19 -117.33  100.85
  13  12 -19 -185.51   83.15
 -13 -12  19   45.97   77.93
  13  11 -19  131.39   80.28
  13  11 -19   68.21   70.86
 -13 -11  19  -86.97   97.07
 -13 -11  19   -2.19   75.43
  13  10 -19  -34.48   72.42
  13  10 -19   53.37   62.48
 -13 -10  19  -38.76   83.86
 -13 -10  19    8.28   71.12
 -13  -9  19 -232.27   93.31
  13   8 -19   28.96   68.16
  13   8 -19    6.85   57.48
 -13  -8  19    3.04   72.46
 -13  -8  19   55.79   66.65
  13   7 -19   78.73   55.21
  13   7 -19  -30.29   65.65
 -13  -7  19   16.30   68.36
 -13  -7  19  -31.96   62.59
  13   6 -19   -2.32   62.02
  13   6 -19   32.31   49.28
 -13  -6  19    1.85   60.31
 -13  -6  19  -76.67   58.51
  13   5 -19    2.37   63.97
  13   5 -19  -50.37   44.14
 -13  -5  19  -24.23   60.88
 -13  -5  19  -95.45   55.67
  13   4 -19  -98.24   65.82
  13   4 -19    2.13   36.43
 -13  -4  19   34.12   53.05
 -13  -4  19  -45.69   61.62
  13   3 -19 -153.03   69.23
  13   3 -19    5.70   34.83
 -13  -3  19  157.47   62.15
  13   2 -19  -26.25   67.19
  13   2 -19  -10.63   33.63
 -13  -2  19    8.07   60.69
  13   1 -19   32.93   49.35
  13   1  19  179.21  119.71
 -13  -1  19   86.00   83.33
  13   0 -19  104.78   74.03
 -13   0 -19  135.38  135.42
  13   0  19  392.01  124.95
 -13   1 -19   64.71  168.55
  13  -1  19  575.89  147.53
  13  -1  19  349.33  139.00
 -13   2 -19 -108.64  118.75
 -13   2 -19  -29.67  127.49
  14  11 -19    3.03   88.89
 -14 -11  19  130.25   88.74
  14  10 -19   98.43   73.93
  14  10 -19    2.86   82.38
 -14 -10  19  -75.29   93.93
 -14 -10  19   58.51   79.77
  14   9 -19   43.22   74.91
  14   9 -19  -77.11   66.57
 -14  -9  19    3.68   84.19
 -14  -9  19    4.35   76.03
  14   8 -19   31.26   72.96
  14   8 -19    3.66   65.00
 -14  -8  19   41.68   73.39
 -14  -8  19  -32.90   77.00
  14   7 -19 1929.11  656.58
  14   7 -19 2147.67  695.58
 -14  -7  19 1534.19  701.51
 -14  -7  19 2189.13  727.87
  14   6 -19   54.95   53.52
  14   6 -19   75.60   68.22
 -14  -6  19  -20.06   68.65
 -14  -6  19   21.89   66.79
  14   5 -19    2.58   66.77
  14   5 -19   64.81   46.09
 -14  -5  19   22.44   62.76
 -14  -5  19 -133.17   67.57
  14   4 -19   37.02   42.81
  14   4 -19 -120.64   69.12
 -14  -4  19   44.67   66.01
 -14  -4  19   65.47   59.97
  14   3 -19  125.55   67.85
  14   3 -19  -46.53   38.84
 -14  -3  19  -75.97   65.28
 -14  -3  19    2.21   57.69
  14   2 -19   21.60   67.88
  14   2 -19  -31.83   39.24
 -14  -2  19  -63.58   63.24
  14   1 -19  104.03   54.82
  14   1  19  236.81  122.13
  14   0 -19    4.18   40.28
 -14   0 -19   21.88  125.01
  14   0  19   89.69   99.22
 -14   1 -19   33.97  137.20
  14  -1  19  -71.87   84.30
  14  -1  19    1.93   87.59
 -14   2 -19  -83.75  141.88
 -14   2 -19   33.18  122.05
  14  -2  19   87.45   98.29
  14  -2  19  106.89   86.59
  14  -3  19   15.57   89.71
  14  -3  19  219.97  107.98
  15  10 -19  -71.44   75.91
  15  10 -19  -30.74   85.37
 -15 -10  19   56.60  108.55
 -15 -10  19  -39.02   86.46
  15   9 -19  -90.30   81.33
  15   9 -19  -66.42   71.34
 -15  -9  19   -4.09   93.19
 -15  -9  19 -118.64   82.71
  15   8 -19   33.77   75.28
  15   8 -19  101.19   68.93
 -15  -8  19   14.56   87.23
 -15  -8  19 -187.07   78.50
  15   7 -19    8.19   73.59
  15   7 -19   50.47   61.79
 -15  -7  19   30.65   76.67
 -15  -7  19 -140.39   79.94
  15   6 -19    2.73   73.51
  15   6 -19 -100.08   58.07
 -15  -6  19   35.58   71.99
 -15  -6  19  227.13   75.65
  15   5 -19   -2.73   75.16
  15   5 -19  -37.95   57.25
 -15  -5  19    2.71   69.13
 -15  -4  19 -149.85   69.02
 -15  -4  19  -98.92   77.10
 -15  -3  19   72.14   64.03
  15   1  19 -103.06  120.51
 -15   0 -19 -209.23  144.96
  15   0  19   89.46  101.18
 -15   1 -19   33.44  152.74
  15  -1  19  -42.03  101.26
  15  -1  19 -112.66   93.30
 -15   2 -19   59.54  132.62
 -15   2 -19  -61.33  159.91
  15  -2  19   54.95   91.27
  15  -2  19  -13.18  106.66
 -15   3 -19   -9.21  172.78
 -15   3 -19  156.85  134.79
  16   1  19 -155.73  130.86
 -16   0 -19  136.52  169.15
  16   0  19 -221.64  117.19
 -16   1 -19 -157.00  173.59
 -16   1 -19   85.14  161.26
  16  -1  19 -162.49  110.71
  16  -1  19 -283.47  124.69
 -16   2 -19  -97.81  183.01
 -16   2 -19 -161.94  149.48
  16  -2  19  -13.24  102.89
  16  -2  19  120.61  119.06
 -16   3 -19 -105.86  183.62
 -16   3 -19 -234.11  142.62
  16  -3  19  -40.15  119.00
  16  -3  19   30.68  106.79
  17   1  19  -13.07  116.83
 -17   0 -19    6.18  180.40
  17   0  19   49.52  122.94
 -17   1 -19    6.17  198.15
 -17   1 -19   88.38  166.37
  17  -1  19   35.97  115.58
  17  -1  19   35.74  127.67
 -17   2 -19   56.10  210.32
 -17   2 -19   50.38  162.49
  17  -2  19   -7.63  117.84
  17  -2  19  107.48  132.68
 -17   3 -19   67.12  210.94
 -17   3 -19  -39.36  157.74
  17  -3  19   74.12  120.90
  17  -3  19  -45.54  133.51
 -18   0 -19    7.05  211.27
 -18   1 -19   14.16  225.40
 -18   1 -19 -115.53  166.99
  18  -1  19  127.44  131.32
 -18   2 -19   14.36  235.14
  18  -2  19   -1.57  103.24
  18  -2  19  -60.36  131.59
 -18   3 -19 -112.80  247.09
  18  -3  19  -41.77  133.05
   0   1 -20  -11.23   15.40
   1   1 -20   18.15   16.94
  -1   1 -20   15.66   15.16
  -1  -1  20    8.24   37.42
  -1   2 -20   -4.16   14.31
  -1   2 -20  -20.66   46.62
   2   1 -20    8.57   15.70
  -2  -1  20  -63.73   38.39
   1  -2  20    6.37   37.63
   0   2 -20   24.66   48.27
   0   2 -20   10.39   16.47
   0  -2  20   -3.81   35.51
   1   2 -20  -16.30   48.73
  -2   1 -20   10.22   14.29
   1   2 -20    4.52   16.28
  -1  -2  20  -26.72   37.72
  -2   2 -20   87.61   40.90
   2   2 -20  112.12   40.44
   2   2 -20  339.53   70.48
  -2   2 -20   52.23   66.81
   2  -2  20   59.20   57.68
   3   2 -20 -133.29   52.67
   3   2 -20   24.07   17.94
  -2   3 -20   15.62   14.71
  -2   3 -20  -28.80   50.88
  -3  -2  20   -5.29   39.14
   2  -3  20    3.54   37.03
  -1   3 -20  181.41   71.26
   3   1 -20   88.83   47.63
  -1   3 -20  153.46   48.41
   3   1 -20  224.36   72.60
   1  -3  20   98.78   62.56
  -3  -1  20  207.60   64.65
   0   3 -20    5.30   16.99
   0   3 -20   39.71   48.23
   0  -3  20   15.28   36.59
  -3   1 -20   40.39   45.44
   1   3 -20  185.57   45.87
   1   3 -20  172.00   66.48
  -1  -3  20  174.27   60.64
   2   3 -20   10.48   16.98
  -3   2 -20   23.25   14.34
   2   3 -20  -62.78   48.95
  -2  -3  20  -18.07   38.70
  -3   3 -20  338.10  171.14
  -3   3 -20  380.47  144.18
   3   3 -20  667.24  157.99
   3   3 -20  485.76  136.40
  -3  -3  20  305.46  155.08
   3  -3  20  339.94  162.85
   4   3 -20    7.24   47.08
   4   3 -20    5.20   16.99
  -3   4 -20   -7.01   47.83
  -3   4 -20   17.07   16.57
  -4  -3  20   34.30   38.93
   3  -4  20   35.13   37.96
   4   2 -20  361.17  107.03
  -2   4 -20  229.48  105.71
   4   2 -20  292.60   85.65
  -2   4 -20  214.24   89.80
  -4  -2  20  259.30  101.90
   2  -4  20  264.06  100.49
   4   1 -20  -15.45   50.06
  -1   4 -20   -6.48   43.12
  -1   4 -20  -11.64   15.93
   4   1 -20   13.94   19.21
  -4  -1  20   27.55   39.21
   1  -4  20  -13.98   35.36
   0   4 -20  330.72   90.65
   0   4 -20  204.55  106.30
   0  -4  20  220.20  102.65
   1   4 -20   -4.79   16.93
  -4   1 -20   -3.56   12.95
   1   4 -20  -29.71   41.21
  -1  -4  20  -45.78   34.49
  -4   2 -20  123.39   88.25
   2   4 -20  299.60   86.07
   2   4 -20  324.60   98.35
  -2  -4  20  313.50   96.86
   3   4 -20   18.55   19.72
  -4   3 -20  -20.50   55.61
  -4   3 -20   11.97   16.00
   3   4 -20   39.73   43.46
  -3  -4  20   53.66   37.64
   4   4 -20   47.22   27.20
   4   4 -20  118.10   48.63
  -4  -4  20   31.88   43.19
   5   4 -20   71.52   52.61
  -5  -4  20   78.67   48.69
  -3   5 -20  321.39  139.18
   5   3 -20  544.93  129.38
  -3   5 -20  342.70  156.19
   5   3 -20  399.68  149.12
  -5  -3  20  441.10  148.36
   3  -5  20  440.05  149.39
   3  -5  20  288.39  134.80
  -2   5 -20  421.79  144.64
   5   2 -20  386.00  119.95
   5   2 -20  330.64  144.78
  -2   5 -20  310.64  129.94
   2  -5  20  396.50  139.55
  -5  -2  20  450.83  144.08
   2  -5  20  301.25  126.39
   5   1 -20  247.05  146.97
  -1   5 -20  398.31  127.43
  -1   5 -20  320.58  140.97
  -5  -1  20  365.43  145.96
   1  -5  20  353.02  125.13
   1  -5  20  409.19  137.20
   0   5 -20   11.42   39.29
   0   5 -20   -6.57   19.22
   0  -5  20   -0.95   24.02
   0  -5  20   14.01   33.62
   1   5 -20  449.02  150.16
   1   5 -20  372.37  140.46
  -1  -5  20  390.01  148.80
  -1  -5  20  468.45  140.95
   2   5 -20  406.35  129.16
   2   5 -20  386.96  138.64
  -2  -5  20  363.66  138.35
   3   5 -20  317.90  113.55
   3   5 -20  271.52  123.40
  -3  -5  20  369.93  124.61
   4   5 -20  169.86   52.46
  -4  -5  20   28.04   48.82
  -3   6 -20  193.54   80.07
  -3   6 -20  190.86   92.55
   3  -6  20  297.86   87.17
   3  -6  20  196.50   78.13
  -2   6 -20  130.43   53.24
   6   2 -20  115.02   74.92
  -2   6 -20  124.41   63.07
   2  -6  20  136.33   51.95
  -6  -2  20  135.84   67.96
   2  -6  20  134.19   60.16
  -1   6 -20   63.05   37.61
   6   1 -20   50.56   63.33
  -1   6 -20  110.37   48.45
  -6  -1  20   35.77   53.26
   1  -6  20   82.55   44.63
   1  -6  20   90.87   37.32
   0   6 -20   53.86   30.28
   0   6 -20   72.91   41.81
   0  -6  20   57.22   38.79
   0  -6  20   46.12   31.89
   1   6 -20  129.44   47.97
   1   6 -20  155.30   56.10
  -1  -6  20  115.74   53.23
  -1  -6  20  124.63   49.29
   2   6 -20  168.18   61.44
   2   6 -20  174.17   68.79
  -2  -6  20  190.02   63.38
  -2  -6  20  161.76   67.83
   3   6 -20  155.17   83.93
  -3  -6  20  263.54   83.23
   5   6 -20  106.05   37.22
  -5  -6  20   27.76   41.00
   6   6 -20   45.59   48.66
  -6  -6  20   49.56   45.07
   7   6 -20   -1.64   51.64
   7   6 -20   24.16   32.06
  -7  -6  20   22.19   43.11
  -7  -6  20 -128.89   46.07
   7   5 -20   20.24   25.98
   7   5 -20  -37.10   45.77
  -7  -5  20  -67.20   41.74
  -7  -5  20  -84.32   37.53
   7   4 -20  313.98   99.62
  -7  -4  20  278.77   96.85
   7   3 -20    2.44   22.86
  -3   7 -20    2.70   37.83
  -3   7 -20    4.39   23.52
   3  -7  20   14.63   25.95
   3  -7  20   25.99   32.48
  -2   7 -20  193.51   64.43
  -2   7 -20  110.01   54.60
   2  -7  20  117.75   54.64
   2  -7  20  143.78   59.37
  -1   7 -20   35.91   27.65
  -1   7 -20   17.38   37.71
   1  -7  20   44.59   28.79
   1  -7  20  -20.63   33.40
   0   7 -20  -14.14   27.33
   0   7 -20   -6.74   37.47
   0  -7  20   13.05   29.53
   0  -7  20   27.51   33.53
   1   7 -20    9.81   29.56
   1   7 -20   19.11   38.37
  -1  -7  20   37.61   31.38
  -1  -7  20  -41.01   34.56
   2   7 -20   66.65   59.95
  -2  -7  20  181.51   58.35
   4   7 -20   54.91   41.20
  -4  -7  20    1.46   43.76
   5   7 -20    1.53   41.62
   5   7 -20   11.05   31.62
  -5  -7  20   42.72   40.44
  -5  -7  20  -24.68   37.72
   6   7 -20    1.59   47.85
  -6  -7  20    1.21   43.19
  -6  -7  20  -67.08   44.09
   7   7 -20  267.10   75.12
   7   7 -20 -199.69   90.26
  -7  -7  20  351.95   81.21
   8   7 -20    1.76   51.83
   8   7 -20   31.64   39.60
  -8  -7  20   11.12   53.20
  -8  -7  20    1.37   46.21
   8   6 -20    1.75   48.73
   8   6 -20   23.64   32.42
  -8  -6  20  -11.84   44.23
  -8  -6  20  -94.08   44.96
   8   5 -20  -11.03   29.24
   8   5 -20   89.68   50.98
  -8  -5  20  -60.89   46.89
  -8  -5  20    1.56   38.95
   8   4 -20   32.93   23.76
   8   4 -20  -34.38   52.35
  -8  -4  20   58.99   46.72
   8   3 -20   33.29   56.01
  -3   8 -20   15.85   34.03
  -3   8 -20   13.51   48.50
   8   3 -20   15.47   27.48
  -8  -3  20   36.46   51.47
  -2   8 -20  -29.87   42.13
   8   2 -20  225.12   56.15
  -2   8 -20   26.63   33.39
   8   2 -20   -5.32   25.31
   2  -8  20   -4.63   35.33
   2  -8  20  -21.72   31.10
  -8  -2  20  216.86   47.93
  -1   8 -20   14.26   33.20
  -1   8 -20   60.17   41.01
   8   1 -20   19.60   28.42
   1  -8  20   52.08   34.98
   1  -8  20   82.99   38.48
   0   8 -20   76.30   33.43
   0   8 -20  -10.81   37.64
   8   0  20  -40.30   73.28
   0  -8  20   19.14   33.12
   0  -8  20   55.53   34.79
   1   8 -20   19.20   39.05
   3   8 -20  320.34   55.36
   3   8 -20    4.05   52.73
  -3  -8  20    1.57   55.42
   4   8 -20   52.68   43.72
   4   8 -20  -20.24   37.85
  -4  -8  20   19.21   40.02
  -4  -8  20    1.63   43.02
   5   8 -20  -54.48   43.80
   5   8 -20   52.62   39.02
  -5  -8  20  -58.73   41.75
  -5  -8  20  -41.25   40.71
   6   8 -20   21.02   47.79
   6   8 -20   41.65   40.33
  -6  -8  20   25.06   43.32
  -6  -8  20    1.83   45.78
   7   8 -20    1.72   46.77
  -7  -8  20    3.95   45.86
   8   8 -20  225.43   73.20
   8   8 -20  120.83   77.13
  -8  -8  20    8.42   79.81
  -8  -8  20  263.21   76.93
   9   8 -20   11.59   52.63
   9   8 -20  125.70   46.32
  -9  -8  20    2.24   55.27
  -9  -8  20  -27.05   50.40
   9   7 -20  263.61   94.20
   9   7 -20  217.67  102.73
  -9  -7  20  139.25  103.54
  -9  -7  20  327.36  104.47
   9   6 -20   78.95   42.08
   9   6 -20    9.24   57.19
  -9  -6  20   79.70   56.29
  -9  -6  20  123.11   54.13
   9   5 -20   -1.89   50.95
   9   5 -20  -25.17   32.29
  -9  -5  20   26.54   47.56
  -9  -5  20    1.67   43.31
   9   4 -20    4.02   53.42
   9   4 -20   13.63   28.76
  -9  -4  20   22.92   49.20
   9   3 -20    2.18   56.66
   9   3 -20   26.17   25.26
  -9  -3  20   -8.04   48.85
  -2   9 -20   21.70   38.97
   9   2 -20   31.09   61.20
  -2   9 -20   16.54   35.39
   9   2 -20  -18.24   27.76
  -9  -2  20  -18.51   50.62
   2  -9  20   -9.21   37.37
   2  -9  20    6.63   36.77
   9   1 -20   16.38   37.03
  -1   9 -20  123.19   52.01
   9   1 -20  146.94   72.02
  -9  -1  20   48.21   61.31
   9   0  20  -95.25   89.23
   1   9 -20   62.15   44.54
  -1  -9  20    4.95   47.27
   2   9 -20  -17.82   37.50
   2   9 -20    1.44   38.95
  -2  -9  20  -69.49   38.02
  -2  -9  20   12.95   38.99
   3   9 -20   67.20   38.70
   3   9 -20  -64.90   41.39
  -3  -9  20  -46.46   42.13
  -3  -9  20   24.58   38.80
   4   9 -20   42.54   43.70
   4   9 -20   62.65   41.26
  -4  -9  20    3.77   47.74
  -4  -9  20   44.08   41.92
   5   9 -20   -2.51   39.98
   5   9 -20    1.57   43.66
  -5  -9  20  120.39   43.28
  -5  -9  20  -59.73   49.06
   6   9 -20   40.30   58.57
   6   9 -20  132.85   56.57
  -6  -9  20   31.57   61.16
  -6  -9  20  197.75   57.86
   7   9 -20  236.91  105.21
  -7  -9  20  294.88  106.71
   8   9 -20   42.82   50.94
   8   9 -20   32.01   53.20
  -8  -9  20  -81.67   48.12
  -8  -9  20 -121.22   59.00
   9   9 -20  104.93   53.04
   9   9 -20   51.57   55.67
  -9  -9  20 -121.52   64.71
  -9  -9  20  -39.18   54.12
  10   9 -20   91.59   52.69
  10   9 -20  -49.17   59.78
 -10  -9  20  -53.26   55.41
 -10  -9  20   -2.71   64.90
  10   8 -20  124.34   56.62
  10   8 -20   72.26   64.59
 -10  -8  20   32.45   63.51
 -10  -8  20   76.80   68.92
  10   7 -20  -55.83   45.18
 -10  -7  20 -112.61   55.84
 -10  -7  20  -75.47   53.74
  10   6 -20   87.22   58.30
  10   6 -20   25.58   42.84
 -10  -6  20   98.49   52.78
 -10  -6  20   20.31   53.96
  10   5 -20  158.21   48.06
  10   5 -20   57.20   64.20
 -10  -5  20   95.19   61.52
 -10  -5  20   65.68   57.07
  10   4 -20  -67.29   55.58
  10   4 -20  -24.33   30.32
 -10  -4  20    6.57   52.99
  10   3 -20    1.48   26.66
  10   3 -20   -4.61   59.51
 -10  -3  20  -54.66   51.92
  10   2 -20    7.48   61.14
  10   2 -20   32.94   28.71
 -10  -2  20   40.96   51.34
  10   1 -20    2.57   58.81
  10   1 -20  -14.60   29.78
  -1  10 -20    2.42   38.24
 -10  -1  20    1.88   50.23
   0  10 -20  480.09  117.03
   0  10 -20  156.44  110.90
   0 -10  20   47.17  113.29
   0 -10  20  462.08  118.30
   1  10 -20   67.08   40.06
   1  10 -20   39.56   38.76
  -1 -10  20  -15.21   44.79
  -1 -10  20  -26.71   38.89
   2  10 -20   25.65   42.32
   2  10 -20   20.04   40.74
  -2 -10  20    1.99   44.92
  -2 -10  20   79.36   41.98
   3  10 -20   46.87   44.03
   3  10 -20    8.83   40.59
  -3 -10  20  -38.53   47.85
  -3 -10  20    7.20   41.01
   4  10 -20  -32.49   43.38
   4  10 -20  -65.83   43.59
  -4 -10  20   17.07   50.33
  -4 -10  20   34.86   40.56
   5  10 -20    1.63   47.82
   5  10 -20  121.16   50.40
  -5 -10  20  111.36   48.00
  -5 -10  20  -94.46   55.24
   6  10 -20    1.74   48.58
   6  10 -20   61.65   48.69
  -6 -10  20  -26.17   57.50
  -6 -10  20   66.79   47.51
   7  10 -20   21.88   52.21
  -7 -10  20   24.26   49.52
   8  10 -20   55.08   69.34
   8  10 -20  256.55   67.77
  -8 -10  20  134.33   66.99
  -8 -10  20   69.58   77.49
   9  10 -20  -51.82   57.68
   9  10 -20   37.02   51.34
  -9 -10  20  -99.74   65.60
  -9 -10  20   12.89   52.63
  10  10 -20    2.24   63.21
  10  10 -20  123.95   58.13
 -10 -10  20   15.79   59.06
 -10 -10  20   76.14   75.74
  11  10 -20   55.83   68.23
  11  10 -20   -3.74   61.38
 -11 -10  20   -3.26   77.27
 -11 -10  20    5.68   64.02
  11   9 -20    6.91   66.62
  11   9 -20   -6.68   54.37
 -11  -9  20   26.70   70.60
 -11  -9  20    5.42   59.65
  11   8 -20   52.54   61.30
  11   8 -20 -157.99   52.49
 -11  -8  20   60.54   64.48
 -11  -8  20 -157.64   60.36
  11   7 -20    2.58   45.29
  11   7 -20   21.40   60.32
 -11  -7  20    7.13   61.11
 -11  -7  20  107.11   58.85
  11   6 -20  489.58  147.04
  11   6 -20  316.26  138.51
 -11  -6  20  544.68  146.96
  11   5 -20    2.17   58.44
  11   5 -20   -2.00   34.52
 -11  -5  20  -59.55   53.95
 -11  -5  20    9.83   51.38
  11   4 -20  -62.12   59.55
  11   4 -20   16.12   32.82
 -11  -4  20    3.72   46.52
 -11  -4  20   24.58   55.34
  11   3 -20  135.73   61.78
  11   3 -20    1.65   30.43
 -11  -3  20  -61.85   56.79
  11   2 -20   69.42   35.32
  11   2 -20 -103.90   67.03
 -11  -2  20   15.15   58.67
  -1  11 -20  343.77   97.24
  11   1 -20  300.79   84.54
   1 -11  20   48.24   97.16
 -11  -1  20  204.67  112.68
   0  11 -20   21.03   38.52
  11   0  20   17.36   89.81
   0 -11  20    2.28   45.39
   1  11 -20  185.94   94.03
   1  11 -20  325.66   96.33
  -1 -11  20  392.27   99.43
  -1 -11  20    6.77   97.35
   2  11 -20   28.00   46.26
   2  11 -20   11.48   46.74
  -2 -11  20  -16.42   55.66
  -2 -11  20   65.21   46.62
   3  11 -20    1.52   38.94
   3  11 -20    2.91   39.04
  -3 -11  20  -16.90   43.21
  -3 -11  20   17.15   53.17
   4  11 -20    3.02   46.14
   4  11 -20    1.58   44.57
  -4 -11  20 -187.17   57.25
  -4 -11  20  -44.36   45.18
   5  11 -20    1.67   45.00
   5  11 -20   91.00   48.85
  -5 -11  20  -11.18   46.74
  -5 -11  20    5.18   55.01
   6  11 -20    3.27   58.14
   6  11 -20  -82.30   61.05
  -6 -11  20   68.34   75.03
  -6 -11  20  117.37   63.30
  -7 -11  20   92.00   58.60
   8  11 -20   15.94   52.90
   8  11 -20  124.87   57.57
  -8 -11  20   70.61   68.87
  -8 -11  20  -55.23   55.60
   9  11 -20  -75.73   57.47
   9  11 -20    7.49   59.36
  -9 -11  20  116.30   57.84
  -9 -11  20    3.27   68.91
  10  11 -20   98.42   61.31
  10  11 -20   21.16   65.96
 -10 -11  20   -3.49   79.02
 -10 -11  20    1.84   63.28
  11  11 -20  112.23   71.19
  11  11 -20  -62.28   68.25
 -11 -11  20   41.08   87.33
 -11 -11  20   54.11   69.98
  12  11 -20  -87.83   74.14
  12  11 -20   21.70   71.93
 -12 -11  20   44.78   71.96
 -12 -11  20   37.60   91.55
  12  10 -20  -64.37   71.75
  12  10 -20 -178.20   67.96
 -12 -10  20   74.69   68.97
 -12 -10  20  -18.03   82.82
  12   8 -20  129.29   65.06
  12   8 -20   37.75   73.30
 -12  -8  20    8.50   77.29
 -12  -8  20  201.26   74.71
  12   7 -20  -91.54   62.19
  12   7 -20   54.32   48.76
 -12  -7  20   10.23   60.16
 -12  -7  20   55.22   61.95
  12   6 -20  -75.55   66.30
  12   6 -20  147.52   51.18
 -12  -6  20  141.12   62.25
 -12  -6  20    1.82   64.37
  12   5 -20    2.24   40.21
  12   5 -20 -103.70   62.35
 -12  -5  20  -21.46   55.93
 -12  -5  20  -34.85   60.45
  12   4 -20   31.86   39.17
  12   4 -20  -73.91   62.91
 -12  -4  20   11.26   62.65
 -12  -4  20  -66.63   51.41
  12   3 -20  -46.51   65.11
  12   3 -20   37.54   34.41
 -12  -3  20  -92.37   60.51
  -2  12 -20  143.55   55.36
  12   2 -20   -2.69   74.24
  12   2 -20  138.51   47.48
 -12  -2  20   50.13   72.21
  12   1 -20  -65.31   34.05
  -1  12 -20  -17.25   39.70
 -12  -1  20    2.09   59.81
   0  12 -20  338.68   66.56
  12   0  20 -256.03  109.50
   1  12 -20   28.75   43.91
 -12   1 -20  -77.66  106.01
  12  -1  20  -75.33   87.05
   2  12 -20  118.87   60.51
   3  12 -20   84.56   47.37
  -3 -12  20   14.46   63.99
   4  12 -20   19.88   45.52
  -4 -12  20 -262.55   61.17
   5  12 -20   -1.74   47.34
  -5 -12  20 -104.20   64.92
  -5 -12  20  -12.20   50.76
   6  12 -20   60.29   52.67
  -6 -12  20   12.92   73.11
  -6 -12  20   57.30   55.56
   7  12 -20  -21.58   50.36
  -7 -12  20   46.42   54.79
   8  12 -20  310.85   65.21
   8  12 -20    2.07   64.30
  -8 -12  20   75.98   83.47
  -8 -12  20    1.75   64.10
   9  12 -20   -2.26   62.16
  10  12 -20  -14.77   67.48
 -10 -12  20    4.10   89.61
 -10 -12  20   21.55   67.88
  11  12 -20   13.06   73.43
 -11 -12  20 -157.86   94.03
 -11 -12  20  -69.59   72.09
  12  12 -20  -39.93   77.61
 -12 -12  20   35.82   75.39
 -12 -12  20    4.70   96.76
  13  11 -20   28.58   76.36
  13  11 -20   47.08   82.80
 -13 -11  20   41.59   80.88
 -13 -11  20   -4.50  102.24
  13  10 -20   55.64   81.38
  13  10 -20   34.40   70.83
 -13 -10  20  105.41   77.92
 -13 -10  20    3.88   88.89
  13   9 -20   23.69   72.89
  13   9 -20   42.92   62.74
 -13  -9  20    3.43   79.39
 -13  -9  20    2.12   71.53
  13   8 -20 1212.71  579.46
  13   8 -20 2648.01  608.04
 -13  -8  20  719.72  616.14
 -13  -8  20 2175.10  631.91
  13   7 -20   54.59   72.38
  13   7 -20  131.32   59.58
 -13  -7  20    1.98   70.79
 -13  -7  20   50.61   72.99
  13   6 -20  -60.15   51.13
  13   6 -20  -64.79   69.30
 -13  -6  20   17.89   62.04
 -13  -6  20 -120.18   68.61
  13   5 -20   -7.24   46.34
  13   5 -20   79.70   68.07
 -13  -5  20    2.36   57.35
 -13  -5  20  101.39   67.36
  13   4 -20   62.61   41.36
  13   4 -20  -46.98   68.08
 -13  -4  20  -78.23   64.70
 -13  -4  20 -120.04   57.67
  13   3 -20  108.14   39.76
  13   3 -20  -38.03   71.36
 -13  -3  20    2.04   63.51
  13   2 -20  -16.71   70.19
  13   2 -20   76.92   37.99
 -13  -2  20   -2.11   65.50
  13   1 -20   54.44   42.97
  13   0  20  190.43  128.42
 -13   1 -20    7.73  115.85
  13  -1  20   64.05   87.17
  14  10 -20   22.87   73.83
  14  10 -20   98.84   82.72
 -14 -10  20 -183.42   82.62
 -14 -10  20  -43.22   93.03
  14   9 -20  -59.59   70.26
  14   9 -20  -42.65   78.55
 -14  -9  20  -45.50   81.26
 -14  -9  20   53.16   89.84
  14   8 -20 -168.66   69.12
  14   8 -20   57.35   76.29
 -14  -8  20 -153.12   82.33
 -14  -8  20   30.89   75.40
  14   7 -20   88.29   61.44
  14   7 -20  158.73   79.49
 -14  -7  20  107.36   77.94
 -14  -7  20 -161.25   79.57
  14   6 -20  852.05  527.63
  14   6 -20 1492.21  569.59
 -14  -6  20 1842.57  559.51
 -14  -6  20 2278.62  598.42
  14   5 -20   -2.72   50.26
  14   5 -20  -10.94   71.43
 -14  -5  20    2.56   60.01
 -14  -5  20  -87.31   72.46
  14   4 -20    2.43   46.66
  14   4 -20   83.50   72.19
 -14  -4  20   19.29   68.92
 -14  -4  20   26.46   59.79
  14   3 -20  -23.09   69.26
  14   3 -20  -51.31   41.64
 -14  -3  20    2.31   59.24
 -14  -3  20  155.83   66.57
  14   2 -20    2.87   66.50
  14   2 -20   16.84   38.38
 -14  -2  20  -57.91   64.71
  14   1 -20    2.09   38.74
  14   0  20    6.78  100.38
 -14   1 -20 -145.65  123.20
  14  -1  20   15.31   86.83
  14  -2  20  112.09  101.50
  15   9 -20   27.65   85.78
  15   9 -20    9.08   70.19
 -15  -9  20   36.94   83.33
 -15  -9  20  -57.57   94.08
  15   8 -20  184.39   74.55
  15   8 -20    2.96   82.50
 -15  -8  20 -120.34   82.54
 -15  -8  20 -179.39   84.83
  15   7 -20  143.52   83.84
  15   7 -20    7.57   66.58
 -15  -7  20 -104.52   83.56
 -15  -7  20   20.93   78.00
  15   6 -20  -64.43   62.08
  15   6 -20    2.89   76.44
 -15  -6  20   32.21   77.75
 -15  -6  20 -174.98   77.63
  15   5 -20 -131.83   54.04
  15   5 -20  -55.71   76.01
 -15  -5  20   36.42   74.47
 -15  -5  20    5.62   71.02
  15   4 -20   49.50   50.50
  15   4 -20   71.28   76.14
 -15  -4  20  -68.00   72.24
 -15  -4  20  -60.65   67.45
 -15  -3  20   96.48   70.32
 -15  -3  20  -70.34   65.20
 -15   1 -20 -302.09  188.37
  15  -2  20 -134.52  119.75
  16   0  20  -85.54  105.13
 -16   1 -20   59.53  168.65
 -16   1 -20  221.52  154.74
  16  -1  20  158.89  106.63
  16  -1  20 -107.90  118.46
 -16   2 -20   55.92  148.17
 -16   2 -20  102.86  172.99
  16  -2  20   67.53  105.12
  16  -2  20  -71.48  118.57
 -17   0 -20  -86.82  178.46
  17   0  20   -1.36  121.46
 -17   1 -20  166.40  167.68
 -17   1 -20  129.22  194.11
  17  -1  20  190.88  123.03
  17  -1  20   -2.83  134.40
 -17   2 -20 -111.48  204.63
 -17   2 -20  168.51  163.60
  17  -2  20   43.03  116.14
  17  -2  20   20.32  129.67
  18  -2  20   55.48  133.13
   0   1 -21   35.77   20.09
   1   1 -21    1.93   17.32
  -1   1 -21  -14.01   15.83
   2   1 -21   11.34   18.85
  -1   2 -21   25.58   17.40
  -1   2 -21    4.48   53.85
  -2  -1  21   44.61   40.70
   1  -2  21   16.48   38.80
   0   2 -21   -8.26   16.04
   0   2 -21  -15.54   49.66
   0  -2  21   10.97   38.82
   1   2 -21  101.46   52.86
   1   2 -21   15.32   18.26
  -2   1 -21   11.68   15.30
  -1  -2  21   -1.38   39.04
  -2   2 -21  -11.19   15.41
   2   2 -21   -2.03   17.65
   2   2 -21  -42.00   52.12
   2  -2  21   22.39   39.58
  -2  -2  21   -6.93   38.28
   3   2 -21  252.37   76.89
  -2   3 -21  166.96   76.72
  -2   3 -21   96.88   51.67
   3   2 -21   85.08   50.69
   2  -3  21  222.69   66.96
  -3  -2  21  212.96   66.75
  -1   3 -21   -6.18   51.12
  -1   3 -21   -2.71   16.38
   3   1 -21    8.66   19.25
  -3  -1  21  -45.36   40.02
   1  -3  21  -12.72   38.94
   0   3 -21  171.83   67.66
   0   3 -21   97.29   41.37
   0  -3  21  112.39   58.21
  -3   1 -21    9.54   13.95
   1   3 -21   21.75   50.36
   1   3 -21   -0.98   17.92
  -1  -3  21   15.40   38.49
   2   3 -21  237.79   73.25
   2   3 -21  134.62   51.55
  -3   2 -21  102.35   51.80
  -2  -3  21  204.09   66.75
   3   3 -21    1.96   50.71
  -3   3 -21  -37.22   56.85
  -3   3 -21   -2.52   15.09
   3   3 -21    3.15   19.41
   3  -3  21  -22.31   39.89
  -3  -3  21  -31.90   40.70
   4   3 -21  182.60   76.71
  -3   4 -21  154.23   59.21
  -3   4 -21  109.63   82.97
   3  -4  21  184.24   74.42
  -4  -3  21  142.01   72.98
   4   2 -21  -13.41   55.11
  -2   4 -21    1.88   49.25
  -2   4 -21   17.36   17.82
   4   2 -21   63.65   20.74
   2  -4  21   -8.32   38.70
  -4  -2  21  -41.93   42.03
  -1   4 -21  126.84   61.82
  -1   4 -21  191.49   79.89
   4   1 -21  150.32   60.20
   4   1 -21  231.60   82.34
  -4  -1  21  197.82   76.40
   1  -4  21  306.76   74.18
   0   4 -21    8.81   17.57
   0   4 -21   -3.59   45.95
   0  -4  21   -3.56   39.70
   1   4 -21  226.85   55.55
  -4   1 -21   35.48   55.33
   1   4 -21  296.06   73.04
  -1  -4  21  161.67   67.38
  -4   2 -21   -2.36   15.59
   2   4 -21   11.47   18.04
   2   4 -21   41.82   46.27
  -2  -4  21   12.10   38.23
   3   4 -21  249.85   70.33
   3   4 -21  161.71   85.22
  -3  -4  21  203.22   82.32
   5   4 -21   11.80   23.51
  -3   5 -21   85.43   34.94
  -3   5 -21   91.37   59.26
   3  -5  21   66.94   35.05
   3  -5  21   78.42   47.94
  -2   5 -21  241.50   90.19
  -2   5 -21  202.17   74.76
   2  -5  21  235.32   84.48
   2  -5  21  161.59   72.46
  -1   5 -21   78.29   47.79
   5   1 -21    2.40   56.29
  -1   5 -21   45.74   26.30
   1  -5  21   45.58   30.01
  -5  -1  21   25.47   45.84
   1  -5  21   73.49   40.92
   0   5 -21  345.20  119.78
   0   5 -21  218.18  107.29
   0  -5  21  322.33  106.51
   0  -5  21  357.57  116.32
   1   5 -21   -4.74   44.96
   1   5 -21   82.47   26.40
  -1  -5  21   21.22   40.72
   2   5 -21  266.32   78.80
   2   5 -21  203.44   91.39
  -2  -5  21  212.59   88.46
   3   5 -21   66.83   62.02
  -3  -5  21  201.23   59.92
   5   5 -21  338.50  133.92
  -5  -5  21  490.25  133.87
   6   5 -21   -5.25   47.29
  -6  -5  21   -1.33   44.03
  -6  -5  21    1.42   34.78
   6   4 -21  271.59   85.11
  -6  -4  21  181.42   80.23
  -3   6 -21  125.18   44.14
  -3   6 -21   75.83   59.44
   3  -6  21   98.06   42.14
  -2   6 -21  298.63   96.67
  -2   6 -21  199.73   85.70
   2  -6  21  237.01   83.01
   2  -6  21  242.80   92.21
  -1   6 -21   79.18   45.74
  -1   6 -21   18.71   28.82
   1  -6  21   94.39   40.69
   1  -6  21   45.11   30.69
   0   6 -21   -1.49   39.82
   0   6 -21   -1.39   26.38
   0  -6  21    1.09   27.47
   0  -6  21   -3.17   36.45
   1   6 -21   27.61   28.83
   1   6 -21    1.48   42.70
  -1  -6  21   55.18   38.65
  -1  -6  21   49.22   31.58
   2   6 -21  107.97   75.02
  -2  -6  21  189.18   72.66
   4   6 -21   -1.56   49.89
   4   6 -21  227.39   44.18
  -4  -6  21    8.33   50.02
  -4  -6  21   84.38   47.80
   5   6 -21  -76.55   45.25
   5   6 -21  -12.67   31.63
  -5  -6  21   11.17   43.21
  -5  -6  21    4.33   34.54
   6   6 -21  -24.83   35.13
   6   6 -21 -145.33   50.80
  -6  -6  21  -75.35   47.36
  -6  -6  21    1.53   42.38
   7   6 -21   27.72   37.07
   7   6 -21    1.76   53.27
  -7  -6  21  128.50   49.51
   7   5 -21   -1.83   50.75
   7   5 -21   24.22   30.97
  -7  -5  21    1.51   39.25
  -7  -5  21  -57.21   48.05
   7   4 -21  -52.91   55.76
   7   4 -21   -4.07   24.24
  -7  -4  21  -71.25   47.20
   7   3 -21   37.25   27.97
  -3   7 -21  -13.38   53.32
   7   3 -21    8.58   58.66
  -3   7 -21   15.52   37.03
  -7  -3  21   36.86   52.58
   7   2 -21   17.21   23.73
  -2   7 -21   -4.73   27.74
  -2   7 -21   -4.40   42.95
   7   2 -21   14.31   60.59
   2  -7  21   14.99   36.15
  -7  -2  21   93.63   47.09
   2  -7  21   16.78   28.02
  -1   7 -21   -1.47   44.05
   7   1 -21   -1.38   28.28
   7   1 -21  385.69   62.27
  -1   7 -21    4.78   32.38
   1  -7  21   15.12   32.16
   1  -7  21   24.51   39.56
   0   7 -21   33.26   31.20
   0   7 -21    1.46   41.62
   0  -7  21   44.32   31.61
   0  -7  21    4.18   38.35
   1   7 -21   32.37   42.94
  -1  -7  21   20.14   38.93
   4   7 -21   52.17   46.10
   4   7 -21    7.14   41.41
  -4  -7  21 -102.76   41.61
  -4  -7  21 -147.62   48.11
   5   7 -21  -99.41   49.45
   5   7 -21 -127.82   53.65
  -5  -7  21 -105.55   45.56
  -5  -7  21 -165.16   58.43
   6   7 -21   47.31   50.08
   6   7 -21   24.13   39.18
  -6  -7  21   -1.30   45.71
  -6  -7  21    6.78   43.76
   7   7 -21  -44.01   50.50
  -7  -7  21   74.97   48.20
   8   7 -21   44.09   39.29
   8   7 -21   -1.87   55.05
  -8  -7  21  148.08   53.03
  -8  -7  21    1.92   55.22
   8   6 -21   22.80   34.55
   8   6 -21   13.12   51.10
  -8  -6  21  -88.99   47.71
  -8  -6  21   -1.75   46.44
   8   5 -21   38.96   51.26
   8   5 -21  -25.60   29.80
  -8  -5  21    8.92   48.83
  -8  -5  21    4.87   40.38
   8   4 -21   -7.20   26.72
   8   4 -21   -2.10   54.91
  -8  -4  21    1.55   49.09
   8   3 -21    6.80   25.05
   8   3 -21  -18.03   57.81
  -8  -3  21  -21.00   49.82
  -2   8 -21  125.38   77.08
  -2   8 -21   88.11   67.39
   8   2 -21  302.86   88.34
   8   2 -21   76.11   56.10
   2  -8  21  200.00   73.16
  -8  -2  21  135.44   80.85
   2  -8  21  133.95   66.49
   8   1 -21    7.71   64.57
   8   1 -21  -14.89   31.85
  -1   8 -21  139.60   35.89
  -1   8 -21   -2.97   47.02
  -8  -1  21   71.80   50.56
   1  -8  21   57.78   36.12
   1  -8  21   52.43   41.23
   1   8 -21  -13.85   36.08
   2   8 -21   81.21  106.67
   2   8 -21  545.56  111.27
  -2  -8  21   91.14  108.17
  -2  -8  21  548.11  110.70
   3   8 -21  -28.79   36.61
   3   8 -21    7.86   45.25
  -3  -8  21 -143.34   44.83
  -3  -8  21   -1.61   41.21
   4   8 -21    1.61   45.25
   4   8 -21   -4.27   38.65
  -4  -8  21   -1.70   41.35
  -4  -8  21  -12.09   43.39
   5   8 -21  -22.14   40.73
   5   8 -21  -61.56   46.59
  -5  -8  21  -27.76   44.65
  -5  -8  21    5.38   44.63
   6   8 -21   13.79   48.80
   6   8 -21  -34.54   41.08
  -6  -8  21   40.23   45.43
  -6  -8  21   37.99   49.89
   7   8 -21    1.83   54.30
  -7  -8  21   79.05   50.42
   8   8 -21  -95.51   46.22
   8   8 -21   28.66   52.39
  -8  -8  21   34.76   48.99
  -8  -8  21    2.14   53.63
   9   8 -21    2.04   70.14
   9   8 -21  224.44   61.59
  -9  -8  21   50.18   70.43
  -9  -8  21  107.33   69.05
   9   7 -21  -37.17   42.74
   9   7 -21   45.38   56.74
  -9  -7  21   10.24   54.32
  -9  -7  21  132.15   54.36
   9   6 -21  -64.42   39.22
   9   6 -21  120.84   55.86
  -9  -6  21   88.28   53.13
  -9  -6  21   54.39   51.39
   9   5 -21   50.90   46.70
   9   5 -21  131.42   68.24
  -9  -5  21  140.50   62.89
  -9  -5  21   86.90   57.51
   9   4 -21  -57.20   58.21
   9   4 -21  -61.46   29.48
  -9  -4  21    1.64   52.44
   9   3 -21 -108.04   62.65
   9   3 -21   15.99   26.73
  -9  -3  21   68.28   52.78
   9   2 -21  -97.20   60.82
  -2   9 -21  -51.67   41.62
   9   2 -21   43.14   27.01
  -9  -2  21  -55.24   52.02
   2  -9  21  -26.32   37.40
   9   1 -21  -33.26   28.60
  -9  -1  21   52.83   53.13
   0   9 -21   18.02   36.02
   0  -9  21    4.87   38.23
   1   9 -21    2.26   39.25
   1   9 -21   45.75   42.67
  -1  -9  21   16.71   39.20
  -1  -9  21   40.06   40.79
   2   9 -21  -42.40   40.47
   2   9 -21   -1.55   43.10
  -2  -9  21    1.76   39.12
  -2  -9  21  -10.34   40.44
   3   9 -21   -1.59   43.40
   3   9 -21   25.84   36.04
  -3  -9  21   38.08   41.96
  -3  -9  21   -1.85   43.49
   4   9 -21  -26.14   43.23
   4   9 -21  -63.41   42.73
  -4  -9  21   11.43   44.82
  -4  -9  21   22.23   41.65
   5   9 -21  129.25   58.56
   5   9 -21  100.14   62.92
  -5  -9  21   58.37   62.74
  -5  -9  21  145.31   59.84
   6   9 -21 -111.11   50.76
   6   9 -21   73.84   41.78
  -6  -9  21   -2.13   51.66
  -6  -9  21   -6.90   44.11
   7   9 -21  100.95   59.18
  -7  -9  21   70.62   56.24
   8   9 -21  258.68   67.72
   8   9 -21   57.97   71.09
  -8  -9  21    2.40   75.11
  -8  -9  21  200.06   71.81
   9   9 -21  -16.79   57.76
   9   9 -21    9.05   51.62
  -9  -9  21    2.62   63.32
  -9  -9  21  -35.01   56.20
  10   9 -21  -36.05   61.29
  10   9 -21   13.23   58.06
 -10  -9  21   -1.77   57.59
 -10  -9  21   14.01   67.55
  10   8 -21   -2.89   50.44
  10   8 -21 -120.42   59.51
 -10  -8  21   51.84   57.66
 -10  -8  21   54.63   62.35
  10   7 -21  -74.00   58.19
  10   7 -21   76.10   45.71
 -10  -7  21   60.38   57.64
 -10  -7  21  -58.65   55.63
  10   6 -21 -110.74   57.97
  10   6 -21   32.10   38.04
 -10  -6  21  -36.66   51.72
 -10  -6  21 -138.62   57.64
  10   5 -21   30.01   36.39
  10   5 -21  -45.70   59.27
 -10  -5  21    1.69   52.59
 -10  -5  21  -16.78   46.76
  10   4 -21   73.24   35.67
  10   4 -21   62.55   63.92
 -10  -4  21    1.74   57.65
  10   3 -21  -37.49   28.20
  10   3 -21  -63.97   62.73
 -10  -3  21  -70.08   54.48
  10   2 -21   33.33   30.07
  10   2 -21    2.66   64.70
  -2  10 -21    7.34   38.83
 -10  -2  21  109.46   55.70
  -1  10 -21   71.80   47.81
  10   1 -21   58.63   40.89
 -10  -1  21   13.89   63.53
   1 -10  21   31.75   50.62
   1 -10  21  147.34   50.43
   0  10 -21   20.06   39.14
   0  10 -21   31.44   43.58
   0 -10  21   14.67   38.66
   0 -10  21  -30.06   41.45
   1  10 -21  114.15   53.87
   1  10 -21   83.33   49.66
  -1 -10  21   87.45   51.26
  -1 -10  21   -1.96   52.47
   2  10 -21   63.48   43.31
   2  10 -21  -68.38   44.51
  -2 -10  21  -86.02   46.58
  -2 -10  21  102.19   43.20
   3  10 -21   19.24   46.26
   3  10 -21   55.72   46.51
  -3 -10  21  -52.56   51.26
  -3 -10  21   15.11   42.77
   4  10 -21   52.34   50.50
   4  10 -21   27.90   49.05
  -4 -10  21   50.93   57.50
  -4 -10  21   88.83   48.56
   5  10 -21   38.43   46.49
   5  10 -21  -78.33   47.98
  -5 -10  21    2.28   52.15
  -5 -10  21   47.56   45.91
   6  10 -21   45.28   47.13
   6  10 -21    5.60   53.25
  -6 -10  21  -64.93   49.34
  -6 -10  21   24.12   58.89
   7  10 -21   81.75   59.89
  -7 -10  21   90.68   57.42
   8  10 -21  -64.74   60.08
   8  10 -21   19.74   53.46
  -8 -10  21   81.38   64.44
  -8 -10  21  -62.11   53.79
   9  10 -21    2.20   59.17
   9  10 -21   -3.45   56.70
  -9 -10  21   76.84   70.81
  -9 -10  21   37.96   58.72
  10  10 -21   74.27   58.34
  10  10 -21    7.12   64.74
 -10 -10  21   42.72   64.25
 -10 -10  21 -103.98   72.06
  11  10 -21 -225.57   77.42
  11  10 -21  -19.58   72.55
 -11 -10  21 -108.44   76.74
 -11 -10  21 -199.22   89.49
  11   9 -21    2.42   65.73
  11   9 -21 -104.86   56.95
 -11  -9  21    3.00   69.56
 -11  -9  21  -65.12   64.13
  11   8 -21    3.06   59.53
  11   8 -21   -2.31   67.24
 -11  -8  21  206.62   65.62
 -11  -8  21    5.33   69.23
  11   7 -21    2.28   61.22
  11   7 -21   67.39   51.58
 -11  -7  21    2.41   58.34
 -11  -7  21 -139.23   60.49
  11   6 -21   45.19   46.27
  11   6 -21  133.89   64.88
 -11  -6  21   51.90   60.44
 -11  -6  21   -2.20   55.18
  11   5 -21  -37.61   38.11
  11   5 -21 -105.81   64.49
 -11  -5  21   20.41   53.65
 -11  -5  21 -141.27   60.21
  11   4 -21  -86.71   64.55
  11   4 -21    1.88   34.56
 -11  -4  21   44.63   51.86
 -11  -4  21  -48.32   59.04
  11   3 -21   72.31   35.67
  11   3 -21 -107.47   70.66
 -11  -3  21  125.96   62.63
  -2  11 -21  216.37   64.95
  11   2 -21  124.81   52.25
  11   2 -21   24.74   79.28
 -11  -2  21   89.76   76.85
  -1  11 -21  -25.36   43.27
  11   1 -21   -1.82   32.98
 -11  -1  21   14.62   58.14
   1 -11  21  -34.96   41.37
   1 -11  21  -33.90   47.00
   0  11 -21  248.72  116.94
   0  11 -21  323.58  112.76
   0 -11  21   72.35  116.41
   0 -11  21  503.25  119.43
   1  11 -21   66.96   44.53
   1  11 -21  -47.97   42.08
  -1 -11  21 -123.08   51.82
  -1 -11  21   29.96   41.84
   2  11 -21  163.46   63.68
   2  11 -21   76.70   62.27
  -2 -11  21  188.59   65.37
  -2 -11  21   39.48   68.16
   3  11 -21   -9.18   50.58
   3  11 -21  115.90   47.52
  -3 -11  21  -29.15   53.90
  -3 -11  21   16.04   45.55
   4  11 -21  -66.75   51.25
   4  11 -21  -69.60   50.01
  -4 -11  21  -89.55   46.91
  -4 -11  21   -2.55   59.66
   5  11 -21  -16.12   52.34
   5  11 -21    1.81   48.79
  -5 -11  21  -24.73   49.99
  -5 -11  21  -31.26   60.85
   6  11 -21   54.58   52.03
   6  11 -21   13.43   53.17
  -6 -11  21   16.50   63.03
  -6 -11  21  -18.38   52.36
   7  11 -21 -119.48   56.76
  -7 -11  21   -8.73   68.46
  -7 -11  21   -1.60   54.82
   8  11 -21   47.54   57.30
   8  11 -21   42.49   59.18
  -8 -11  21    1.71   59.35
  -8 -11  21   40.12   68.37
   9  11 -21    7.66   59.28
   9  11 -21    2.30   61.12
  -9 -11  21   25.29   60.87
  -9 -11  21   88.65   75.89
  10  11 -21 -177.23   71.25
  10  11 -21 -104.49   78.29
 -10 -11  21 -115.88   76.73
 -10 -11  21 -148.15   89.76
  11  11 -21   60.90   69.61
  11  11 -21  -26.36   68.27
 -11 -11  21   27.05   85.21
 -11 -11  21 -127.19   72.13
  12  11 -21  -59.79   74.09
  12  11 -21    2.86   80.43
 -12 -11  21   29.05   90.98
 -12 -11  21 -146.59   81.40
  12  10 -21  -99.47   68.91
  12  10 -21    2.71   74.08
 -12 -10  21   40.76   71.57
 -12 -10  21    3.62   82.86
  12   9 -21 -112.96   81.69
  12   9 -21 -274.21   74.54
 -12  -9  21 -267.07   88.94
  12   8 -21 -209.60   78.46
 -12  -8  21 -242.89   79.37
 -12  -8  21 -107.74   77.09
  12   7 -21    2.88   50.45
  12   7 -21  104.91   68.29
 -12  -7  21   40.67   63.08
 -12  -7  21  -63.49   65.77
  12   6 -21   61.64   68.17
  12   6 -21  -81.61   46.83
 -12  -6  21  -43.11   61.32
 -12  -6  21    1.93   61.39
  12   5 -21  107.59   68.43
  12   5 -21   40.55   41.62
 -12  -5  21   62.57   66.08
 -12  -5  21    2.23   58.97
  12   4 -21   18.26   38.00
  12   4 -21  -13.09   66.44
 -12  -4  21  -39.64   60.45
 -12  -4  21   31.58   53.60
  12   3 -21   54.62   36.11
  12   3 -21 -107.43   71.90
 -12  -3  21  -62.57   64.03
  12   2 -21  -11.40   70.36
  12   2 -21  -80.71   38.56
 -12  -2  21 -115.56   68.70
  -1  12 -21  293.15   88.36
  12   1 -21  140.87   78.65
   0  12 -21   60.22   74.59
  12   0  21  347.06  114.02
   1  12 -21  137.75   79.74
  -1 -12  21  202.06   82.96
   2  12 -21  -45.67   46.57
  -2 -12  21   -9.79   48.96
  -2 -12  21    2.76   59.71
   3  12 -21   18.55   47.79
  -3 -12  21   28.86   62.11
  -3 -12  21   74.07   50.96
   4  12 -21    1.75   47.85
  -4 -12  21   -9.02   49.32
  -4 -12  21   18.15   66.98
   5  12 -21   89.97   54.63
   5  12 -21    1.86   49.17
  -5 -12  21   24.38   67.91
  -5 -12  21   10.95   51.74
   6  12 -21    1.94   52.97
   6  12 -21   33.70   48.18
  -6 -12  21    1.63   53.14
  -6 -12  21  -99.64   68.21
   7  12 -21   -2.10   56.58
   7  12 -21   15.62   57.16
  -7 -12  21  -58.50   58.23
  -7 -12  21  -54.34   74.36
   8  12 -21   -2.21   67.15
  -8 -12  21 -136.74   70.38
   9  12 -21  -74.52   75.22
   9  12 -21  -81.18   72.92
  -9 -12  21 -186.11   78.21
  -9 -12  21 -164.62   96.74
  10  12 -21    2.61   74.05
  10  12 -21    4.49   68.74
 -10 -12  21  -22.68   70.10
 -10 -12  21  -93.85   88.84
  11  12 -21 -113.50   70.44
  11  12 -21  -77.56   77.12
 -11 -12  21   43.75   76.06
 -11 -12  21  -86.37   99.31
  13  10 -21  113.67   83.95
  13  10 -21    4.50   73.13
 -13 -10  21 -152.36   91.93
 -13 -10  21 -165.18   82.01
  13   9 -21  -41.61   77.01
  13   9 -21    4.09   68.00
 -13  -9  21    6.67   75.05
 -13  -9  21  -99.36   85.47
  13   8 -21   56.17   78.88
  13   8 -21  119.00   69.01
 -13  -8  21   22.13   82.35
 -13  -8  21  112.29   79.77
  13   7 -21 4860.95 1444.35
  13   7 -21 2149.98 1363.20
 -13  -7  21 5385.12 1509.60
  13   6 -21 -160.87   74.08
  13   6 -21  -82.96   48.75
 -13  -6  21  -75.14   64.76
 -13  -6  21   10.44   70.96
  13   5 -21    2.53   45.33
  13   5 -21   19.10   72.55
 -13  -5  21    2.10   66.35
 -13  -5  21    2.41   58.72
  13   4 -21  168.02   72.33
  13   4 -21    2.27   41.00
 -13  -4  21   42.34   68.94
 -13  -4  21 -122.88   56.46
  13   3 -21    2.93   73.02
  13   3 -21  -21.13   41.42
 -13  -3  21 -120.22   67.26
  13   2 -21  -50.08   69.18
  13   2 -21  -27.83   38.79
 -13  -2  21    2.22   65.15
  13   1 -21  -43.41   42.69
  13   0  21   85.60  104.39
  14  10 -21 -135.20   88.08
 -14 -10  21  -55.52   90.45
  14   9 -21  -78.39   72.78
  14   9 -21  129.04   82.99
 -14  -9  21 -156.56   84.33
 -14  -9  21   61.29   90.89
  14   8 -21   55.17   82.93
  14   8 -21    7.71   69.71
 -14  -8  21  120.40   82.09
 -14  -8  21    3.51   83.39
  14   7 -21  -28.48   65.07
  14   7 -21  -83.75   77.78
 -14  -7  21  -88.97   78.84
 -14  -7  21   34.59   77.34
  14   6 -21  136.57   67.29
  14   6 -21   40.19   85.42
 -14  -6  21  100.50   80.53
 -14  -6  21  136.83   84.76
  14   5 -21 -119.76   65.05
 -14  -5  21 -257.37   84.51
 -14  -5  21 -302.90  102.56
  14   4 -21 -288.31   92.76
  14   4 -21  -63.93   58.43
 -14  -4  21 -145.26   72.01
 -14  -4  21 -228.85   89.31
  14   3 -21   48.87   73.98
  14   3 -21   21.18   42.71
 -14  -3  21    2.42   61.19
 -14  -3  21  -82.30   68.17
  14   2 -21   -2.23   43.06
 -14  -2  21  -11.72   68.09
  14   1 -21  102.10   54.75
  14   0  21   85.33  105.73
  15   9 -21 -214.81   93.59
 -15  -9  21    7.82   91.02
  15   8 -21   94.57   73.96
  15   8 -21    3.16   86.26
 -15  -8  21  -30.41   87.20
 -15  -8  21   72.88   87.44
  15   7 -21  -99.28   64.29
  15   7 -21   68.06   86.27
 -15  -7  21    3.41   80.51
 -15  -7  21  -73.82   80.80
  15   6 -21   -3.13   84.41
  15   6 -21  -27.41   64.13
 -15  -6  21  209.74   82.71
 -15  -6  21   92.14   83.44
  15   5 -21   45.09   59.92
  15   5 -21   31.42   82.14
 -15  -5  21  -75.68   72.37
 -15  -5  21   64.67   76.95
  15   4 -21  -14.47   54.05
  15   4 -21  110.51   82.65
 -15  -4  21   18.98   74.89
 -15  -4  21   38.43   70.74
  15   3 -21   -2.64   50.11
  15   3 -21    9.50   76.98
 -15  -3  21    4.83   71.67
 -15  -3  21  -55.19   65.53
  15   2 -21   42.60   47.86
 -15  -2  21  -36.93   67.28
  16   0  21  169.65  125.46
 -16   1 -21   92.29  159.02
  16  -1  21 -141.98  114.81
  17   0  21 -253.71  147.27
 -17   1 -21  122.53  184.63
 -17   1 -21  313.67  201.03
  17  -1  21  183.06  146.17
   0   1 -22   -1.94   16.48
   1   1 -22   -1.04   17.96
  -1   1 -22   -4.63   16.03
   2   1 -22   -1.09   18.76
  -1   2 -22    4.67   17.37
   1  -2  22  -41.58   43.15
   0   2 -22   -2.39   55.51
   0   2 -22    9.73   18.39
   0  -2  22    2.94   40.90
  -2   1 -22    9.72   15.74
   1   2 -22   -2.38   55.85
   1   2 -22   14.20   18.65
  -1  -2  22   57.65   43.49
   2   2 -22   27.99   22.92
   2   2 -22   14.25   55.44
  -2   2 -22   41.07   20.24
  -2  -2  22   43.27   43.85
  -2   3 -22   27.98   59.23
  -2   3 -22    0.92   16.55
   3   2 -22 -100.03   56.05
   2  -3  22   30.70   42.11
  -3  -2  22   33.36   43.52
  -1   3 -22  260.73   69.33
  -1   3 -22   88.89   37.21
   3   1 -22   24.11   36.98
  -3  -1  22  140.33   55.68
   1  -3  22  211.32   54.88
   0   3 -22    8.90   18.49
   0   3 -22  -22.14   55.13
   0  -3  22   12.37   41.50
   1   3 -22  170.48   62.36
   1   3 -22  111.01   30.70
  -3   1 -22    2.58   28.54
  -1  -3  22  118.53   49.31
   2   3 -22   -3.23   19.57
  -3   2 -22  -12.26   16.19
   2   3 -22   66.43   54.38
  -2  -3  22    1.40   42.06
   3   3 -22   77.27   57.91
  -3   3 -22   32.07   23.41
  -3   3 -22   59.54   60.20
  -3  -3  22   22.84   46.54
   3  -3  22   88.09   46.69
  -3   4 -22   27.87   21.33
  -3   4 -22   59.05   57.51
   3  -4  22   48.41   42.97
  -2   4 -22  132.37   65.48
  -2   4 -22  301.51   87.02
   2  -4  22  281.27   77.39
  -1   4 -22   19.99   20.05
  -1   4 -22   58.65   53.74
   1  -4  22   18.03   42.65
   0   4 -22  144.44   62.95
   0   4 -22  250.71   84.47
   0  -4  22  197.06   76.42
   1   4 -22   28.69   20.09
   1   4 -22  -44.70   48.40
  -1  -4  22   19.50   42.74
   2   4 -22  255.94   85.11
  -2  -4  22  192.47   80.48
   4   4 -22  125.88   48.23
   5   4 -22   16.14   26.89
   5   4 -22  -60.60   54.93
  -5  -4  22   11.48   49.63
   5   3 -22    2.20   52.72
  -3   5 -22   70.06   57.85
  -3   5 -22   70.46   29.71
   5   3 -22   32.95   26.32
  -2   5 -22   37.40   25.65
   5   2 -22   16.55   24.59
  -2   5 -22   31.47   53.81
   2  -5  22   79.24   43.09
   2  -5  22   26.38   26.22
  -1   5 -22   42.39   28.89
  -1   5 -22   96.31   54.98
   5   1 -22   14.21   28.46
   1  -5  22   81.75   44.79
   1  -5  22   48.44   31.40
   0   5 -22   26.78   23.69
   0   5 -22   35.23   47.68
   0  -5  22    4.82   39.30
   1   5 -22    1.75   56.65
   1   5 -22  138.13   38.61
  -1  -5  22  109.91   52.26
   3   5 -22   16.92   27.16
   4   5 -22  250.15   88.74
  -4  -5  22  271.39   87.15
   5   5 -22   -1.41   26.81
   5   5 -22    1.85   50.38
  -5  -5  22  -32.84   45.15
   6   5 -22   47.77   52.09
   6   5 -22   13.59   30.10
  -6  -5  22  -38.61   46.33
   6   4 -22  178.69   72.37
  -6  -4  22  128.46   67.87
   6   3 -22   -2.26   63.55
  -3   6 -22   34.84   34.81
  -6  -3  22    6.27   53.45
   6   2 -22    2.49   58.75
  -2   6 -22   21.13   31.64
  -2   6 -22   35.50   53.13
   2  -6  22   53.56   31.55
   2  -6  22   53.27   43.81
  -6  -2  22  139.97   51.04
  -1   6 -22   31.08   32.51
  -1   6 -22    4.94   49.97
  -6  -1  22  124.35   49.71
   1  -6  22   95.23   44.16
   1  -6  22   37.23   32.70
   0   6 -22   73.17   36.90
   0   6 -22   96.65   54.81
   0  -6  22  125.49   50.15
   0  -6  22   53.75   38.78
   1   6 -22    1.64   46.72
   3   6 -22   33.98   64.90
   3   6 -22  422.45   74.12
  -3  -6  22   17.35   67.06
  -3  -6  22  413.29   73.56
   4   6 -22   44.73   39.82
   4   6 -22  189.69   57.28
  -4  -6  22   55.09   45.06
  -4  -6  22   14.12   54.17
   5   6 -22  -16.57   34.41
   5   6 -22    3.52   49.62
  -5  -6  22    1.50   36.43
  -5  -6  22   22.72   47.74
   6   6 -22   -1.73   34.03
   6   6 -22    1.82   48.84
  -6  -6  22   23.72   46.91
  -6  -6  22  -98.43   41.89
   7   6 -22    1.90   54.33
  -7  -6  22  108.50   52.13
   7   5 -22   55.66  185.44
  -7  -5  22    7.51  196.63
   7   4 -22   22.04   25.62
   7   4 -22  122.56   57.61
  -7  -4  22  -40.69   49.04
   7   3 -22   -2.32   62.80
   7   3 -22  -19.00   28.08
  -7  -3  22    3.27   49.75
   7   2 -22   76.67   88.07
  -2   7 -22  366.02   87.14
  -2   7 -22  128.64   69.03
   7   2 -22   54.76   55.60
   2  -7  22  192.92   66.49
  -7  -2  22    1.71   81.96
  -1   7 -22   58.99   31.52
  -1   7 -22  -25.47   48.30
   7   1 -22    1.47   26.64
   1  -7  22  -75.67   42.56
   1  -7  22   43.31   31.97
  -7  -1  22    1.82   48.62
   2   7 -22   57.83   78.76
  -2  -7  22  308.27   80.69
   3   7 -22  -18.09   36.36
   3   7 -22 -112.61   48.75
  -3  -7  22  -42.53   38.91
  -3  -7  22 -115.15   48.27
   4   7 -22   29.95   43.98
   4   7 -22    1.69   48.65
  -4  -7  22    1.55   39.75
  -5  -7  22 7485.16 2124.62
   6   7 -22  -52.34   51.38
   6   7 -22   66.50   40.02
  -6  -7  22    1.74   42.06
  -6  -7  22  -19.57   48.17
   7   7 -22  -56.47   52.18
  -7  -7  22    1.49   48.61
   8   7 -22 -111.70   55.27
   8   7 -22    2.30   42.39
  -8  -7  22  142.62   53.65
  -8  -7  22 -200.36   51.58
   8   6 -22   22.91   35.03
   8   6 -22   43.96   55.42
  -8  -6  22   38.19   48.15
  -8  -6  22   17.22   52.01
   8   5 -22   36.89   31.76
   8   5 -22    2.08   56.92
  -8  -5  22   26.89   42.59
  -8  -5  22   15.83   50.72
   8   4 -22    7.57   28.48
   8   4 -22 -141.14   58.14
  -8  -4  22   31.29   50.99
   8   3 -22   -4.31   27.82
   8   3 -22   72.30   63.04
  -8  -3  22   12.01   50.90
   8   2 -22   22.42   27.89
  -2   8 -22  -15.91   48.02
   8   2 -22  -76.32   62.75
   2  -8  22   30.43   40.35
  -8  -2  22   43.19   51.82
   2  -8  22   92.11   33.71
   8   1 -22    1.58   28.34
  -8  -1  22   15.19   51.02
   0   8 -22   40.15   36.07
   0  -8  22   11.46   35.90
   1   8 -22   -8.06   34.80
   1   8 -22    1.63   44.68
  -1  -8  22   -1.49   38.21
  -1  -8  22  -41.19   42.97
   2   8 -22   33.46   36.88
   2   8 -22   -1.65   46.28
  -2  -8  22  -56.73   39.28
  -2  -8  22  -65.53   43.54
   3   8 -22  -51.99   37.45
   3   8 -22  -30.25   48.72
  -3  -8  22  -40.11   43.84
  -3  -8  22    8.33   42.06
   4   8 -22   17.95   41.14
   4   8 -22    5.17   45.95
  -4  -8  22    1.30   45.83
  -4  -8  22    1.76   43.13
   5   8 -22   82.73   42.92
   5   8 -22   49.61   50.24
  -5  -8  22   10.85   47.98
  -5  -8  22  -31.62   47.65
   6   8 -22   27.86   44.16
   6   8 -22   31.15   51.94
  -6  -8  22   47.40   48.56
  -6  -8  22   11.81   50.02
   7   8 -22    5.80   55.30
  -7  -8  22    6.04   49.56
   8   8 -22  636.90  202.57
   8   8 -22  578.91  195.98
  -8  -8  22  589.11  208.13
  -8  -8  22  374.67  204.38
   9   8 -22 -102.18   52.30
   9   8 -22    6.46   59.45
  -9  -8  22   87.39   59.37
  -9  -8  22   -1.71   57.71
   9   7 -22   24.27   47.28
   9   7 -22   46.30   61.39
  -9  -7  22   69.87   60.74
  -9  -7  22    4.98   61.01
   9   6 -22   -2.13   59.31
   9   6 -22   10.51   38.78
  -9  -6  22   17.49   49.39
  -9  -6  22   16.60   53.69
   9   5 -22 -111.49   62.15
   9   5 -22   71.61   37.98
  -9  -5  22  131.66   54.04
  -9  -5  22    5.42   46.84
   9   4 -22 -154.44   65.18
   9   4 -22   24.22   31.01
  -9  -4  22  -52.18   54.26
   9   3 -22 -185.75   65.18
   9   3 -22   26.08   27.29
  -9  -3  22   -1.80   52.75
   9   2 -22  -34.70   26.75
   9   2 -22  108.42   66.56
  -9  -2  22 -103.91   53.93
  -1   9 -22    9.10   35.57
   9   1 -22   42.98   30.80
  -9  -1  22    1.99   54.03
   1  -9  22  -19.14   37.22
   0   9 -22   -9.18   40.34
   0   9 -22   21.12   45.74
   0  -9  22   -1.64   36.88
   0  -9  22    5.83   41.13
   1   9 -22  -27.95   47.96
   1   9 -22  -35.88   40.27
  -1  -9  22   -9.63   41.26
  -1  -9  22   -6.91   42.15
   2   9 -22  -31.04   39.98
   2   9 -22    1.67   46.09
  -2  -9  22   30.18   42.72
  -2  -9  22  -14.91   41.94
   3   9 -22   -4.96   45.26
   3   9 -22   88.75   50.40
  -3  -9  22   56.18   48.39
  -3  -9  22   54.00   44.50
   4   9 -22  -19.26   49.22
   4   9 -22   97.63   44.01
  -4  -9  22 -103.99   47.60
  -4  -9  22 -136.25   51.38
   5   9 -22    1.84   50.36
   5   9 -22  -15.99   40.08
  -5  -9  22  -49.34   47.59
  -5  -9  22 -152.15   51.99
   6   9 -22   74.46   56.32
   6   9 -22   77.53   48.67
  -6  -9  22    1.47   50.57
  -6  -9  22    2.20   52.71
   7   9 -22   87.41   77.15
  -7  -9  22  226.18   75.06
   8   9 -22  -63.23   52.09
   8   9 -22 -145.79   61.72
  -8  -9  22  -94.21   59.55
  -8  -9  22 -125.76   57.08
   9   9 -22   37.88   61.59
   9   9 -22    2.22   64.95
  -9  -9  22  186.58   66.62
  -9  -9  22   39.63   71.80
  10   9 -22   39.88   58.33
  10   9 -22   35.55   66.34
 -10  -9  22   24.52   61.96
 -10  -9  22    2.82   68.71
  10   8 -22   17.48   49.55
  10   8 -22 -141.42   63.25
 -10  -8  22   43.59   60.67
 -10  -8  22  118.52   64.84
  10   7 -22  -45.18   60.76
  10   7 -22   -2.57   46.32
 -10  -7  22   30.32   58.59
 -10  -7  22 -158.94   57.85
  10   6 -22  -38.01   37.12
  10   6 -22  -81.45   57.89
 -10  -6  22   -2.08   52.48
 -10  -6  22   44.57   57.28
  10   5 -22   84.41   40.55
  10   5 -22   56.62   67.24
 -10  -5  22    1.94   51.48
 -10  -5  22   71.80   63.60
  10   4 -22  -84.93   61.32
  10   4 -22   23.28   33.82
 -10  -4  22   11.08   56.80
  10   3 -22  -31.94   73.93
  10   3 -22   77.50   43.78
 -10  -3  22  230.15   67.73
  10   2 -22  -60.59   33.33
  -2  10 -22   21.24   45.30
  10   2 -22 -115.14   68.39
  -2  10 -22   -4.99   38.56
 -10  -2  22  -37.79   57.06
  -1  10 -22  -18.14   45.78
  10   1 -22    1.83   33.55
  -1  10 -22   38.00   40.75
   1 -10  22  -70.33   42.66
   1 -10  22   44.46   42.04
 -10  -1  22  -70.98   57.22
   0  10 -22  120.05   50.03
   0  10 -22   36.93   43.10
   0 -10  22   17.38   45.36
   0 -10  22    2.42   45.03
   1  10 -22   34.88   42.96
   1  10 -22    8.23   47.19
  -1 -10  22   71.24   43.87
  -1 -10  22    1.97   45.55
   2  10 -22  -27.59   47.86
   2  10 -22  -39.08   44.13
  -2 -10  22  -33.08   48.04
  -2 -10  22  102.08   46.01
   3  10 -22   31.16   53.65
   3  10 -22   59.97   57.97
  -3 -10  22   54.82   53.60
  -3 -10  22  174.30   59.08
   4  10 -22  -20.59   49.34
   4  10 -22    1.81   49.08
  -4 -10  22   31.91   46.51
  -4 -10  22  -33.62   50.87
   5  10 -22  -12.21   54.91
   5  10 -22   76.76   57.00
  -5 -10  22  121.29   55.01
  -5 -10  22   21.30   61.64
   6  10 -22  -28.58   54.68
   6  10 -22   21.86   56.93
  -6 -10  22    2.50   56.19
  -6 -10  22   65.05   52.07
   7  10 -22    2.07   58.84
   7  10 -22  158.71   57.77
  -7 -10  22   26.49   65.32
  -7 -10  22   55.17   56.04
   8  10 -22   -2.17   57.11
   8  10 -22  217.42   62.23
  -8 -10  22  -95.37   59.35
   9  10 -22  -68.66   60.43
   9  10 -22  -44.21   63.23
  -9 -10  22   20.14   61.12
  -9 -10  22 -137.48   70.96
  10  10 -22  419.61  117.89
  10  10 -22   64.58  108.90
 -10 -10  22  209.40  119.44
 -10 -10  22  372.61  126.89
  11  10 -22 -155.76   72.25
  11  10 -22   56.07   65.12
 -11 -10  22   58.90   69.91
 -11 -10  22  -38.41   81.80
  11   9 -22 2117.20  515.30
  11   9 -22 1663.90  507.25
 -11  -9  22 1166.52  520.53
 -11  -9  22 1532.52  524.69
  11   8 -22   53.92   65.66
  11   8 -22   32.04   56.36
 -11  -8  22  -56.83   67.74
 -11  -8  22   11.01   68.57
  11   7 -22   50.71   53.50
  11   7 -22   89.18   67.37
 -11  -7  22   77.08   65.95
 -11  -7  22   14.92   63.30
  11   6 -22    2.49   44.44
  11   6 -22    2.45   65.11
 -11  -6  22  -88.65   56.18
 -11  -6  22   24.81   59.34
  11   5 -22    2.19   40.06
  11   5 -22  -97.25   65.51
 -11  -5  22  -50.97   53.48
 -11  -5  22   42.51   61.22
  11   4 -22   55.33   67.34
  11   4 -22    7.91   39.04
 -11  -4  22   45.15   61.33
  11   3 -22    3.55   34.29
  11   3 -22   64.28   71.86
 -11  -3  22  -68.11   62.33
  11   2 -22  133.94   73.62
  11   2 -22    1.81   37.64
 -11  -2  22  -27.18   61.65
  -1  11 -22  299.75   79.39
  11   1 -22  146.96   65.83
   1 -11  22  218.11   77.09
   1 -11  22    2.31   75.88
   0  11 -22  -29.46   44.31
   0  11 -22   82.67   48.51
   0 -11  22  -59.29   44.94
   0 -11  22  -13.74   49.84
   1  11 -22  159.93   73.60
   1  11 -22  248.16   72.69
  -1 -11  22   41.17   75.11
  -1 -11  22  151.41   72.89
   2  11 -22   49.68   49.44
   2  11 -22    8.60   48.69
  -2 -11  22   11.98   53.30
  -2 -11  22   17.56   46.46
   3  11 -22   90.04   50.52
   3  11 -22   56.64   50.81
  -3 -11  22  -52.27   48.77
  -3 -11  22    2.52   54.37
   4  11 -22   39.20   54.43
   4  11 -22  106.69   54.56
  -4 -11  22   82.10   51.88
  -4 -11  22 -107.58   59.87
   5  11 -22  -37.34   53.73
   5  11 -22   -1.94   50.97
  -5 -11  22  -43.23   63.87
  -5 -11  22   33.57   52.23
   6  11 -22   81.18   57.30
   6  11 -22    8.05   53.94
  -6 -11  22   -1.62   54.57
  -6 -11  22  -59.90   67.71
   7  11 -22   77.73   63.47
   7  11 -22  -69.84   61.64
  -7 -11  22  111.96   59.20
  -7 -11  22    3.02   71.93
   8  11 -22   18.12   64.70
  -8 -11  22   23.81   61.01
   9  11 -22   95.09  253.51
   9  11 -22  385.85  242.24
  -9 -11  22  933.43  272.11
  -9 -11  22  649.94  275.86
  10  11 -22   87.56   73.21
  10  11 -22  -80.18   68.61
 -10 -11  22    3.63   84.59
 -10 -11  22  -29.09   70.04
  11  11 -22   53.36   73.10
  11  11 -22  -77.93   77.82
 -11 -11  22   97.20   76.31
 -11 -11  22   -3.88   88.54
  12  11 -22   54.04   82.61
 -12 -11  22  -40.73   81.02
  12  10 -22  -87.98   81.02
  12  10 -22  -34.71   69.78
 -12 -10  22   26.20   93.60
 -12 -10  22    9.11   77.52
  12   9 -22 -166.71   66.81
  12   9 -22  122.04   74.71
 -12  -9  22    3.33   76.06
 -12  -9  22  -10.88   71.51
  12   7 -22 -292.05   81.58
  12   7 -22 -219.67   59.90
 -12  -7  22  -34.88   73.08
  12   6 -22  -77.19   71.61
  12   6 -22    2.67   47.45
 -12  -6  22 -149.90   69.83
 -12  -6  22    2.46   60.03
  12   5 -22  -11.79   42.58
  12   5 -22  -87.03   73.92
 -12  -5  22  -96.18   56.70
 -12  -5  22  153.07   66.92
  12   4 -22   66.16   42.29
  12   4 -22  -45.02   71.68
 -12  -4  22   -2.09   65.71
 -12  -4  22  100.60   56.32
  12   3 -22    7.95   37.34
  12   3 -22  -56.38   72.89
 -12  -3  22   78.77   65.24
  12   2 -22  108.51   76.63
  12   2 -22    1.95   43.59
 -12  -2  22  -90.53   74.74
  -1  12 -22   16.35   46.47
  12   1 -22  -45.17   45.66
   1 -12  22   50.28   46.07
   0  12 -22  200.04   74.07
   0 -12  22  116.46   73.58
   1  12 -22    1.71   47.91
  -1 -12  22   -8.33   47.64
  -1 -12  22    8.18   57.79
   2  12 -22  129.66   65.28
  -2 -12  22    2.85   69.63
  -2 -12  22  204.43   64.47
   3  12 -22   -1.81   50.28
   3  12 -22  -94.77   52.47
  -3 -12  22  -44.78   51.01
  -3 -12  22    2.98   64.17
   4  12 -22   25.50   55.76
   4  12 -22  -23.12   54.50
  -4 -12  22   75.11   53.87
  -4 -12  22   -3.00   64.78
   5  12 -22  -34.06   57.50
   5  12 -22    2.00   51.76
  -5 -12  22  -22.13   66.89
  -5 -12  22    9.78   53.60
   6  12 -22    2.09   56.92
   6  12 -22  -35.42   59.44
  -6 -12  22 -125.88   58.56
  -6 -12  22 -119.91   73.67
   7  12 -22   67.42   65.31
   7  12 -22   -4.10   64.53
  -7 -12  22 -214.98   85.89
  -7 -12  22 -109.65   68.81
   8  12 -22 -254.80   87.87
   9  12 -22  -10.22   71.36
   9  12 -22  -22.42   65.61
  -9 -12  22   87.11   68.00
  -9 -12  22   -3.97   87.64
  10  12 -22 -235.25   76.01
  10  12 -22  121.53   82.55
 -10 -12  22    4.23   94.28
 -10 -12  22  -11.01   72.93
  13  10 -22  -33.68   82.31
 -13 -10  22  -19.74   84.84
  13   9 -22   32.23   81.78
  13   9 -22   -4.12   71.18
 -13  -9  22 -129.65   79.94
 -13  -9  22    3.67   87.39
  13   8 -22   25.62   81.15
  13   8 -22   -3.77   67.69
 -13  -8  22   -6.52   77.67
 -13  -8  22   97.55   77.30
  13   7 -22    5.68   77.78
  13   7 -22   97.11   62.39
 -13  -7  22   82.69   76.33
 -13  -7  22   29.55   73.15
  13   6 -22   -2.99  104.95
  13   6 -22  275.98  133.68
 -13  -6  22  540.50  134.49
 -13  -6  22  295.22  120.93
  13   5 -22   -2.65   49.69
 -13  -5  22  -40.12   64.86
  13   4 -22    2.38   43.21
  13   4 -22   57.38   78.85
 -13  -4  22  -99.87   68.98
 -13  -4  22    2.38   58.39
  13   3 -22   69.12   43.28
  13   3 -22   62.30   78.03
 -13  -3  22 -127.05   68.83
  13   2 -22    4.21   42.26
 -13  -2  22 -170.55   71.79
  13   1 -22  191.35   78.69
   3  13 -22  -59.62   51.28
  -3 -13  22  -29.02   56.05
   4  13 -22   45.43   55.56
  -4 -13  22    6.70   54.46
   5  13 -22 -123.68   62.01
  -5 -13  22 -130.98   64.76
   6  13 -22 -103.55  109.64
  -6 -13  22  289.01  138.09
  -6 -13  22  697.15  120.80
   7  13 -22 -109.87   66.58
  -7 -13  22   28.91   64.97
  -7 -13  22   12.39   90.34
   8  13 -22 -123.12   71.73
  -8 -13  22  139.01   73.26
   9  13 -22    2.68   76.97
  -9 -13  22   -2.15   73.69
  14   9 -22  -89.01   90.77
 -14  -9  22  -76.52   92.26
  14   8 -22  -34.05   86.68
  14   8 -22   -4.04   70.32
 -14  -8  22  106.03   85.90
 -14  -8  22  106.01   84.61
  14   7 -22   45.77   85.34
  14   7 -22   96.98   68.48
 -14  -7  22  -31.40   81.07
 -14  -7  22   15.97   80.19
  14   6 -22   12.92   58.13
  14   6 -22    3.11   80.92
 -14  -6  22   29.68   72.95
 -14  -6  22    9.54   78.03
  14   5 -22    2.99   58.62
  14   5 -22    3.11   86.77
 -14  -5  22  134.76   82.60
 -14  -5  22  170.75   74.26
  14   4 -22   67.24   51.86
  14   4 -22 -143.57   86.03
 -14  -4  22   33.14   72.57
 -14  -4  22  120.21   68.42
  14   3 -22  124.35   50.41
  14   3 -22 -100.29   86.96
 -14  -3  22  -76.03   67.10
 -14  -3  22  182.68   77.65
  14   2 -22    7.09   46.17
 -14  -2  22  -32.00   72.63
  14   1 -22  -25.99   45.96
  15   8 -22  108.11   92.93
 -15  -8  22 -173.39   89.44
  15   7 -22  -23.28   89.40
  15   7 -22   -4.01   72.53
 -15  -7  22  -90.74   85.78
 -15  -7  22  112.69   87.27
  15   6 -22  221.54   88.00
  15   6 -22   17.97   65.11
 -15  -6  22   33.20   84.10
 -15  -6  22 -235.86   80.71
  15   5 -22   30.01   87.08
  15   5 -22   -6.50   59.37
 -15  -5  22    3.00   70.77
 -15  -5  22    2.53   80.53
  15   4 -22   32.23   53.49
  15   4 -22   30.65   85.12
 -15  -4  22  -57.51   76.31
 -15  -4  22  120.21   73.59
  15   3 -22   16.72   58.57
  15   3 -22  170.79   88.92
 -15  -3  22  146.58   83.06
 -15  -3  22   24.77   72.73
  15   2 -22  -82.42   53.16
  15   1 -22  -30.63   47.02
 -16  -6  22    7.14   83.77
  16   0  22   85.35  107.73
  17   0  22  -25.42  118.46
   0   1 -23   20.95   19.74
  -1   1 -23   -6.00   16.96
   1   1 -23   -3.30   19.05
  -1   2 -23   -7.03   17.98
   1  -2  23  -46.36   43.18
   0   2 -23  -13.61   18.56
   0  -2  23    4.75   42.08
   1   2 -23    5.45   18.93
  -2   1 -23   -0.95   16.54
   1   2 -23  -10.23   57.55
  -1  -2  23  -18.94   43.99
  -2   2 -23   12.56   17.02
   2   2 -23  -43.31   62.22
  -2  -2  23    7.95   45.00
  -2   3 -23   86.05   66.92
  -2   3 -23   45.92   25.75
   2  -3  23   88.70   48.94
  -1   3 -23   -2.02   19.69
  -1   3 -23   39.69   62.41
   1  -3  23  -10.42   44.15
   0   3 -23   51.19   29.32
   0   3 -23   48.85   64.78
   0  -3  23  110.59   50.86
   1   3 -23   85.45   24.07
   1   3 -23  -45.15   59.92
  -3   1 -23   12.73   20.97
  -1  -3  23   88.54   46.62
  -3   2 -23   27.80   20.82
  -3   3 -23    5.65   17.71
   3   3 -23   -7.03   21.11
   3  -3  23  -13.88   45.44
  -3   4 -23   31.49   32.51
   4   3 -23   35.56   34.00
   4   3 -23  249.08   63.02
  -3   4 -23   -7.30   69.10
  -4  -3  23  277.09   54.64
  -2   4 -23   30.25   59.68
  -2   4 -23    8.16   19.34
   4   2 -23    7.52   21.27
   2  -4  23   47.58   43.21
  -1   4 -23   38.99   25.25
  -1   4 -23   49.15   60.12
   4   1 -23   22.09   27.26
   1  -4  23   93.48   49.41
   0   4 -23  -10.84   20.33
   0   4 -23   34.71   54.83
   0  -4  23  -30.66   43.55
   1   4 -23   34.32   65.93
  -1  -4  23  181.10   59.04
   3   4 -23   37.12   26.48
   4   4 -23    6.41   54.59
   4   4 -23   29.90   26.15
  -4  -4  23   40.10   47.42
   5   4 -23   -2.18   58.98
   5   4 -23   14.36   23.20
  -5  -4  23   52.14   49.54
   5   3 -23   58.01   27.03
   5   3 -23   -7.21   63.77
  -5  -3  23   38.47   49.90
  -2   5 -23    6.25   56.60
   5   2 -23   13.02   58.87
  -2   5 -23   22.72   22.28
   5   2 -23   32.37   24.71
   2  -5  23  -38.28   46.42
  -5  -2  23  -76.42   47.76
   2  -5  23   29.19   25.11
  -1   5 -23   52.93   55.75
  -1   5 -23   -7.44   23.84
   5   1 -23  -27.39   24.29
   1  -5  23   22.17   25.58
   1  -5  23   47.44   45.05
  -5  -1  23    1.80   45.39
   0   5 -23   31.34   52.89
   0  -5  23  -66.92   43.85
   2   5 -23   -6.61   23.40
   3   5 -23   60.07   29.69
   3   5 -23 -111.35   54.63
  -3  -5  23  103.71   48.99
   4   5 -23  -99.40   54.50
   4   5 -23  -46.66   28.21
  -4  -5  23 -121.07   47.33
   5   5 -23   45.67   28.51
   5   5 -23   95.77   56.18
  -5  -5  23  -94.37   47.20
   6   5 -23  -43.92   58.50
   6   5 -23   32.32   29.35
  -6  -5  23  -59.88   48.57
   6   4 -23   18.09   59.56
   6   4 -23  -54.87   26.89
  -6  -4  23  102.00   50.34
   6   3 -23  -10.81   24.17
   6   3 -23    2.46   62.20
  -6  -3  23   39.83   49.87
  -2   6 -23   -4.29   28.36
   6   2 -23    2.65   64.90
  -2   6 -23   -7.52   56.15
   2  -6  23  -32.03   31.45
   2  -6  23  -93.10   49.35
  -6  -2  23   15.79   48.41
  -1   6 -23  380.66   96.71
   1  -6  23  390.95   92.32
  -6  -1  23   63.04   91.88
   1   6 -23   21.34   33.23
  -1  -6  23   -9.87   36.95
   2   6 -23  -17.88   50.06
   2   6 -23   12.55   32.15
  -2  -6  23  -60.13   47.22
  -2  -6  23  -20.92   35.31
   3   6 -23  -12.65   49.91
   3   6 -23  -42.03   31.94
  -3  -6  23   -6.92   36.13
  -3  -6  23   56.47   47.27
   4   6 -23   -1.61   30.46
   4   6 -23    3.69   50.45
  -4  -6  23  -49.96   48.47
  -4  -6  23  -63.03   36.84
   5   6 -23  -45.07   33.23
   5   6 -23   -1.91   50.46
  -5  -6  23   63.41   50.12
  -5  -6  23  -46.58   40.49
   6   6 -23  -41.53   55.28
   6   6 -23  -37.93   33.24
  -6  -6  23   49.42   43.12
  -6  -6  23  -34.56   49.38
   7   6 -23    2.06   53.87
  -7  -6  23   34.74   52.58
   7   5 -23  -65.11   57.84
  -7  -5  23   49.86   51.48
   7   4 -23 -102.71   58.38
  -7  -4  23   58.33   51.16
   7   3 -23  -53.10   65.51
   7   3 -23   47.31   30.25
  -7  -3  23   32.85   53.80
  -2   7 -23   -7.00   51.75
   7   2 -23 -103.09   65.80
   7   2 -23   78.89   30.10
  -2   7 -23   -1.70   25.18
   2  -7  23   56.44   45.47
  -7  -2  23  -32.80   51.64
   2  -7  23   66.71   30.31
   7   1 -23   60.73   30.24
  -7  -1  23    1.92   52.24
   0   7 -23   -7.18   30.97
   0  -7  23  -29.74   32.33
   1   7 -23   19.61   32.49
   1   7 -23 -158.11   48.89
  -1  -7  23   34.06   43.97
  -1  -7  23   23.31   33.85
   2   7 -23   55.50   47.21
   2   7 -23   14.72   33.41
  -2  -7  23  -18.15   45.64
  -2  -7  23    2.87   35.92
   3   7 -23   68.24   44.49
   3   7 -23  170.79   58.00
  -3  -7  23   80.16   54.94
  -3  -7  23   65.30   47.73
   4   7 -23   -7.27   50.65
   4   7 -23   29.39   40.74
  -4  -7  23  -92.57   50.89
  -4  -7  23   36.89   39.94
   5   7 -23  -71.05   50.86
   5   7 -23  -58.81   40.42
  -5  -7  23    1.70   41.36
  -5  -7  23   -1.44   51.02
   6   7 -23   -1.93   53.17
   6   7 -23   -6.32   41.71
  -6  -7  23   40.51   50.12
  -6  -7  23    1.80   43.05
   7   7 -23    2.02   53.05
  -7  -7  23  -37.75   52.19
   8   7 -23   82.95   75.14
   8   7 -23   91.92   87.62
  -8  -7  23  363.30   90.36
  -8  -7  23  108.80   80.90
   8   6 -23    1.99   31.94
   8   6 -23   -2.16   57.33
  -8  -6  23  -24.25   47.72
  -8  -6  23   49.92   52.76
   8   5 -23   -2.27   60.40
   8   5 -23  -42.18   31.80
  -8  -5  23   11.87   52.57
  -8  -5  23   64.81   44.77
   8   4 -23   15.93   30.46
   8   4 -23 -249.88   64.48
  -8  -4  23    1.75   53.94
   8   3 -23    7.84   67.87
   8   3 -23  -19.84   30.48
  -8  -3  23  105.05   55.37
   8   2 -23    2.79   63.52
   8   2 -23   -4.75   29.34
  -8  -2  23   72.27   53.55
  -1   8 -23    6.08   34.31
   8   1 -23   -5.04   30.84
  -8  -1  23    2.00   50.95
   1  -8  23   18.18   33.16
   0   8 -23  -51.76   49.83
   0   8 -23   -6.12   36.73
   0  -8  23    7.27   36.48
   0  -8  23  -16.07   43.37
   1   8 -23   39.99   47.86
   1   8 -23  -10.62   36.77
  -1  -8  23  -38.10   44.94
  -1  -8  23    1.54   38.18
   2   8 -23  -12.32   50.22
   2   8 -23  -41.83   38.19
  -2  -8  23   16.31   40.62
  -2  -8  23  -13.06   43.66
   3   8 -23   -1.79   50.91
   3   8 -23   43.80   41.80
  -3  -8  23   62.09   49.02
  -3  -8  23   57.53   46.53
   4   8 -23  -78.74   49.53
   4   8 -23  -13.58   41.09
  -4  -8  23  -65.73   48.13
  -4  -8  23   19.66   43.26
   5   8 -23   18.74   43.44
   5   8 -23    1.88   51.46
  -5  -8  23    7.56   46.36
  -5  -8  23  -21.83   48.88
   6   8 -23    7.79   53.28
   6   8 -23   -4.86   42.00
  -6  -8  23    1.54   53.47
  -6  -8  23    2.00   48.84
   7   8 -23  149.79  107.55
  -7  -8  23  148.28  107.29
  -7  -8  23  514.01  111.41
   8   8 -23 -167.65   59.54
   8   8 -23  121.65   48.80
  -8  -8  23    2.29   55.18
  -8  -8  23  -73.22   60.35
   9   8 -23   17.32   51.88
   9   8 -23    2.29   64.29
  -9  -8  23   17.09   62.11
  -9  -8  23   36.46   61.73
   9   7 -23    2.53   44.48
   9   7 -23    2.26   61.94
  -9  -7  23  -76.24   57.09
  -9  -7  23   -2.19   54.36
   9   6 -23  -46.10   46.24
   9   6 -23 -113.06   70.76
  -9  -6  23 -118.97   58.17
  -9  -6  23 -206.24   67.81
   9   5 -23   63.47   34.16
   9   5 -23    2.38   63.28
  -9  -5  23  -99.84   50.53
  -9  -5  23 -180.68   61.89
   9   4 -23   66.24   42.23
   9   4 -23   48.20   72.28
  -9  -4  23  160.55   64.98
   9   3 -23  -27.57   29.93
   9   3 -23    8.15   66.08
  -9  -3  23  -57.16   58.35
  -2   9 -23  -15.99   34.93
   9   2 -23   43.50   29.70
  -2   9 -23  -17.58   46.83
   9   2 -23   28.76   68.26
  -9  -2  23  -55.78   56.85
   9   1 -23   -5.48   33.89
  -1   9 -23   62.51   50.03
  -1   9 -23   -4.63   38.90
   1  -9  23  -18.04   38.93
   1  -9  23  -65.77   42.91
   0   9 -23   96.19   50.55
   0   9 -23   26.62   42.28
   0  -9  23    1.69   40.20
   0  -9  23    2.51   45.78
   1   9 -23    1.77   48.45
   1   9 -23  -46.01   43.59
  -1  -9  23   20.87   41.89
  -1  -9  23   20.64   45.78
   2   9 -23  -75.35   48.99
   2   9 -23  110.68   42.53
  -2  -9  23   18.35   44.19
  -2  -9  23  -50.63   45.55
   3   9 -23  -51.18   51.12
   3   9 -23  -10.43   46.27
  -3  -9  23  -56.14   45.86
  -3  -9  23  -93.57   47.75
   4   9 -23   51.95   48.49
   4   9 -23   24.34   52.33
  -4  -9  23   -2.04   51.50
  -4  -9  23   46.43   51.35
   5   9 -23    1.96   56.66
   5   9 -23  -18.83   49.07
  -5  -9  23  -81.54   53.81
  -5  -9  23 -181.41   52.52
   6   9 -23   -8.38   52.65
   6   9 -23 -184.36   64.85
  -6  -9  23 -160.59   63.97
  -6  -9  23 -179.72   63.25
   7   9 -23    2.10   57.98
   7   9 -23  -11.62   49.91
  -7  -9  23    7.25   59.57
  -7  -9  23   -1.65   54.81
   8   9 -23  151.55   73.24
  -8  -9  23  102.46   69.46
   9   9 -23 -102.33   58.52
   9   9 -23    4.68   65.47
  -9  -9  23 -100.90   64.07
  -9  -9  23 -122.71   69.92
  10   8 -23   14.54   69.17
  10   8 -23    3.04   54.69
 -10  -8  23  166.40   67.79
 -10  -8  23    2.61   67.36
  10   7 -23  -45.64   48.39
  10   7 -23   87.25   67.87
 -10  -7  23  -43.87   61.32
 -10  -7  23    2.35   60.28
  10   6 -23  177.50   55.58
  10   6 -23   14.68   73.86
 -10  -6  23   88.70   64.97
 -10  -6  23   94.54   70.61
  10   5 -23   14.40   38.63
  10   5 -23 -107.76   66.60
 -10  -5  23   54.59   52.11
 -10  -5  23 -103.72   63.84
  10   4 -23   80.80   72.22
  10   4 -23   73.50   37.70
 -10  -4  23    5.86   60.30
  10   3 -23   31.37   32.79
  10   3 -23   -2.88   70.53
 -10  -3  23  -49.97   60.08
  10   2 -23   53.47   71.15
  10   2 -23  -21.42   32.90
 -10  -2  23 -123.13   60.20
  -1  10 -23   30.25   49.27
  -1  10 -23   -2.66   41.63
  10   1 -23   64.38   37.82
   1 -10  23  -69.62   45.74
   1 -10  23   -9.48   41.35
   0  10 -23 -124.05   50.54
   0  10 -23   13.56   43.24
   0 -10  23   94.66   46.31
   0 -10  23   18.29   45.57
   1  10 -23   65.06   45.86
   1  10 -23  -47.34   51.94
  -1 -10  23   34.49   47.04
  -1 -10  23  -35.04   46.56
   2  10 -23  -94.40   52.38
   2  10 -23   48.85   46.39
  -2 -10  23   10.44   49.91
  -2 -10  23   -1.39   46.54
   3  10 -23   59.68   51.63
   3  10 -23 -122.90   52.86
  -3 -10  23   76.37   48.91
  -3 -10  23   15.40   52.86
   4  10 -23  -69.85   54.94
   4  10 -23  -46.43   55.10
  -4 -10  23  -68.77   50.10
  -4 -10  23 -127.67   54.21
   5  10 -23    2.00   55.75
   5  10 -23   43.36   53.34
  -5 -10  23    4.66   53.28
  -5 -10  23   88.26   59.28
   6  10 -23   61.38   66.40
   6  10 -23   51.45   64.92
  -6 -10  23  176.42   66.59
  -6 -10  23   59.62   68.74
   7  10 -23    3.35   56.59
   7  10 -23    2.20   59.78
  -7 -10  23   32.91   66.76
  -7 -10  23   89.82   60.05
   8  10 -23    2.30   64.22
  -8 -10  23   22.15   62.10
   9  10 -23 -265.31   87.90
   9  10 -23 -208.18   85.64
  -9 -10  23 -224.74   87.60
  -9 -10  23 -256.65   95.74
  10  10 -23 -119.05   72.74
  10  10 -23   23.85   67.89
 -10 -10  23  -50.40   68.97
 -10 -10  23  125.14   79.92
  11  10 -23 -104.75   73.13
  11  10 -23  -77.71   79.54
 -11 -10  23  -17.89   75.32
 -11 -10  23   35.24   82.61
  11   9 -23 -236.80   75.99
  11   9 -23    3.67   67.10
 -11  -9  23    3.12   75.54
 -11  -9  23    2.17   73.09
  11   8 -23 2056.23  679.34
  11   8 -23 2375.87  693.27
 -11  -8  23 2262.81  705.51
  11   7 -23  -69.64   70.93
  11   7 -23    8.57   49.19
 -11  -7  23   -2.04   68.85
 -11  -7  23    2.57   62.95
  11   6 -23   26.46   72.81
  11   6 -23   64.95   45.05
 -11  -6  23  -62.84   65.86
 -11  -6  23    4.71   59.51
  11   5 -23  -87.02   69.78
  11   5 -23    4.42   39.75
 -11  -5  23  -90.65   58.95
 -11  -5  23  -57.23   64.30
  11   4 -23   32.44   38.95
  11   4 -23   22.67   70.99
 -11  -4  23    2.08   64.66
  11   3 -23    7.51   36.44
  11   3 -23   99.36   76.32
 -11  -3  23   -2.12   63.27
  11   2 -23  -48.06   37.85
  11   2 -23   73.84   72.01
 -11  -2  23    2.20   62.35
  -1  11 -23   35.62   43.18
  -1  11 -23  -75.94   52.44
  11   1 -23   37.04   40.58
   1 -11  23  -18.03   50.27
   1 -11  23  -28.24   45.51
   0  11 -23  -42.27   48.50
   0  11 -23  143.25   53.37
   0 -11  23   -6.75   53.28
   0 -11  23   83.74   51.68
   1  11 -23   52.78   51.38
   1  11 -23   25.14   47.74
  -1 -11  23    1.37   48.30
  -1 -11  23   37.67   54.79
   2  11 -23  -70.17   51.65
   2  11 -23  107.61   53.84
  -2 -11  23    2.39   53.07
  -2 -11  23   72.32   52.00
   3  11 -23  129.19   62.79
   3  11 -23   64.45   60.97
  -3 -11  23   30.20   62.99
  -3 -11  23  140.84   60.58
   4  11 -23   20.63   55.13
   4  11 -23    6.03   53.35
  -4 -11  23  -51.34   53.26
  -4 -11  23    2.65   60.74
   5  11 -23   72.61   58.80
   5  11 -23  -42.83   58.61
  -5 -11  23   16.77   64.93
  -5 -11  23   80.92   57.39
   6  11 -23    7.25   57.68
   6  11 -23 -105.51   58.83
  -6 -11  23  -72.90   60.12
  -6 -11  23    2.96   67.74
   7  11 -23    3.77   60.25
   7  11 -23  -85.01   64.41
  -7 -11  23  114.57   61.44
  -7 -11  23 -130.58   70.14
   8  11 -23  259.79  299.54
  -8 -11  23  690.45  326.17
   9  11 -23  -67.37   70.81
   9  11 -23 -149.73   73.63
  -9 -11  23  -66.91   84.47
  -9 -11  23  -53.29   71.38
  10  11 -23  -70.70   71.58
  10  11 -23 -149.69   77.67
 -10 -11  23    3.75   87.74
 -10 -11  23   -2.21   76.53
  11  11 -23  -76.17   82.21
 -11 -11  23   96.35   78.70
  12  10 -23   11.95   82.69
 -12 -10  23  -60.48   81.79
  12   9 -23   56.77   72.00
  12   9 -23   -2.87   79.92
 -12  -9  23 -137.64   82.02
 -12  -9  23  -69.36   78.57
  12   8 -23   49.84   62.02
  12   8 -23   33.59   76.86
 -12  -8  23   95.71   75.30
 -12  -8  23 -110.04   77.95
  12   5 -23   46.75   74.80
  12   5 -23  -27.23   46.62
 -12  -5  23    2.18   71.10
 -12  -5  23  -57.26   58.23
  12   4 -23  -94.10   76.70
  12   4 -23  -26.96   42.25
 -12  -4  23    2.20   67.50
 -12  -4  23  -32.03   56.80
  12   3 -23  -50.52   74.19
  12   3 -23  -31.55   40.61
 -12  -3  23    2.25   64.48
  12   2 -23 -113.48   42.23
 -12  -2  23  -11.63   68.92
  12   1 -23  135.46   85.97
  -1  12 -23  272.80   97.63
   1 -12  23  323.33   96.32
   0  12 -23  -23.59   53.56
   0 -12  23   22.29   59.43
   0 -12  23   55.96   49.65
   1  12 -23  249.98   76.58
  -1 -12  23  118.96   75.01
  -1 -12  23  -53.26   79.42
   2  12 -23   -1.90   53.65
   2  12 -23   -7.11   53.68
  -2 -12  23  105.34   52.66
  -2 -12  23   22.50   59.47
   3  12 -23   92.22   55.27
   3  12 -23   56.57   51.70
  -3 -12  23  -91.51   63.97
  -3 -12  23  -44.15   53.24
   4  12 -23    6.21   53.36
   4  12 -23    3.83   57.98
  -4 -12  23   26.22   54.59
  -4 -12  23    6.21   68.24
   5  12 -23  -94.44   58.54
   5  12 -23   11.67   57.85
  -5 -12  23  -73.42   58.67
  -5 -12  23    3.27   75.21
   6  12 -23  -20.22   65.81
  -6 -12  23 -228.40   88.58
   7  12 -23  -80.01   73.41
   7  12 -23 -139.00   71.45
   8  12 -23   -2.51   69.47
  -8 -12  23   15.99   70.62
   9  12 -23 -127.24   77.59
   9  12 -23  119.47   70.82
  -9 -12  23   27.58   88.88
  -9 -12  23 -112.71   77.92
  13   9 -23   -4.31   63.45
  13   9 -23  -55.95   84.33
 -13  -9  23  -77.44   85.80
  13   8 -23  -64.57   66.90
  13   8 -23   27.33   83.79
 -13  -8  23    3.30   86.62
 -13  -8  23   70.00   81.88
  13   7 -23    3.37   59.56
  13   7 -23   48.13   84.83
 -13  -7  23  -26.09   76.72
 -13  -7  23   42.79   77.34
  13   6 -23  -18.81   54.80
  13   6 -23  -61.62   82.85
 -13  -6  23   11.13   69.49
 -13  -6  23  -37.57   79.33
  13   5 -23   91.93   53.66
 -13  -5  23 -216.54   69.82
  13   4 -23  530.11  138.87
  13   4 -23  223.27  102.93
 -13  -4  23  124.19  114.44
 -13  -4  23  358.09  133.33
  13   3 -23  -72.29   83.23
  13   3 -23    4.72   44.32
 -13  -3  23  -59.65   72.15
  13   2 -23   35.78   51.04
 -13  -2  23  213.46   78.81
  -1  13 -23  146.06   67.79
   0  13 -23  140.34   66.04
   0 -13  23   77.96   63.42
   1  13 -23    1.87   51.68
  -1 -13  23 -101.05   54.37
   2  13 -23    1.93   56.07
  -2 -13  23  -25.49   55.89
   3  13 -23  -75.64   55.33
  -3 -13  23  -66.87   59.22
   4  13 -23   55.37  109.79
  -4 -13  23  240.66  133.48
  -4 -13  23  506.83  120.01
   5  13 -23 -144.08   66.80
   6  13 -23    2.32   63.03
  -6 -13  23    3.91   81.94
  -6 -13  23  -15.36   65.82
   7  13 -23    2.50   67.75
  -7 -13  23   45.46   90.33
  -7 -13  23   34.22   69.79
   8  13 -23   91.80   74.55
  -8 -13  23    2.12   74.03
  14   8 -23  119.30   89.95
 -14  -8  23  -41.84   90.98
  14   7 -23   26.36   69.92
  14   7 -23 -196.79   88.39
 -14  -7  23   16.53   79.85
 -14  -7  23   12.73   82.93
  14   6 -23  145.64   67.75
  14   6 -23  -23.04   90.92
 -14  -6  23    3.02   80.68
 -14  -6  23  168.37   90.18
  14   5 -23  -16.67   89.85
  14   5 -23 -160.08   56.95
 -14  -5  23  -99.04   70.17
 -14  -5  23  129.73   80.20
  14   4 -23    3.44   90.25
  14   4 -23  109.18   56.67
 -14  -4  23   92.85   75.45
 -14  -4  23   86.73   81.14
  14   3 -23   -3.42   81.91
  14   3 -23    5.26   47.29
 -14  -3  23  -72.97   76.92
  14   2 -23   30.14   49.11
  15   7 -23 -212.15   98.30
 -15  -7  23  -27.55   96.22
  15   6 -23   60.42   96.87
  15   6 -23   90.55   71.27
 -15  -6  23   24.24   87.38
 -15  -6  23   10.05   83.94
  15   5 -23   54.61   63.29
  15   5 -23   35.92   87.77
 -15  -5  23   31.15   76.59
 -15  -5  23 -203.56   88.10
  15   4 -23   90.39   92.78
  15   4 -23   58.62   61.50
 -15  -4  23   42.28   83.50
 -15  -4  23   62.11   76.78
  15   3 -23   17.16   53.09
  15   3 -23   88.60   81.64
 -15  -3  23   -2.89   72.15
 -15  -3  23   37.18   77.88
  15   2 -23   33.86   53.41
 -16  -5  23   -3.41   77.95
  -1   2 -24   14.87   19.90
   0   2 -24   81.80   34.23
   0  -2  24   89.94   57.33
  -2   2 -24   -6.12   18.15
   2   2 -24   -6.02   21.43
   3   2 -24  -23.99   24.48
  -2   3 -24    6.19   20.72
  -2   3 -24   19.12   64.81
  -3  -2  24  197.64   48.14
   2  -3  24   25.93   47.70
  -1   3 -24   58.99   67.44
  -1   3 -24   -9.59   20.11
   1  -3  24    4.81   47.55
   0   3 -24   26.37   65.31
   0  -3  24   28.66   48.37
  -3   2 -24    3.92   19.32
   2   3 -24  -11.86   23.10
   3   3 -24   27.20   23.61
   3   3 -24   -2.58   66.60
  -3   3 -24   -1.98   19.63
  -3  -3  24   16.20   49.45
   4   3 -24  -10.36   23.58
   4   3 -24 -181.76   66.49
  -4  -3  24   -3.31   48.80
   4   2 -24    5.49   69.26
  -2   4 -24   32.22   32.20
   4   2 -24   29.20   32.22
  -2   4 -24  157.18   78.53
   2  -4  24   76.86   57.49
  -4  -2  24  112.10   58.19
  -1   4 -24   47.68   23.90
  -1   4 -24  -17.32   68.24
   1  -4  24    7.50   49.28
   0   4 -24    2.39   60.02
  -2  -4  24  297.92  100.07
   3   4 -24   15.12   23.25
   3   4 -24  -30.07   62.11
  -3  -4  24   32.66   49.48
   4   4 -24    2.33   60.27
   4   4 -24    3.93   23.12
  -4  -4  24  -57.38   49.48
   5   4 -24    2.37   61.06
   5   4 -24   12.37   27.40
  -5  -4  24   69.00   51.94
   5   3 -24  -56.94   65.71
   5   3 -24   -8.17   25.99
  -5  -3  24   39.34   49.54
   5   2 -24 -144.41   65.81
  -2   5 -24    1.26   25.36
  -2   5 -24   -2.30   64.65
   5   2 -24   -5.72   25.41
  -5  -2  24   12.57   49.88
   2  -5  24   -8.58   48.75
   2  -5  24  -11.74   26.11
  -1   5 -24   48.88   62.12
   1  -5  24  -29.91   50.02
   1   5 -24   -9.42   26.39
   2   5 -24   71.65   57.01
   2   5 -24   12.47   27.20
  -2  -5  24  -39.63   48.38
   3   5 -24  -84.55   50.78
   3   5 -24   28.62   27.92
  -3  -5  24   26.76   47.31
   4   5 -24  -32.12   57.88
   4   5 -24   -2.97   28.04
  -4  -5  24    3.05   49.00
   5   5 -24    4.37   56.05
   5   5 -24    9.26   27.88
  -5  -5  24  -12.63   50.20
   6   5 -24   26.93   57.57
   6   5 -24   -1.62   30.01
  -6  -5  24   36.43   52.66
   6   4 -24    2.43   62.20
   6   4 -24  -23.10   27.01
  -6  -4  24  -11.91   51.87
   6   3 -24    2.64   64.69
   6   3 -24    7.14   26.47
  -6  -3  24    8.84   53.43
   6   2 -24    2.82   67.74
  -2   6 -24  -20.98   60.25
   6   2 -24    1.51   28.23
   2  -6  24  -25.75   46.59
  -6  -2  24    7.41   50.47
   0   6 -24   13.97   28.67
   0  -6  24   13.25   30.75
   1   6 -24   12.77   29.63
   1   6 -24  -23.82   55.73
  -1  -6  24  -38.86   46.82
  -1  -6  24   10.23   30.78
   2   6 -24  -33.21   49.98
   2   6 -24   15.82   29.74
  -2  -6  24   11.34   45.67
  -2  -6  24  -23.06   34.35
   3   6 -24   45.62   32.56
   3   6 -24  242.73   58.60
  -3  -6  24  -21.19   39.43
  -3  -6  24   27.40   52.26
   4   6 -24   42.06   31.52
   4   6 -24    2.01   53.65
  -4  -6  24  -53.51   49.59
  -4  -6  24   20.94   37.96
   5   6 -24  -90.41   54.74
   5   6 -24   31.38   35.03
  -5  -6  24   50.70   40.99
  -5  -6  24   45.02   52.64
   6   6 -24  251.15   61.81
   6   6 -24    6.46   77.40
  -6  -6  24  147.09   67.22
  -6  -6  24  118.02   73.53
   7   6 -24  -93.93   63.08
  -7  -6  24    1.69   54.15
   7   5 -24   -2.38   64.06
  -7  -5  24  -77.83   55.41
   7   4 -24 -207.49   64.91
  -7  -4  24 -109.83   55.08
   7   3 -24 -173.33   69.05
  -7  -3  24   43.80   53.45
   7   2 -24    2.88   68.67
  -7  -2  24   17.29   53.20
  -1   7 -24    3.63   34.82
   1  -7  24    3.77   30.75
   0   7 -24  -26.41   34.27
   0   7 -24  -18.91   52.03
   0  -7  24   -4.00   47.31
   0  -7  24  -16.02   32.46
   1   7 -24 -120.90   51.92
   1   7 -24  -14.96   35.16
  -1  -7  24    1.40   33.06
  -1  -7  24   51.83   47.18
   2   7 -24   90.60   37.72
   2   7 -24  -82.79   50.89
  -2  -7  24   86.67   48.57
  -2  -7  24    7.42   37.13
   3   7 -24    1.91   53.16
   3   7 -24   -9.91   37.22
  -3  -7  24  -27.30   50.05
  -3  -7  24    1.57   40.18
   4   7 -24   66.83   52.60
   4   7 -24    8.19   39.52
  -4  -7  24   47.54   51.55
  -4  -7  24   13.28   41.57
   5   7 -24   -2.02   56.83
   5   7 -24  -46.57   40.35
  -5  -7  24    3.51   44.19
  -5  -7  24   -9.25   52.28
   6   7 -24 -131.28   56.68
   6   7 -24   50.59   41.21
  -6  -7  24    1.61   54.10
  -6  -7  24   -1.86   45.45
   7   7 -24    2.17   61.68
   7   7 -24    4.59   41.53
  -7  -7  24   23.71   52.53
  -7  -7  24 -124.62   61.15
   8   7 -24   81.85   44.99
   8   7 -24 -166.11   62.14
  -8  -7  24   39.47   59.87
   8   6 -24    2.08   42.40
   8   6 -24 -217.45   67.28
  -8  -6  24 -209.33   54.62
  -8  -6  24 -139.26   64.23
   8   5 -24    2.48   66.39
   8   5 -24  -53.45   37.96
  -8  -5  24  -54.81   49.22
  -8  -5  24  -25.47   60.34
   8   4 -24   10.06   31.13
   8   4 -24    7.87   66.31
  -8  -4  24   -1.86   55.87
   8   3 -24   27.28   32.57
   8   3 -24    2.83   70.45
  -8  -3  24   11.45   56.71
  -2   8 -24   16.25   37.45
   8   2 -24   41.34   70.44
   8   2 -24   42.03   32.96
  -8  -2  24   54.02   59.45
  -1   8 -24   61.33   54.17
  -1   8 -24   17.09   36.69
   1  -8  24    9.14   47.32
   1  -8  24   33.14   36.68
   0   8 -24   15.06   39.37
   0   8 -24   26.03   54.17
   0  -8  24   36.07   38.84
   0  -8  24   81.56   49.26
   1   8 -24    2.23   40.48
   1   8 -24    1.87   51.60
  -1  -8  24  -60.51   40.52
  -1  -8  24   39.72   47.72
   2   8 -24   80.10   50.19
   2   8 -24    9.44   58.62
  -2  -8  24  152.22   56.95
  -2  -8  24  109.24   50.56
   3   8 -24   29.84   41.78
   3   8 -24    1.92   52.24
  -3  -8  24 -155.48   50.44
  -3  -8  24  -85.65   43.03
   4   8 -24   -7.84   51.99
   4   8 -24  170.62   43.78
  -4  -8  24   18.05   52.54
  -4  -8  24  -97.83   48.53
   5   8 -24  -61.25   49.57
   5   8 -24 -124.83   61.41
  -5  -8  24 -202.93   53.03
   6   8 -24    2.54   49.20
  -6  -8  24   18.57   57.55
   7   8 -24  -68.72   48.80
   7   8 -24    2.19   57.51
  -7  -8  24  -39.75   57.11
  -7  -8  24   28.45   55.66
   8   8 -24    2.29   59.65
  -8  -8  24    3.64   59.76
   9   8 -24 -135.40   65.84
   9   8 -24  -40.60   51.42
  -9  -8  24   55.54   62.08
  -9  -8  24   11.64   62.99
   9   7 -24   41.26   64.98
   9   7 -24    2.54   45.17
  -9  -7  24   31.75   57.51
  -9  -7  24  -43.67   62.40
   9   6 -24   90.97   66.89
   9   6 -24  -11.04   41.51
  -9  -6  24    2.10   54.19
  -9  -6  24  -49.32   60.52
   9   5 -24   36.37   70.37
   9   5 -24   45.05   38.45
  -9  -5  24   37.15   50.74
  -9  -5  24   11.51   61.66
   9   4 -24    1.79   35.00
   9   4 -24    2.73   72.73
  -9  -4  24   62.62   63.48
   9   3 -24  -85.21   74.55
   9   3 -24   53.17   35.00
  -9  -3  24   90.19   61.94
   9   2 -24    3.04   73.07
   9   2 -24    3.55   33.52
  -9  -2  24  -33.49   58.69
  -1   9 -24    5.66   55.05
  -1   9 -24  -31.67   46.06
   1  -9  24   41.20   40.47
   1  -9  24   70.68   49.26
   0   9 -24  -73.14   52.67
   0   9 -24   -7.34   40.19
   0  -9  24  -10.44   41.74
   0  -9  24   64.86   48.29
   1   9 -24   43.52   55.50
   1   9 -24    7.65   46.73
  -1  -9  24  148.73   45.39
  -1  -9  24   -1.39   48.79
   2   9 -24   84.33   55.45
   2   9 -24   18.53   48.17
  -2  -9  24  106.03   50.96
  -2  -9  24  -28.38   48.32
   3   9 -24    1.95   54.53
   3   9 -24   42.17   47.71
  -3  -9  24  -97.76   49.06
  -3  -9  24    1.48   50.25
   4   9 -24   76.36   64.53
   4   9 -24   39.87   68.64
  -4  -9  24  117.75   66.64
  -4  -9  24  247.28   69.26
   5   9 -24   53.99   61.99
   5   9 -24  177.75   56.18
  -5  -9  24   30.54   58.49
  -5  -9  24   46.91   58.57
   6   9 -24  125.73   54.99
   6   9 -24    2.15   59.46
  -6  -9  24   70.89   59.57
  -6  -9  24  -29.98   58.70
   7   9 -24  -49.05   61.12
   7   9 -24   -9.12   51.11
  -7  -9  24  -12.38   58.78
  -7  -9  24 -136.69   60.49
   8   9 -24  -49.54   63.04
  -8  -9  24   -7.54   63.01
   9   9 -24 -215.66   69.64
  -9  -9  24 -197.18   80.37
  -9  -9  24  -71.72   77.92
  10   9 -24   61.68   65.18
  10   9 -24    2.65   75.98
 -10  -9  24  -77.02   70.97
 -10  -9  24  -69.16   76.68
  10   7 -24  -79.62   69.22
  10   7 -24   14.01   51.98
 -10  -7  24   75.29   63.56
 -10  -7  24  128.14   67.38
  10   6 -24 -134.46   45.39
  10   6 -24    2.65   69.17
 -10  -6  24   -2.25   57.48
 -10  -6  24  -78.55   64.49
  10   5 -24    2.77   71.69
  10   5 -24   79.88   42.49
 -10  -5  24   -2.03   65.11
 -10  -5  24   44.29   56.30
  10   4 -24   19.85   35.19
  10   4 -24  -88.91   73.83
 -10  -4  24   45.49   62.65
  10   3 -24   40.57   37.22
  10   3 -24   -3.07   73.69
 -10  -3  24  -16.90   60.11
  10   2 -24  -28.42   35.14
  10   2 -24    9.43   73.23
 -10  -2  24  -28.57   60.56
  -1  10 -24  -49.06   46.65
  -1  10 -24  -11.49   55.70
   1 -10  24   55.52   49.38
   1 -10  24 -116.85   47.03
   0  10 -24   25.12   56.04
   0  10 -24  -28.54   45.73
   0 -10  24    1.98   46.47
   0 -10  24  -34.94   49.81
   1  10 -24  -37.81   48.71
   1  10 -24 -105.59   57.80
  -1 -10  24  -55.11   50.89
  -1 -10  24  -28.81   51.92
   2  10 -24  -71.48   54.99
   2  10 -24   -9.08   50.69
  -2 -10  24  -13.40   52.15
  -2 -10  24  -73.26   52.15
   3  10 -24   90.83   53.79
   3  10 -24  -87.02   57.66
  -3 -10  24   96.99   55.49
  -3 -10  24   38.66   55.52
   4  10 -24   58.01   59.74
   4  10 -24   43.93   60.01
  -4 -10  24    2.35   56.68
  -4 -10  24  157.99   60.92
   5  10 -24  178.85   63.59
   5  10 -24   83.12   64.36
  -5 -10  24  106.25   64.14
  -5 -10  24  -24.79   64.15
   6  10 -24    3.37   56.24
   6  10 -24   11.22   61.38
  -6 -10  24  -31.45   62.00
  -6 -10  24   54.56   59.24
   7  10 -24  -74.60   62.64
   7  10 -24   -3.50   59.08
  -7 -10  24   62.75   61.76
  -7 -10  24    8.32   67.57
   8  10 -24  -65.70   73.30
   9  10 -24   -2.59   73.70
   9  10 -24  -95.44   64.67
  -9 -10  24   21.87   73.17
  -9 -10  24    2.08   70.08
  10  10 -24   -4.16   72.01
  10  10 -24   -2.73   75.16
 -10 -10  24   49.21   76.59
 -10 -10  24  105.55   80.39
  11  10 -24   11.72   78.10
  11  10 -24   -4.38   60.98
 -11 -10  24    3.64   67.32
 -11 -10  24  -21.41   80.26
  11   9 -24 -141.06   76.67
  11   9 -24    3.83   68.06
 -11  -9  24   38.69   76.35
 -11  -9  24    3.22   75.40
  11   8 -24    3.37   62.22
  11   8 -24   66.33   77.62
 -11  -8  24 -117.55   73.15
 -11  -8  24  -66.50   70.65
  11   7 -24 2631.68  680.91
  11   7 -24 1366.28  656.67
 -11  -7  24 2446.31  671.29
  11   6 -24  -26.17   45.14
  11   6 -24 -182.48   72.67
 -11  -6  24 -177.64   70.13
 -11  -6  24  198.34   63.55
  11   5 -24   -2.93   74.08
  11   5 -24    2.32   41.28
 -11  -5  24    2.27   60.07
 -11  -5  24   60.58   67.53
  11   4 -24   61.94   42.68
  11   4 -24   15.30   76.66
 -11  -4  24    2.18   65.93
  11   3 -24  -63.77   77.69
  11   3 -24    1.99   38.12
 -11  -3  24    2.24   63.44
  11   2 -24   34.71   41.64
 -11  -2  24   76.46   65.14
  -1  11 -24    3.10   47.39
  -1  11 -24    1.96   58.17
   1 -11  24   32.15   52.78
   1 -11  24  134.95   53.59
   0  11 -24  -53.84   49.98
   0  11 -24    1.93   53.81
   0 -11  24   85.24   51.56
   0 -11  24  -46.53   50.63
   1  11 -24   78.49   56.81
   1  11 -24  -32.24   52.43
  -1 -11  24   14.06   57.26
  -1 -11  24   72.20   53.92
   2  11 -24  -47.96   54.75
   2  11 -24   -3.35   50.91
  -2 -11  24   40.44   52.13
  -2 -11  24  -49.34   57.94
   3  11 -24  -96.18   57.37
   3  11 -24   48.77   57.57
  -3 -11  24   14.50   54.57
  -3 -11  24   12.99   61.30
   4  11 -24    2.15   59.30
   4  11 -24   84.78   56.47
  -4 -11  24  -53.54   56.17
  -4 -11  24    2.66   61.56
   5  11 -24  -70.88   60.03
   5  11 -24    7.33   59.48
  -5 -11  24   43.52   57.73
  -5 -11  24   -2.81   66.04
   6  11 -24   -2.30   62.69
   6  11 -24   68.49   63.33
  -6 -11  24    2.97   72.42
  -6 -11  24   94.12   66.54
   7  11 -24  276.81  328.41
   7  11 -24  405.27  338.51
  -7 -11  24  843.33  367.55
  -7 -11  24  921.03  359.08
   8  11 -24 -160.68   72.21
  -8 -11  24   91.51   72.18
   9  11 -24  -38.76   71.15
   9  11 -24    5.45   76.11
  -9 -11  24 -215.83   87.68
  -9 -11  24  -76.40   74.46
  10  11 -24   22.96   81.12
 -10 -11  24   60.23   79.66
  12   9 -24  191.20   74.51
  12   9 -24  -79.29   87.71
 -12  -9  24    3.55   77.32
 -12  -9  24  134.94   85.66
  12   8 -24   11.94   77.08
  12   8 -24 -100.52   68.05
 -12  -8  24  -31.63   78.11
 -12  -8  24  -78.38   80.82
  12   7 -24   80.29   80.60
  12   7 -24  111.87   60.17
 -12  -7  24    2.33   74.79
 -12  -7  24  -37.33   72.22
  12   6 -24  -23.39   57.58
  12   6 -24 -150.12   84.94
 -12  -6  24    2.64   67.32
 -12  -6  24 -113.41   78.31
  12   5 -24  648.86  283.75
  12   5 -24 1372.82  316.84
 -12  -5  24  425.66  293.39
 -12  -5  24 1304.27  323.68
  12   4 -24    3.23   83.80
  12   4 -24  -68.68   44.50
 -12  -4  24   -2.32   69.38
 -12  -4  24   -2.40   63.18
  12   3 -24    3.33   80.21
  12   3 -24    2.22   38.06
 -12  -3  24   49.75   70.19
  12   2 -24   32.88   43.39
 -12  -2  24   51.31   72.03
  -1  12 -24  -90.70   55.78
   0  12 -24  135.38   72.64
   0 -12  24  195.65   68.60
   0 -12  24  -13.74   71.26
   1  12 -24    4.00   55.98
   1  12 -24   21.53   54.51
  -1 -12  24   25.94   52.84
  -1 -12  24   54.68   61.55
   2  12 -24   52.24   55.26
   2  12 -24   32.69   59.62
  -2 -12  24    2.90   62.89
  -2 -12  24   64.91   57.67
   3  12 -24 -153.03   60.88
   3  12 -24  -27.15   60.63
  -3 -12  24    3.04   62.83
  -3 -12  24  -70.15   57.61
   4  12 -24   51.19   59.97
   4  12 -24 -110.95   64.67
  -4 -12  24  -36.91   70.31
  -4 -12  24    1.74   58.95
   5  12 -24  498.78  245.75
   5  12 -24  378.91  249.39
  -5 -12  24  766.16  261.30
  -5 -12  24 1021.23  261.34
   6  12 -24    4.25   67.01
   6  12 -24  -85.90   68.26
  -6 -12  24 -134.34   69.66
  -6 -12  24 -198.59   83.01
   7  12 -24   -2.55   70.13
   7  12 -24 -190.03   74.98
  -7 -12  24   10.87   82.82
  -7 -12  24  -12.23   68.01
   8  12 -24    2.67   73.51
  -8 -12  24   -3.84   83.83
  -8 -12  24    2.14   76.16
  13   8 -24   22.78   85.71
  13   8 -24    3.98   58.62
 -13  -8  24  -46.19   82.70
  13   7 -24   17.65   63.06
  13   7 -24   90.76   85.89
 -13  -7  24 -142.89   76.69
 -13  -7  24   15.02   79.06
  13   6 -24  -53.58   58.78
  13   6 -24  257.99   89.90
 -13  -6  24   54.46   81.82
 -13  -6  24   -2.89   70.49
  13   5 -24  223.29   89.62
  13   5 -24  -39.36   52.56
 -13  -5  24   -2.46   76.04
 -13  -5  24  -51.70   68.26
  13   4 -24  189.98   91.67
  13   4 -24   66.12   53.13
 -13  -4  24   39.24   78.15
 -13  -4  24    2.60   68.35
  13   3 -24  -67.41   51.13
  13   3 -24  -62.53   91.00
 -13  -3  24  -52.49   79.76
  13   2 -24   78.40   51.57
   0  13 -24  372.00  111.91
   0 -13  24  169.08  112.46
   1  13 -24  285.88  136.09
  -1 -13  24  395.26  139.95
   2  13 -24  -68.74   62.86
  -2 -13  24  149.90   65.40
   3  13 -24   -2.15   65.21
  -3 -13  24 -340.09   84.22
  -3 -13  24 -157.52   68.79
   4  13 -24    2.29   64.76
  -4 -13  24   -3.63   76.60
  -4 -13  24   63.85   64.39
   5  13 -24   26.12   62.71
  -5 -13  24   65.20   82.40
  -5 -13  24  -30.48   64.84
   6  13 -24 -121.20   69.13
  -6 -13  24    4.05   85.47
  -6 -13  24   93.30   70.78
   7  13 -24  -53.21   74.25
  -7 -13  24  112.84   76.20
  -7 -13  24    4.28   72.78
  14   7 -24  -53.30   98.32
 -14  -7  24 -224.72   99.60
  14   6 -24   31.96   65.68
  14   6 -24 -105.88   95.08
 -14  -6  24   12.55   77.26
 -14  -6  24 -106.09   85.49
  14   5 -24   35.93   95.13
  14   5 -24  -69.93   57.16
 -14  -5  24   58.99   75.16
 -14  -5  24  -83.57   85.11
  14   4 -24   25.55   92.43
  14   4 -24   17.27   51.12
 -14  -4  24  -60.27   80.39
 -14  -4  24  -87.16   73.46
  14   3 -24  -10.85   50.80
  14   3 -24  -36.13   86.68
 -14  -3  24    5.29   77.15
  14   2 -24   21.33   51.25
  15   5 -24   99.08   95.10
  15   5 -24  122.03   68.71
 -15  -5  24 -185.52   86.43
  15   4 -24  -68.40   59.53
  15   4 -24   72.43   94.71
 -15  -4  24 -151.65   78.45
 -15  -4  24    2.78   81.87
  15   3 -24  -39.38   59.10
 -15  -3  24   36.35   81.61
 -15  -3  24 -120.78   75.65
  15   2 -24    2.90   55.19
   1   2 -25   24.34   25.84
   2   2 -25  -10.18   25.09
  -2   2 -25  -22.60   22.17
  -2  -2  25   -1.81   49.36
   3   2 -25   38.73   26.60
  -2   3 -25   44.57   22.40
   2  -3  25   -3.49   52.42
  -3  -2  25  -51.34   52.58
  -1   3 -25   43.25   74.66
   1  -3  25    3.43   54.72
   1   3 -25    2.41   26.00
   1   3 -25    2.80   60.31
   2   3 -25 -119.51   71.88
   2   3 -25    6.26   23.83
  -2  -3  25   73.85   51.60
   3   3 -25    2.78   65.62
   3   3 -25   18.28   23.93
  -3  -3  25  -39.88   50.35
   4   3 -25 -142.25   68.31
   4   3 -25   23.26   27.36
  -4  -3  25  173.07   53.98
   4   2 -25    2.93   64.76
   4   2 -25   74.59   28.36
  -2   4 -25  -89.90   70.48
   2  -4  25  -31.05   50.54
  -4  -2  25    1.86   51.07
   0   4 -25    2.40   23.34
   1   4 -25    8.66   23.05
   1   4 -25   67.37   68.82
  -1  -4  25   40.39   51.37
   2   4 -25   27.83   64.91
   2   4 -25   33.23   24.81
  -2  -4  25  -86.96   51.45
   3   4 -25  -45.51   64.05
   3   4 -25    3.98   23.52
  -3  -4  25  -13.34   50.23
   4   4 -25   63.58   68.70
   4   4 -25   30.35   26.75
  -4  -4  25   76.69   55.42
   5   4 -25   21.70   27.77
   5   4 -25    2.57   65.26
  -5  -4  25   12.27   53.50
   5   3 -25   76.01   67.62
   5   3 -25   18.71   27.61
  -5  -3  25  -54.36   52.73
  -2   5 -25  -12.71   69.69
   5   2 -25    2.95   66.90
   5   2 -25   -6.05   28.07
  -5  -2  25   70.50   51.70
   0   5 -25  664.34  162.01
   0  -5  25  398.33  155.90
   1   5 -25    4.24   24.90
   1   5 -25   52.29   61.68
  -1  -5  25  -32.66   50.36
   2   5 -25    2.34   59.94
   2   5 -25    1.45   26.17
  -2  -5  25  -86.84   53.01
   3   5 -25  -14.03   61.41
   3   5 -25  -34.51   27.72
  -3  -5  25 -156.19   53.12
   4   5 -25  -13.99   27.39
   4   5 -25  -92.19   58.92
  -4  -5  25   70.98   53.32
   5   5 -25    9.71   28.96
   5   5 -25   -2.41   60.01
  -5  -5  25   56.18   54.18
   6   5 -25   94.85   38.74
   6   5 -25   61.70   70.27
  -6  -5  25   77.73   61.98
   6   4 -25  157.94   87.19
   6   4 -25  141.43   56.99
  -6  -4  25  172.20   78.75
   6   3 -25  -19.63   28.56
   6   3 -25   -2.87   70.33
  -6  -3  25    5.61   52.90
   6   2 -25  -59.93   68.67
   6   2 -25   40.00   30.66
  -6  -2  25  -33.34   54.71
  -1   6 -25  -22.07   30.23
   1  -6  25  -17.54   32.11
   0   6 -25   57.48   60.05
   0   6 -25  -39.04   30.20
   0  -6  25   26.19   31.45
   0  -6  25  -34.10   48.54
   1   6 -25    2.19   58.95
   1   6 -25  -27.36   29.03
  -1  -6  25   23.86   34.37
  -1  -6  25   51.12   51.35
   2   6 -25   89.39   45.20
   2   6 -25  137.80   69.12
  -2  -6  25  106.64   60.16
  -2  -6  25  100.96   48.35
   3   6 -25   32.50   58.67
   3   6 -25    8.52   30.50
  -3  -6  25   -1.47   37.82
  -3  -6  25 -115.35   51.35
   4   6 -25  237.47   55.67
   4   6 -25  118.67   76.64
  -4  -6  25   77.65   60.59
  -4  -6  25   44.93   69.78
   5   6 -25   35.94   60.95
   5   6 -25   38.26   36.44
  -5  -6  25    3.29   43.09
  -5  -6  25   13.29   54.75
   6   6 -25   34.22   36.18
   6   6 -25  -87.83   63.37
  -6  -6  25  -63.98   46.75
   7   6 -25  -87.67   64.97
   7   6 -25    2.07   40.59
  -7  -6  25   10.89   58.66
  -7  -6  25   -5.67   47.57
   7   5 -25   -2.55   68.64
  -7  -5  25 -156.57   59.98
   7   4 -25   -2.71   70.54
  -7  -4  25 -118.83   58.59
   7   3 -25   49.90   72.64
  -7  -3  25   32.96   56.02
   7   2 -25    3.06   67.93
  -7  -2  25    2.03   52.59
  -1   7 -25  -54.38   56.52
  -1   7 -25   -1.91   34.40
   1  -7  25   -3.89   32.51
   1  -7  25  -87.04   49.88
   0   7 -25   64.53   50.00
   0   7 -25  165.85   69.53
   0  -7  25  152.27   63.21
   0  -7  25   72.44   47.54
   1   7 -25  -45.49   56.35
   1   7 -25   35.24   34.97
  -1  -7  25    1.48   49.34
  -1  -7  25   39.14   35.60
   2   7 -25    2.05   56.82
   2   7 -25   18.13   36.99
  -2  -7  25  -57.43   50.35
  -2  -7  25   24.55   35.86
   3   7 -25  118.21   42.96
   3   7 -25   29.05   60.22
  -3  -7  25   14.61   44.11
  -3  -7  25   45.00   55.93
   4   7 -25   23.22   57.08
   4   7 -25  -34.91   39.29
  -4  -7  25    1.72   43.11
  -4  -7  25 -102.43   54.35
   5   7 -25    4.25   41.87
   5   7 -25 -118.16   66.58
   6   7 -25   82.59   38.28
   6   7 -25  -72.19   59.83
  -6  -7  25 -179.09   52.03
  -6  -7  25  -41.52   59.90
   7   7 -25  -16.75   43.28
   7   7 -25 -121.83   63.53
  -7  -7  25   89.97   51.66
  -7  -7  25  -99.65   60.55
   8   7 -25    2.45   64.64
  -8  -7  25   17.15   61.17
   8   6 -25    2.54   68.01
   8   6 -25   -8.72   40.22
  -8  -6  25   62.94   58.87
   8   5 -25   92.85   45.22
   8   5 -25  109.90   76.18
  -8  -5  25  160.17   68.77
  -8  -5  25    1.91   56.72
   8   4 -25   -2.80   74.28
   8   4 -25    8.84   32.90
  -8  -4  25 -127.42   61.80
   8   3 -25   42.32   71.36
   8   3 -25   76.40   36.96
  -8  -3  25   50.58   61.55
   8   2 -25  -80.27   34.58
   8   2 -25  -93.93   72.94
  -8  -2  25   21.12   56.96
  -1   8 -25  149.52   79.53
  -1   8 -25  101.73   67.11
   1  -8  25  170.35   61.80
   1  -8  25  132.45   73.44
   0   8 -25  -22.61   40.82
   0   8 -25  -70.51   57.52
   0  -8  25   50.42   49.27
   0  -8  25   -4.64   36.28
   1   8 -25  169.21   74.95
   1   8 -25  211.89   83.89
  -1  -8  25  234.79   81.35
  -1  -8  25  135.47   71.64
   2   8 -25    2.33   40.02
   2   8 -25   28.50   57.53
  -2  -8  25   12.13   51.42
  -2  -8  25  -63.16   43.36
   3   8 -25   26.42   43.18
   3   8 -25  -74.29   59.03
  -3  -8  25  -32.46   49.28
   4   8 -25  -33.66   76.11
   4   8 -25   79.26   64.08
  -4  -8  25  236.18   71.00
  -4  -8  25  323.08   76.50
   5   8 -25   32.38   64.26
   5   8 -25  168.90   52.41
  -5  -8  25    2.01   52.73
  -5  -8  25   58.66   60.57
   6   8 -25    2.65   45.31
   6   8 -25  -60.28   61.30
  -6  -8  25  -55.91   57.12
  -6  -8  25    2.13   54.05
   7   8 -25    2.32   60.63
   7   8 -25    2.76   47.89
  -7  -8  25  112.61   61.54
  -7  -8  25 -131.11   56.74
   8   8 -25  -66.31   68.00
  -8  -8  25   -1.94   64.82
   9   8 -25 -233.08   74.78
  -9  -8  25 -258.75   84.90
   9   7 -25  115.39   71.72
   9   7 -25 -124.60   51.42
  -9  -7  25   54.78   65.15
  -9  -7  25    2.33   54.11
   9   6 -25  -98.68   70.00
   9   6 -25   39.22   42.82
  -9  -6  25    2.16   53.14
  -9  -6  25  -14.10   63.29
   9   5 -25   32.90   42.40
   9   5 -25   84.05   74.17
  -9  -5  25   40.72   67.46
  -9  -5  25   96.01   56.61
   9   4 -25   56.20   82.13
   9   4 -25  113.27   47.51
  -9  -4  25   74.18   71.16
   9   3 -25  -36.31   33.52
   9   3 -25 -103.33   77.72
  -9  -3  25   -2.13   61.56
   9   2 -25    1.89   33.91
  -9  -2  25    2.21   60.84
  -1   9 -25 -170.32   64.10
  -1   9 -25  -20.49   44.87
   1  -9  25  -59.17   45.27
   1  -9  25 -106.32   57.33
   0   9 -25   12.87   46.79
   0   9 -25   88.42   59.38
   0  -9  25   32.46   54.53
   0  -9  25   17.43   44.38
   1   9 -25 -151.80   60.78
   1   9 -25  -42.87   47.72
  -1  -9  25    5.53   47.82
  -1  -9  25  -71.82   57.80
   2   9 -25  -71.64   58.24
   2   9 -25   77.52   42.40
  -2  -9  25   87.82   47.26
  -2  -9  25   -4.62   57.17
   3   9 -25   44.24   46.75
   3   9 -25    2.08   55.37
  -3  -9  25  -50.45   50.80
  -3  -9  25  -76.32   54.83
   4   9 -25   29.74   61.09
   4   9 -25  174.25   58.98
  -4  -9  25    2.13   56.83
  -4  -9  25  100.14   63.23
   5   9 -25   46.38   67.51
   5   9 -25   73.82   59.75
  -5  -9  25   -2.25   62.01
  -5  -9  25  207.90   66.40
   6   9 -25   61.16   53.52
   6   9 -25   57.05   63.37
  -6  -9  25  -64.30   56.65
  -6  -9  25    1.81   59.98
   7   9 -25    2.37   63.09
   7   9 -25   73.04   55.88
  -7  -9  25    2.52   64.39
  -7  -9  25    3.78   62.63
   8   9 -25 -255.61   88.22
  -8  -9  25 -233.50   92.38
   9   9 -25 -197.61   73.38
  -9  -9  25 -250.61   84.88
  -9  -9  25 -178.42   89.10
  10   9 -25   64.29   77.13
  10   9 -25  -47.39   64.62
 -10  -9  25   29.57   76.52
 -10  -9  25    6.21   76.71
  10   8 -25  -63.13   61.87
  10   8 -25   44.46   78.27
 -10  -8  25  -55.06   72.68
 -10  -8  25 -100.51   72.02
  10   7 -25  -70.23   59.37
  10   6 -25   46.07   73.18
  10   6 -25   15.36   46.40
 -10  -6  25  -25.85   72.40
 -10  -6  25   -2.34   60.20
  10   5 -25  -23.56   71.80
  10   5 -25   74.81   42.36
 -10  -5  25   15.43   57.36
 -10  -5  25  -75.42   68.38
  10   4 -25    2.09   38.89
  10   4 -25    6.20   78.88
 -10  -4  25   13.06   65.29
  10   3 -25  111.23   50.75
  10   3 -25   87.54   89.23
 -10  -3  25  123.00   75.35
  10   2 -25  -42.27   37.21
 -10  -2  25   60.26   64.56
  -1  10 -25   14.35   56.91
  -1  10 -25  -11.44   45.89
   1 -10  25  -46.27   44.60
   1 -10  25   21.83   50.06
   0  10 -25    2.93   46.20
   0  10 -25  -86.79   60.15
   0 -10  25  -13.90   47.55
   0 -10  25  -13.51   51.81
   1  10 -25  -30.58   52.14
   1  10 -25   52.21   58.96
  -1 -10  25   29.39   51.61
  -1 -10  25  -37.80   51.41
   2  10 -25    2.12   57.38
   2  10 -25  -64.40   54.84
  -2 -10  25   70.25   54.85
  -2 -10  25    2.22   52.93
   3  10 -25  162.22   64.09
   3  10 -25  140.18   68.34
  -3 -10  25   52.82   64.29
  -3 -10  25   44.59   65.53
   4  10 -25    3.29   55.11
   4  10 -25   -2.20   60.27
  -4 -10  25    2.42   59.09
  -4 -10  25  -34.24   56.85
   5  10 -25  -78.36   59.04
   5  10 -25   86.10   62.78
  -5 -10  25   64.00   63.55
  -5 -10  25   83.66   61.06
   6  10 -25  146.93   67.33
   6  10 -25  144.74   64.97
  -6 -10  25  -20.71   68.00
  -6 -10  25   62.27   68.95
   7  10 -25   69.63   68.08
   7  10 -25    2.46   74.34
  -7 -10  25 -137.50   71.60
  -7 -10  25 -128.21   72.20
   8  10 -25    2.57   71.40
  -8 -10  25   26.96   71.42
   9  10 -25    7.98   69.96
   9  10 -25 -166.83   78.96
  -9 -10  25   97.58   77.86
  -9 -10  25  148.52   77.65
  10  10 -25  -34.71   80.65
  10  10 -25 -113.11   67.10
 -10 -10  25  -92.95   73.62
 -10 -10  25  -56.42   80.74
  11   9 -25  -52.06   71.63
  11   9 -25  -12.05   80.99
 -11  -9  25   19.98   80.38
 -11  -9  25   79.82   83.34
  11   8 -25   70.43   65.06
  11   8 -25   -2.96   77.98
 -11  -8  25    5.99   73.07
 -11  -8  25   91.59   79.17
  11   7 -25    9.01   80.57
  11   7 -25  -65.55   57.72
 -11  -7  25   13.86   72.15
 -11  -7  25    8.12   67.65
  11   6 -25 -249.17   64.87
  11   5 -25   -2.44   51.62
 -11  -5  25 -170.71   68.58
 -11  -5  25 -246.82   80.98
  11   4 -25  -87.84   40.83
  11   4 -25   45.60   80.12
 -11  -4  25  -73.27   69.13
  11   3 -25   81.01   80.76
  11   3 -25   58.87   43.86
 -11  -3  25   -2.36   69.57
  11   2 -25   58.60   41.24
 -11  -2  25  -56.04   66.56
  -1  11 -25    6.34   49.50
   0  11 -25  -29.74   59.42
   0  11 -25   63.09   49.45
   0 -11  25   68.41   54.76
   0 -11  25  -43.45   53.99
   1  11 -25  -21.08   59.21
   1  11 -25   47.40   53.82
  -1 -11  25   -3.21   55.04
  -1 -11  25    2.41   54.18
   2  11 -25    6.57   60.67
   2  11 -25  -38.76   57.27
  -2 -11  25   12.69   58.68
  -2 -11  25   11.62   56.65
   3  11 -25   78.26   66.30
   3  11 -25   50.07   64.93
  -3 -11  25   77.36   65.10
  -3 -11  25   88.53   66.88
   4  11 -25  197.13   67.61
   4  11 -25   -3.71   63.08
  -4 -11  25    2.75   64.07
  -4 -11  25   44.59   64.72
   5  11 -25   30.77   67.77
   5  11 -25 -188.81   71.94
  -5 -11  25 -129.93   73.74
   6  11 -25  -59.83   76.48
   6  11 -25 -104.98   82.84
  -6 -11  25 -248.41   88.13
   7  11 -25   99.45   67.88
   7  11 -25 -211.84   73.50
  -7 -11  25  -94.14   77.45
  -7 -11  25   39.21   69.77
   8  11 -25  -43.15   73.43
   8  11 -25  -70.14   76.57
  -8 -11  25    2.17   74.75
  -8 -11  25   58.52   82.32
   9  11 -25  -63.05   81.06
  -9 -11  25  -37.19   78.44
  12   8 -25  -73.86   84.05
  12   8 -25  -48.73   58.63
 -12  -8  25    3.22   68.27
 -12  -8  25 -136.56   86.26
  12   7 -25  -20.02   59.64
  12   7 -25    3.20   79.86
 -12  -7  25  -77.45   75.33
 -12  -7  25 -162.93   83.28
  12   6 -25  260.32   60.46
  12   6 -25 -184.20   86.74
 -12  -6  25 -166.36   78.40
 -12  -6  25  -19.26   68.03
  12   5 -25  -86.70   83.19
  12   5 -25  -27.29   50.31
 -12  -5  25   44.22   64.84
 -12  -5  25   17.04   75.05
  12   4 -25 -187.96   98.32
  12   4 -25  -17.49   51.39
 -12  -4  25 -218.83   81.10
 -12  -4  25    2.52   66.11
  12   3 -25 1244.14  244.34
  12   3 -25  292.29  202.18
 -12  -3  25  640.75  241.83
  12   2 -25 -207.30   57.52
   0  12 -25 -137.54   63.63
   0 -12  25  -40.70   58.51
   0 -12  25  -44.94   61.63
   1  12 -25  -71.44   62.64
  -1 -12  25 -116.01   64.92
  -1 -12  25    8.11   59.74
   2  12 -25 -158.31   77.97
   2  12 -25 -227.23   80.12
  -2 -12  25 -229.15   84.98
   3  12 -25  167.28  208.36
   3  12 -25  628.44  212.34
  -3 -12  25  689.69  217.91
  -3 -12  25  715.79  216.66
   4  12 -25 -158.82   69.60
   4  12 -25  -66.18   68.93
  -4 -12  25 -139.60   79.80
  -4 -12  25 -222.13   74.33
   5  12 -25  -64.39   68.93
   5  12 -25  110.24   71.28
  -5 -12  25    3.35   75.61
  -5 -12  25  110.92   69.19
   6  12 -25    5.08   69.77
   6  12 -25   31.20   73.29
  -6 -12  25   56.96   67.86
  -6 -12  25    3.54   80.27
   7  12 -25   69.48   72.75
   7  12 -25  108.30   74.18
  -7 -12  25  -30.33   78.42
  -7 -12  25    3.74   87.18
  13   7 -25   59.67   90.59
 -13  -7  25  -53.36   87.72
  13   6 -25  -39.70   60.60
  13   6 -25    3.51   90.19
 -13  -6  25   91.53   83.98
 -13  -6  25    2.98   72.21
  13   5 -25  -88.71   53.78
  13   5 -25   71.80   94.97
 -13  -5  25  139.34   80.35
 -13  -5  25    5.62   69.14
  13   4 -25   73.45   91.89
  13   4 -25  -24.37   51.45
 -13  -4  25    2.59   77.64
 -13  -4  25    5.46   69.61
  13   3 -25   44.95   51.04
  13   3 -25  -18.33   90.68
 -13  -3  25   15.76   76.00
  13   2 -25  -53.04   46.29
   0  13 -25    2.14   64.28
   0 -13  25  140.61   63.83
   1  13 -25   -2.18   59.89
  -1 -13  25  -10.10   57.27
   2  13 -25  -24.64   63.01
  -2 -13  25   70.01   61.55
  -2 -13  25    3.50   72.00
   3  13 -25  -46.10   64.82
  -3 -13  25  -92.50   77.52
  -3 -13  25   64.89   64.48
   4  13 -25  141.94   75.85
  -4 -13  25    7.51   83.43
  -4 -13  25  127.57   74.42
   5  13 -25  116.72   73.17
  -5 -13  25   71.38   91.30
  -5 -13  25   10.10   72.17
   6  13 -25   -2.64   70.42
  -6 -13  25  -61.34   72.84
  -6 -13  25    4.19   67.01
  14   5 -25   34.30   93.26
  14   5 -25  -53.47   62.31
 -14  -5  25   49.62   85.96
  14   4 -25    6.08   53.38
  14   4 -25  165.38   98.07
 -14  -4  25 -132.81   74.38
 -14  -4  25  -71.67   83.58
  14   3 -25  -37.38   56.15
 -14  -3  25  -66.80   80.57
  14   2 -25   -8.51   53.01
  15   4 -25 -261.90  102.91
 -15  -4  25  -46.58   92.69
  15   3 -25    3.21   60.81
 -15  -3  25 -170.41   88.64
  15   2 -25    6.16   57.08
   0   2 -26   33.20   24.96
   1   2 -26    3.85   23.46
   2   2 -26   29.58   26.66
   3   2 -26  -23.06   26.52
  -3  -2  26   25.35   51.14
  -1   3 -26   18.94   24.95
   0   3 -26  -57.82   75.02
   0   3 -26   -4.90   22.22
   0  -3  26   61.89   51.83
   1   3 -26   45.03   76.81
   1   3 -26   50.79   32.61
  -1  -3  26  159.92   58.27
   2   3 -26    7.92   25.09
   2   3 -26    5.96   70.00
  -2  -3  26    1.83   51.07
   3   3 -26   89.11   73.73
   3   3 -26   26.20   29.41
  -3  -3  26   63.06   56.11
   4   3 -26  110.21   70.73
   4   3 -26  -20.24   28.14
  -4  -3  26 -100.10   53.34
   4   2 -26   13.65   26.51
  -4  -2  26   -9.90   54.01
  -1   4 -26    4.90   22.50
   0   4 -26   26.07   73.96
   0   4 -26   13.85   25.37
   0  -4  26   63.72   54.49
   1   4 -26   -6.50   23.41
   1   4 -26   56.16   71.17
  -1  -4  26   10.34   52.76
   2   4 -26   14.78   25.05
   2   4 -26   75.05   71.95
  -2  -4  26   12.25   52.77
   3   4 -26   36.24   26.38
   3   4 -26   19.37   69.89
  -3  -4  26    1.77   53.63
   4   4 -26    7.26   26.74
   4   4 -26 -225.12   72.04
  -4  -4  26    5.43   54.88
   5   4 -26  112.34   76.21
   5   4 -26  111.22   33.09
  -5  -4  26 -105.84   57.51
   5   3 -26   22.83   27.84
   5   3 -26 -189.34   73.02
  -5  -3  26   48.35   54.90
  -2   5 -26   37.46   27.06
   5   2 -26   41.63   29.85
  -5  -2  26  -36.44   55.30
  -1   5 -26   13.98   26.41
  -1   5 -26 -113.29   71.92
   1  -5  26  -56.45   51.54
   0   5 -26   10.57   69.45
   0   5 -26   11.50   27.50
   0  -5  26   83.04   54.64
   1   5 -26    5.15   67.81
   1   5 -26   -1.48   28.51
  -1  -5  26  -46.81   53.51
   2   5 -26   12.19   29.28
   2   5 -26 -114.99   66.72
  -2  -5  26   27.11   55.13
   3   5 -26  -40.92   66.73
   3   5 -26  -20.44   28.41
  -3  -5  26   44.82   55.63
   4   5 -26   88.04   39.56
   4   5 -26   72.15   69.58
  -4  -5  26   60.05   61.37
   5   5 -26   81.52   33.79
   5   5 -26   75.89   70.59
  -5  -5  26  -34.57   60.02
   6   5 -26  -40.91   38.18
   6   5 -26    2.68   73.95
  -6  -5  26  280.51   67.83
   6   4 -26  -48.65   71.23
   6   4 -26  -16.03   29.52
  -6  -4  26    1.92   56.80
   6   3 -26   57.99   86.07
   6   3 -26  100.61   49.07
  -6  -3  26  191.22   74.35
   6   2 -26  -36.74   31.83
  -6  -2  26  -41.61   56.52
  -1   6 -26    6.61   29.59
  -1   6 -26    2.50   65.28
   1  -6  26   -6.05   31.57
   1  -6  26   92.79   52.46
   0   6 -26 -154.87   66.25
   0   6 -26   13.62   31.87
   0  -6  26   -3.87   33.88
   0  -6  26  104.77   54.10
   1   6 -26   88.00   65.24
   1   6 -26    5.05   31.73
  -1  -6  26   12.16   35.10
  -1  -6  26  -11.41   53.36
   2   6 -26   43.26   34.64
   2   6 -26  113.76   64.63
  -2  -6  26   -1.43   36.92
  -2  -6  26   16.43   53.40
   3   6 -26   76.14   78.75
   3   6 -26   94.35   55.03
  -3  -6  26  161.29   59.03
  -3  -6  26  173.00   72.16
   4   6 -26  -33.09   34.00
   4   6 -26   -2.41   61.39
  -4  -6  26   46.61   57.14
  -4  -6  26  -69.39   42.76
   5   6 -26  161.98   77.53
   5   6 -26   24.80   48.30
  -5  -6  26   92.42   57.09
  -5  -6  26  205.22   70.67
   6   6 -26   99.43   38.55
   6   6 -26    2.52   65.40
  -6  -6  26   50.04   60.95
  -6  -6  26    9.09   49.24
   7   6 -26   43.30   40.29
   7   6 -26  -57.41   68.04
  -7  -6  26   -3.94   49.44
  -7  -6  26    1.95   61.25
   7   5 -26   22.46   41.96
   7   5 -26  113.18   78.97
  -7  -5  26  147.05   67.13
   7   4 -26   28.81   33.45
   7   4 -26   58.78   76.69
  -7  -4  26   37.88   60.73
   7   3 -26    3.12   76.87
  -7  -3  26   14.44   61.06
  -7  -2  26   -2.15   58.71
  -1   7 -26   65.95   51.96
  -1   7 -26  129.38   76.30
   1  -7  26  114.95   47.06
   1  -7  26   41.79   64.58
   0   7 -26 -230.56   63.01
   0   7 -26  -21.84   37.52
   0  -7  26  -68.99   56.03
   0  -7  26   -1.41   35.09
   1   7 -26   53.25   65.31
   1   7 -26  270.26   84.17
  -1  -7  26  162.76   77.42
  -1  -7  26  207.83   64.24
   2   7 -26  -14.74   38.64
   2   7 -26  165.69   64.91
  -2  -7  26   -7.92   40.74
  -2  -7  26  -35.87   56.00
   3   7 -26   22.56   66.97
   3   7 -26  128.93   49.48
  -3  -7  26   24.86   48.89
  -3  -7  26  113.84   64.55
   4   7 -26   16.03   63.68
   4   7 -26   38.60   40.16
  -4  -7  26   -1.75   45.93
   5   7 -26  112.49   67.45
   5   7 -26  150.73   47.14
  -5  -7  26   12.49   63.28
  -5  -7  26    1.86   52.70
   6   7 -26   46.60   66.75
   6   7 -26   96.71   42.91
  -6  -7  26   37.89   50.08
  -6  -7  26 -131.97   59.65
   7   7 -26 -104.35   70.66
   7   7 -26  -39.98   43.08
  -7  -7  26    2.12   50.56
  -7  -7  26   17.47   61.26
   8   7 -26   23.92   73.28
  -8  -7  26  -61.28   65.65
   8   6 -26    2.78   74.20
  -8  -6  26   94.12   70.25
   8   5 -26    2.86   72.39
  -8  -5  26  -41.06   63.54
   8   4 -26  100.33   88.09
   8   4 -26   63.40   49.54
  -8  -4  26  160.26   76.78
   8   3 -26    5.39   33.43
   8   3 -26   -3.20   75.44
  -8  -3  26    2.15   59.04
   8   2 -26    1.89   40.71
  -8  -2  26  183.09   67.47
  -1   8 -26  -11.05   65.91
  -1   8 -26  -20.45   46.05
   1  -8  26 -184.67   60.37
   1  -8  26  -68.89   40.92
   0   8 -26    4.39   64.07
   0   8 -26   87.72   44.83
   0  -8  26   -9.57   41.57
   0  -8  26  -52.77   58.18
   1   8 -26  -23.61   45.75
  -1  -8  26  -96.31   45.74
  -1  -8  26 -201.84   61.62
   2   8 -26  131.62   45.99
   2   8 -26  -50.73   61.79
  -2  -8  26  -61.94   58.27
  -2  -8  26   79.15   46.14
   3   8 -26   51.27   60.03
   3   8 -26   -7.53   46.58
  -3  -8  26   96.65   48.54
  -3  -8  26  -43.63   56.48
   4   8 -26  252.22   83.90
   4   8 -26  245.76   73.29
  -4  -8  26   35.35   72.32
  -4  -8  26  157.63   80.90
   5   8 -26   18.13   46.13
   5   8 -26   32.62   63.60
  -5  -8  26   74.80   53.88
  -5  -8  26   -1.80   60.40
   6   8 -26  -38.75   52.71
   6   8 -26  185.09   68.65
  -6  -8  26   52.37   64.13
  -6  -8  26   24.23   55.64
   7   8 -26   37.39   51.33
   7   8 -26    2.50   65.24
  -7  -8  26  -55.42   67.10
  -7  -8  26   23.34   58.30
   9   8 -26    2.78   77.83
   9   8 -26    3.16   56.85
  -9  -8  26   13.26   68.62
  -9  -8  26   -2.20   75.13
   9   7 -26 -141.15   65.44
   9   6 -26    4.84   46.52
   9   6 -26   14.55   76.30
  -9  -6  26   49.42   55.35
  -9  -6  26   34.53   68.40
   9   5 -26  136.27   46.34
   9   5 -26   45.36   82.80
  -9  -5  26    4.28   58.58
  -9  -5  26   43.19   69.07
   9   4 -26 -117.01   74.67
   9   4 -26   11.94   36.83
  -9  -4  26   41.52   64.13
   9   3 -26    5.77   39.40
   9   3 -26    3.31   83.03
  -9  -3  26   94.31   68.64
   9   2 -26  -10.02   37.03
  -9  -2  26  -90.86   63.33
  -1   9 -26    5.16   56.58
  -1   9 -26  225.36   73.64
   0   9 -26  151.66   63.31
   0   9 -26  -13.50   44.18
   0  -9  26  -57.05   55.53
   0  -9  26   12.53   43.67
   1   9 -26   21.63   55.57
   1   9 -26   74.03   69.26
  -1  -9  26  131.76   55.46
  -1  -9  26  114.28   63.94
   2   9 -26   63.74   62.42
   2   9 -26  -14.01   51.19
  -2  -9  26   66.87   48.67
  -2  -9  26   89.50   59.35
   3   9 -26   43.43   72.44
   3   9 -26  187.33   79.14
  -3  -9  26  179.41   77.25
  -3  -9  26  208.04   71.12
   4   9 -26   -2.99   55.04
   4   9 -26 -131.98   63.29
  -4  -9  26   61.56   52.81
  -4  -9  26   24.73   59.26
   5   9 -26  138.91   60.15
   5   9 -26   18.68   67.58
  -5  -9  26    2.33   62.29
  -5  -9  26  122.50   66.22
   6   9 -26  -48.76   68.49
   6   9 -26  108.62   58.48
  -6  -9  26   71.57   66.18
  -6  -9  26   39.35   62.05
   7   9 -26 -179.11   71.16
   7   9 -26 -184.90   81.78
  -7  -9  26 -226.61   77.03
  -7  -9  26 -188.09   83.57
   8   9 -26   15.92   75.12
  -8  -9  26 -116.08   69.09
  -8  -9  26  -38.65   74.27
   9   9 -26   10.86   65.66
   9   9 -26    2.82   82.69
  -9  -9  26  210.60   83.18
  -9  -9  26   47.07   75.94
  10   9 -26   80.81   87.05
 -10  -9  26   40.77   81.25
  10   8 -26  -33.39   58.68
  10   8 -26   20.62   80.72
 -10  -8  26    2.35   76.75
 -10  -8  26   51.08   69.37
  10   7 -26  -23.50   50.69
  10   7 -26   -6.01   77.95
 -10  -7  26   62.03   74.16
 -10  -7  26   -2.61   62.38
  10   6 -26  539.71  176.25
  10   6 -26  101.96  147.90
 -10  -6  26  579.53  176.32
 -10  -6  26  558.03  158.65
  10   5 -26   -3.17   84.49
  10   5 -26   95.34   46.69
 -10  -5  26    2.31   58.96
 -10  -5  26  -22.81   70.54
  10   4 -26   79.56   47.77
  10   4 -26  -16.73   86.31
 -10  -4  26   27.46   72.81
  10   3 -26   12.42   37.28
  10   3 -26 -133.84   80.79
  10   2 -26  100.59   47.11
 -10  -2  26   53.66   71.16
   0  10 -26   52.92   62.59
   0  10 -26   36.88   51.77
   0 -10  26   36.69   47.41
   0 -10  26    1.61   56.49
   1  10 -26   66.74   61.87
   1  10 -26   22.47   55.82
  -1 -10  26   34.87   56.91
  -1 -10  26  -34.56   50.64
   2  10 -26   28.96   59.31
   2  10 -26  141.93   68.10
  -2 -10  26   46.20   63.76
  -2 -10  26    2.24   53.48
   3  10 -26   90.03   55.74
   3  10 -26  190.06   63.84
  -3 -10  26 -100.88   61.96
  -3 -10  26  -56.72   56.31
   4  10 -26  362.08   72.32
   4  10 -26   18.73   73.17
  -4 -10  26   32.50   72.72
  -4 -10  26  150.38   75.14
   5  10 -26   16.84   68.16
   5  10 -26   67.74   61.40
  -5 -10  26    2.64   63.08
  -5 -10  26    7.62   63.64
   6  10 -26  143.96  159.72
   6  10 -26  397.32  163.55
  -6 -10  26  688.51  170.89
  -6 -10  26  385.46  164.79
   7  10 -26    3.83   66.51
   7  10 -26  -28.74   68.86
  -7 -10  26   42.17   73.39
  -7 -10  26   -2.96   70.94
   8  10 -26 -213.07   78.13
   8  10 -26   -3.99   71.06
  -8 -10  26  -66.47   77.54
  -8 -10  26  -12.55   75.90
   9  10 -26   75.53   81.01
   9  10 -26    4.17   58.01
  -9 -10  26    7.09   82.41
  11   8 -26  -11.05   52.90
  11   8 -26    3.19   84.51
 -11  -8  26    2.50   80.09
 -11  -8  26    3.10   67.38
  11   7 -26   26.12   60.81
  11   7 -26   47.88   86.48
 -11  -7  26   14.66   78.68
 -11  -7  26   28.13   70.19
  11   6 -26   43.09   54.23
  11   6 -26   19.74   81.97
 -11  -6  26   81.33   68.22
 -11  -6  26  -58.21   79.65
  11   5 -26  151.29   58.52
  11   5 -26   53.55   94.10
 -11  -5  26    4.97   69.71
 -11  -5  26  211.65   83.84
  11   4 -26  274.05  113.86
  11   4 -26  157.17   71.80
 -11  -4  26  135.61   98.54
  11   3 -26 -129.41   52.13
 -11  -3  26 -190.48   83.85
  11   2 -26   64.61   46.18
   0  11 -26  -54.42   65.36
   0  11 -26   -6.79   55.02
   0 -11  26    2.34   53.23
   0 -11  26  -61.51   59.09
   1  11 -26  -14.20   54.37
   1  11 -26   59.73   65.00
  -1 -11  26  125.97   56.33
  -1 -11  26  -68.70   60.10
   2  11 -26 -116.67   66.99
   2  11 -26  -68.67   61.59
  -2 -11  26  -32.97   59.87
  -2 -11  26  -47.95   61.60
   3  11 -26 -147.48   75.96
   3  11 -26 -146.43   70.85
  -3 -11  26 -147.56   74.45
   4  11 -26   77.82   80.21
   4  11 -26  -21.92   86.13
  -4 -11  26  236.76   87.47
  -4 -11  26  252.26   90.89
   5  11 -26    4.03   66.21
   5  11 -26  -82.71   69.23
  -5 -11  26  -98.86   74.46
  -5 -11  26  232.60   73.20
   6  11 -26  -12.94   68.71
   6  11 -26 -179.45   65.69
  -6 -11  26   26.98   69.83
  -6 -11  26    3.17   77.45
   7  11 -26   84.51   79.92
   7  11 -26  -59.28   64.96
  -7 -11  26   79.37   75.94
  -7 -11  26   -3.35   82.29
   8  11 -26   62.63   80.30
  -8 -11  26   16.24   80.41
  12   7 -26   52.19   94.05
 -12  -7  26 -150.20   90.87
  12   6 -26   52.37   92.09
  12   6 -26  148.38   60.74
 -12  -6  26   11.48   72.06
 -12  -6  26 -137.09   86.40
  12   5 -26  -48.92   54.32
  12   5 -26    3.60   91.40
 -12  -5  26   -2.72   67.38
 -12  -5  26 -120.19   78.13
  12   4 -26  -14.79   87.50
  12   4 -26  -55.50   50.00
 -12  -4  26    2.65   66.50
 -12  -4  26  -20.60   76.01
  12   3 -26   63.14   91.99
  12   3 -26    2.50   45.43
 -12  -3  26 -154.09   76.82
  12   2 -26    2.48   45.89
   0  12 -26   11.30   56.46
   0  12 -26  -18.17   67.83
   0 -12  26  -65.99   64.14
   0 -12  26   49.66   60.46
   1  12 -26  -90.60   58.99
   1  12 -26  -39.26   66.85
  -1 -12  26   19.54   61.60
  -1 -12  26  -20.28   68.01
   2  12 -26  -52.23   64.98
   2  12 -26    7.07   69.17
  -2 -12  26  169.49   67.50
  -2 -12  26   26.37   68.72
   3  12 -26  -51.69   68.31
   3  12 -26   33.43   68.45
  -3 -12  26    9.56   65.89
  -3 -12  26 -114.47   71.30
   4  12 -26   63.23   69.23
   4  12 -26    4.34   70.33
  -4 -12  26   29.41   76.61
  -4 -12  26   57.67   71.21
   5  12 -26    2.61   73.95
   5  12 -26   96.65   69.19
  -5 -12  26 -100.24   78.31
  -5 -12  26   20.73   76.54
   6  12 -26    9.12   69.69
   6  12 -26   37.85   75.42
  -6 -12  26  -17.36   75.68
  -6 -12  26  -38.96   79.09
  13   5 -26   90.35   60.67
  13   5 -26  -34.35   94.88
 -13  -5  26   53.02   75.79
 -13  -5  26   24.54   84.96
  13   4 -26    3.87   96.16
  13   4 -26    2.87   54.42
 -13  -4  26 -172.39   75.67
 -13  -4  26 -202.25   84.89
  13   3 -26   81.40   54.90
 -13  -3  26  -19.37   85.04
   0  13 -26  172.48   90.77
   1  13 -26    2.35   65.53
  -1 -13  26  -28.60   63.29
  -1 -13  26  -57.94   72.23
   2  13 -26   74.60   70.68
  -2 -13  26   86.71   72.91
  -2 -13  26  -36.32   70.03
   3  13 -26   88.61   85.52
  -3 -13  26   80.65   90.76
  -3 -13  26  250.89   86.01
   4  13 -26  -23.64   70.62
   4  13 -26 -109.69   74.34
  -4 -13  26    2.08   71.97
  -4 -13  26   11.62   84.98
   5  13 -26  -81.19   76.17
  -5 -13  26 -110.63   75.01
  14   4 -26   36.59  119.76
 -14  -4  26  352.43  120.44
  14   3 -26   82.37   54.97
 -14  -3  26 -108.24   85.02
  -1   2 -27   16.49   24.89
   0   2 -27    5.18   22.47
   1   2 -27   24.37   25.73
   2   2 -27  -10.14   26.47
  -2   2 -27   -2.43   23.12
  -2   3 -27    2.41   21.76
   3   2 -27   -1.52   28.91
  -1   3 -27  -14.95   24.33
   0   3 -27   34.83   30.78
   0  -3  27  107.20   57.49
   1   3 -27   -1.34   27.27
  -1  -3  27  120.24   57.16
   2   3 -27   33.43   26.85
   2   3 -27   19.09   75.82
  -2  -3  27    1.95   53.90
   3   3 -27  -38.02   73.61
   3   3 -27   -2.91   25.97
  -3  -3  27   19.67   54.01
   4   3 -27 -101.72   78.78
   4   3 -27   65.67   31.23
  -4  -3  27   62.01   59.90
   4   2 -27  -38.48   29.89
  -1   4 -27   -7.71   24.96
  -1   4 -27  108.04   76.55
   1  -4  27   61.44   56.54
   0   4 -27   -5.30   25.90
   0   4 -27   52.98   77.34
   0  -4  27   18.53   54.89
   1   4 -27   12.29   26.23
   1   4 -27  -83.02   73.36
  -1  -4  27  -62.89   55.94
   2   4 -27  -63.86   76.44
   2   4 -27   21.18   28.37
  -2  -4  27   85.61   56.79
   3   4 -27    3.02   75.97
   3   4 -27   16.13   28.52
  -3  -4  27   20.73   57.58
   4   4 -27   -7.66   29.42
   4   4 -27  -51.54   71.77
  -4  -4  27   65.29   57.90
   5   4 -27    4.82   32.17
   5   4 -27   12.09   79.99
  -5  -4  27  220.41   64.76
   5   3 -27  163.34   88.58
   5   3 -27   91.10   46.16
  -5  -3  27   84.14   71.39
   5   2 -27  -20.34   30.68
  -1   5 -27   27.82   27.47
  -1   5 -27  -80.25   76.92
   1  -5  27   10.65   55.79
   0   5 -27   -1.51   28.94
   0   5 -27    2.91   75.69
   0  -5  27   40.80   56.94
   1   5 -27  -67.60   74.84
   1   5 -27   27.88   28.45
  -1  -5  27   44.85   56.36
   2   5 -27  -12.78   29.20
   2   5 -27    8.38   71.42
  -2  -5  27   -7.26   56.75
   3   5 -27  242.52   89.57
   3   5 -27  108.79   58.23
  -3  -5  27  188.22   79.19
   4   5 -27    2.81   68.39
   4   5 -27  -23.95   33.09
  -4  -5  27   56.59   59.18
   5   5 -27    1.78   32.08
   5   5 -27   62.52   72.68
  -5  -5  27  -11.64   59.26
   6   5 -27    1.87   36.42
   6   5 -27  148.14   77.10
  -6  -5  27  -16.04   61.88
   6   4 -27  190.54   87.65
   6   4 -27   67.60   44.47
  -6  -4  27  141.99   70.83
   6   3 -27   19.49   77.95
   6   3 -27    6.76   31.90
  -6  -3  27  -35.88   60.66
   6   2 -27   30.08   39.65
  -6  -2  27  105.64   67.02
  -1   6 -27   -1.73   32.21
  -1   6 -27  -85.03   73.24
   1  -6  27  -98.02   60.73
   1  -6  27  -32.54   32.98
   0   6 -27  -37.35   37.24
   0   6 -27 -161.92   76.06
   0  -6  27 -107.31   59.79
   0  -6  27  -48.12   35.54
   1   6 -27  -97.46   74.33
   1   6 -27  -15.85   36.08
  -1  -6  27  -21.00   38.16
  -1  -6  27 -192.60   60.85
   2   6 -27  112.72   86.14
   2   6 -27  177.13   58.22
  -2  -6  27  141.41   60.08
  -2  -6  27   97.79   76.01
   3   6 -27   18.63   36.09
   3   6 -27   76.18   69.58
  -3  -6  27    1.58   41.26
  -3  -6  27 -197.88   62.73
   4   6 -27   86.58   40.63
   4   6 -27  -53.10   69.51
  -4  -6  27  104.36   64.22
  -4  -6  27    3.36   45.44
   5   6 -27   67.84   37.85
   5   6 -27   18.90   70.10
  -5  -6  27  -12.47   47.44
  -5  -6  27   46.11   63.99
   6   6 -27  -83.06   68.42
   6   6 -27   47.84   37.95
  -6  -6  27   15.15   48.35
  -6  -6  27  -83.70   64.07
   7   6 -27    2.86   74.09
   7   6 -27    2.18   39.73
  -7  -6  27   -8.31   66.52
  -7  -6  27   59.49   52.46
   7   5 -27    8.96   77.96
   7   5 -27   11.81   36.99
  -7  -5  27   -2.09   62.92
   7   4 -27   57.42   81.98
   7   4 -27   48.28   35.84
  -7  -4  27    2.10   65.95
   7   3 -27   56.33   84.96
   7   3 -27   41.31   42.06
  -7  -3  27  113.14   69.66
  -7  -2  27   52.24   61.52
  -1   7 -27 -142.92   73.13
  -1   7 -27  -32.12   37.10
   1  -7  27  -63.57   56.33
   1  -7  27   -9.54   34.71
   0   7 -27   47.74   37.12
   0   7 -27 -234.34   71.78
   0  -7  27   32.18   56.02
   0  -7  27   71.21   38.50
   1   7 -27   14.98   40.80
   1   7 -27  -62.61   70.88
  -1  -7  27  -24.70   40.69
  -1  -7  27  -12.05   55.47
   2   7 -27  -58.96   66.87
   2   7 -27   35.94   36.83
  -2  -7  27   19.41   40.12
  -2  -7  27  -33.20   55.86
   3   7 -27  102.15   54.22
   3   7 -27  202.98   76.52
  -3  -7  27   70.25   56.73
  -3  -7  27  127.28   69.38
   4   7 -27  147.70   48.59
   4   7 -27   62.62   72.71
  -4  -7  27    3.63   52.46
  -4  -7  27  121.78   64.88
   5   7 -27   25.59   70.08
   5   7 -27  -25.45   41.54
  -5  -7  27   50.05   49.33
  -5  -7  27  -22.88   59.08
   6   7 -27    2.40   41.15
   6   7 -27   97.33   71.99
  -6  -7  27   55.72   63.01
  -6  -7  27 -104.25   54.23
   7   7 -27   58.25   72.79
   7   7 -27    2.51   44.54
  -7  -7  27  -49.90   67.79
  -7  -7  27   -2.20   53.05
   8   7 -27 -199.46   87.27
  -8  -7  27 -109.10   82.06
   8   6 -27   65.33   78.21
  -8  -6  27  -73.89   68.13
   8   5 -27   18.58   84.19
  -8  -5  27  137.41   75.95
   8   4 -27    6.58   82.69
  -8  -4  27    6.58   65.21
   8   3 -27    3.40   83.82
   8   3 -27   17.15   33.66
  -8  -3  27  -49.75   66.57
  -1   8 -27   -2.41   72.17
  -1   8 -27   61.90   50.73
   0   8 -27   -2.40   63.31
   0   8 -27   -9.55   43.96
   0  -8  27    5.04   58.36
   0  -8  27  -45.12   41.45
   1   8 -27  167.98   58.38
   1   8 -27  109.99   78.16
  -1  -8  27  104.76   72.06
  -1  -8  27  106.07   57.55
   2   8 -27 -223.25   68.23
   2   8 -27  -30.56   45.52
  -2  -8  27  128.46   60.78
  -2  -8  27   83.29   46.32
   3   8 -27  139.80   49.15
   3   8 -27  -14.56   70.60
  -3  -8  27    3.84   50.76
  -3  -8  27  130.11   65.19
   4   8 -27   49.31   68.47
   4   8 -27  -36.64   49.41
  -4  -8  27    9.96   49.96
  -4  -8  27  -11.18   59.98
   5   8 -27   30.28   74.05
   5   8 -27  224.26   56.52
  -5  -8  27   50.23   70.33
  -5  -8  27   18.98   61.23
   6   8 -27    2.60   69.99
   6   8 -27   36.38   48.60
  -6  -8  27   -2.01   65.85
  -6  -8  27   44.66   54.87
   7   8 -27 -215.74   82.90
   7   8 -27  -93.18   60.12
  -7  -8  27  -63.06   79.02
  -7  -8  27 -123.17   67.59
   8   8 -27   18.85   57.08
   8   8 -27   22.53   77.77
  -8  -8  27   -2.23   75.07
  -8  -8  27    2.57   65.88
   9   8 -27   13.22   61.10
   9   8 -27   33.11   85.36
  -9  -8  27 -138.75   79.66
   9   7 -27   -3.03   82.75
   9   7 -27    2.90   53.25
  -9  -7  27    2.30   73.18
  -9  -7  27   10.04   57.92
   9   6 -27  763.98  190.76
   9   6 -27  200.55  157.94
  -9  -6  27  199.26  167.29
  -9  -6  27  791.39  187.88
   9   5 -27    3.23   80.57
   9   5 -27    4.55   43.08
  -9  -5  27  -36.66   72.20
  -9  -5  27    2.24   56.68
   9   4 -27    3.42   89.29
   9   4 -27  113.72   45.72
  -9  -4  27    6.90   74.54
   9   3 -27   -3.50   81.93
   9   3 -27  -42.83   34.65
  -9  -3  27   80.29   66.55
   0   9 -27   40.32   67.74
   0   9 -27   70.71   50.79
   0  -9  27   96.97   62.99
   0  -9  27   22.04   49.35
   1   9 -27    2.35   64.70
   1   9 -27  -67.95   48.09
  -1  -9  27  -43.22   60.03
  -1  -9  27    1.91   48.01
   2   9 -27  -28.42   69.72
   2   9 -27  134.86   58.34
  -2  -9  27   14.17   56.30
  -2  -9  27  183.22   69.42
   3   9 -27   12.11   51.11
   3   9 -27  -28.80   64.93
  -3  -9  27  104.41   62.03
  -3  -9  27    6.43   53.28
   4   9 -27  168.95   77.01
   4   9 -27   75.15   63.22
  -4  -9  27   29.49   68.39
  -4  -9  27  204.66   76.50
   5   9 -27  -89.97   56.43
   5   9 -27 -173.27   68.98
  -5  -9  27   11.78   57.85
  -5  -9  27  -75.43   68.02
   6   9 -27  837.21  204.03
   6   9 -27  227.84  192.99
  -6  -9  27  717.36  208.15
  -6  -9  27  414.08  198.00
   7   9 -27   56.66   57.94
   7   9 -27   73.39   72.75
  -7  -9  27   23.77   73.55
  -7  -9  27 -172.36   68.59
   8   9 -27   -3.61   61.11
   8   9 -27   -2.85   78.68
  -8  -9  27    2.86   68.75
  -8  -9  27   15.88   78.03
   9   9 -27 -106.21   83.92
  -9  -9  27   58.10   84.53
  10   8 -27    3.49   46.14
  10   8 -27 -146.45   89.52
 -10  -8  27   17.45   79.37
 -10  -8  27    2.94   59.04
  10   7 -27   81.77   87.56
  10   7 -27   24.61   54.58
 -10  -7  27   22.13   80.70
 -10  -7  27 -175.12   69.82
  10   6 -27  148.94   51.12
  10   6 -27 -112.49   88.68
 -10  -6  27 -134.90   66.96
 -10  -6  27  125.85   77.55
  10   5 -27 -198.86   96.10
  10   5 -27  206.05   54.67
 -10  -5  27  120.12   79.81
 -10  -5  27   38.75   68.25
  10   4 -27  406.67  222.65
  10   4 -27 1301.48  265.82
 -10  -4  27  581.40  259.20
  10   3 -27   28.54   42.39
   0  10 -27   16.55   66.10
   0  10 -27  -16.10   53.90
   0 -10  27  -58.78   61.94
   0 -10  27  -85.61   50.48
   1  10 -27   71.37   55.69
   1  10 -27 -111.90   65.67
  -1 -10  27   76.61   62.35
  -1 -10  27  -10.85   50.80
   2  10 -27 -131.45   58.29
   2  10 -27  -86.65   72.60
  -2 -10  27  -56.97   66.91
  -2 -10  27    4.60   56.48
   3  10 -27 -117.37   71.14
   3  10 -27   73.28   66.59
  -3 -10  27 -141.06   60.02
   4  10 -27  814.40  249.33
   4  10 -27  356.46  244.49
  -4 -10  27 1023.45  257.15
  -4 -10  27  452.97  244.11
   5  10 -27   46.17   75.13
   5  10 -27  107.28   67.77
  -5 -10  27   47.74   71.28
  -5 -10  27  114.31   75.67
   6  10 -27   76.89   74.36
   6  10 -27   55.49   63.87
  -6 -10  27   38.75   73.32
  -6 -10  27  -64.58   73.10
   7  10 -27 -105.81   75.35
   7  10 -27   26.87   63.42
  -7 -10  27    2.25   75.20
  -7 -10  27 -151.64   76.56
   8  10 -27   61.13   83.46
  -8 -10  27   59.15   83.28
  11   7 -27 -180.61   96.99
 -11  -7  27 -258.66   95.88
  11   6 -27  123.90   58.96
  11   6 -27   27.96   92.27
 -11  -6  27   23.11   80.89
 -11  -6  27  -87.70   73.25
  11   5 -27    2.71   49.20
  11   5 -27  -14.45   93.23
 -11  -5  27   33.10   77.52
 -11  -5  27 -135.60   67.88
  11   4 -27  137.57   96.92
  11   4 -27  151.23   50.90
 -11  -4  27 -133.40   79.99
  11   3 -27   26.06   45.30
  11   3 -27 -101.74   88.60
 -11  -3  27   10.42   73.27
   0  11 -27  -85.35   65.32
   0 -11  27 -163.59   70.50
   0 -11  27   21.50   62.44
   1  11 -27 -138.14   70.06
  -1 -11  27  -31.99   62.97
   2  11 -27  -22.73   66.38
   2  11 -27 -148.57   74.51
  -2 -11  27  -85.98   66.16
  -2 -11  27 -123.56   72.87
   3  11 -27  125.89   67.70
   3  11 -27    2.52   70.08
  -3 -11  27   63.02   70.54
  -3 -11  27   16.54   66.82
   4  11 -27   80.00   76.72
   4  11 -27   55.71   71.67
  -4 -11  27  163.48   79.96
  -4 -11  27   87.56   78.87
   5  11 -27  -98.84   67.87
   5  11 -27   47.78   74.86
  -5 -11  27  -27.62   72.13
  -5 -11  27   24.13   70.42
   6  11 -27    8.23   78.53
   6  11 -27  157.82   71.95
  -6 -11  27   48.78   76.99
  -6 -11  27   54.21   77.24
   7  11 -27 -236.67   81.47
  -7 -11  27   87.16   86.31
  12   5 -27    6.07   61.67
  12   5 -27   30.61   97.49
 -12  -5  27  273.92   90.24
  12   4 -27  -83.89   52.67
  12   4 -27 -191.07  102.41
 -12  -4  27  -92.11   70.45
 -12  -4  27   46.15   77.40
  12   3 -27  -53.12   48.33
 -12  -3  27   88.16   77.92
   0  12 -27  -70.85   63.14
   0  12 -27 -113.77   71.86
   1  12 -27  106.15   70.42
   1  12 -27   -4.03   62.28
  -1 -12  27  -53.16   65.33
  -1 -12  27   22.74   64.41
   2  12 -27   -2.51   69.51
   2  12 -27    4.21   63.27
  -2 -12  27   80.72   69.11
  -2 -12  27    3.01   66.68
   3  12 -27  154.43   76.04
   3  12 -27  -35.04   70.62
  -3 -12  27  -42.95   73.49
  -3 -12  27 -117.71   74.91
   4  12 -27  106.50   73.03
   4  12 -27  -61.77   73.83
  -4 -12  27    3.26   71.34
  -4 -12  27   87.21   74.33
   5  12 -27   47.08   77.71
  -5 -12  27   13.31   78.78
  -5 -12  27   44.88   80.95
  13   4 -27   81.88  106.15
 -13  -4  27  106.08   90.51
 -13  -3  27   37.83   81.04
   1  13 -27  -80.51   71.11
  -1 -13  27  -74.25   69.51
  -1 -13  27  -30.25   71.24
   2  13 -27   -2.57   75.36
  -2 -13  27   14.24   70.15
  -2 -13  27  -67.63   74.75
   3  13 -27   54.02   77.34
   3  13 -27   -4.76   72.15
  -3 -13  27    3.77   84.64
  -3 -13  27   59.34   73.31
   4  13 -27  105.78   81.71
  -4 -13  27  -13.26   79.84
   1  14 -27   17.84   72.01
  -1 -14  27  -76.29   71.40
   2  14 -27 -166.42   81.00
  -2 -14  27  -92.40   78.59
  -1   2 -28  -11.99   25.44
  -2   2 -28    7.67   23.43
  -1   3 -28   15.71   24.62
   0   3 -28    5.43   25.98
   1   3 -28    2.82   25.91
  -1  -3  28   47.64   56.44
   2   3 -28  -26.45   28.96
  -2  -3  28  -39.46   58.77
   3   3 -28  -23.04   29.92
  -3  -3  28   25.10   59.19
   4   3 -28   54.10   80.28
   4   3 -28  -14.53   32.23
  -4  -3  28  163.56   61.58
  -1   4 -28  -25.62   25.75
  -1   4 -28 -166.84   85.76
   1  -4  28 -109.07   58.89
   0   4 -28    4.17   25.20
   0   4 -28  -97.01   85.41
   0  -4  28   47.34   58.57
   1   4 -28   -3.29   80.53
   1   4 -28   14.37   28.80
  -1  -4  28   19.82   59.66
   2   4 -28  -40.10   27.55
   2   4 -28  -65.19   82.04
  -2  -4  28   13.96   58.06
   3   4 -28   -3.26   78.10
   3   4 -28  -15.48   29.59
  -3  -4  28   40.38   59.28
   4   4 -28 -140.07   81.21
   4   4 -28   14.53   29.76
  -4  -4  28  -45.06   58.44
   5   4 -28   92.04   79.67
   5   4 -28   -8.47   30.40
  -5  -4  28   33.57   60.83
   5   3 -28  -20.28   31.38
   5   3 -28  -71.45   77.69
  -5  -3  28  -39.04   60.53
  -1   5 -28 -225.07   89.34
  -1   5 -28    3.06   29.24
   1  -5  28  -34.08   62.15
   0   5 -28  -14.19   29.77
   0   5 -28 -182.59   84.87
   0  -5  28  -49.13   60.06
   1   5 -28   -9.74   31.20
   1   5 -28  117.57   82.62
  -1  -5  28   45.86   60.58
   2   5 -28 -146.77   81.10
   2   5 -28   21.76   32.21
  -2  -5  28   13.52   60.09
   3   5 -28  -55.38   33.78
   3   5 -28  -57.97   80.66
  -3  -5  28   52.92   61.56
   4   5 -28   69.49   77.33
   4   5 -28   30.54   32.85
  -4  -5  28  -22.02   63.17
   5   5 -28   44.97   35.61
   5   5 -28  -73.40   77.52
  -5  -5  28   55.52   63.37
   6   5 -28   25.56   37.23
   6   5 -28  -77.92   77.87
  -6  -5  28    6.37   64.08
   6   4 -28  -57.11   32.97
   6   4 -28    3.34   79.07
  -6  -4  28 -108.03   65.86
   6   3 -28   17.23   87.17
   6   3 -28   60.84   39.56
  -6  -3  28   64.61   66.16
  -1   6 -28  -42.13   81.82
  -1   6 -28    9.01   33.20
   0   6 -28   33.97   35.54
   0   6 -28   -2.95   79.15
   0  -6  28   98.37   61.86
   0  -6  28   31.84   38.36
   1   6 -28  -34.60   76.82
   1   6 -28  -11.03   34.44
  -1  -6  28   95.69   61.05
  -1  -6  28   44.99   38.41
   2   6 -28 -103.15   78.24
   2   6 -28   15.12   35.74
  -2  -6  28   47.59   60.61
  -2  -6  28  -37.09   40.59
   3   6 -28   37.29   83.22
   3   6 -28  120.63   49.71
  -3  -6  28  139.66   53.29
  -3  -6  28   62.14   71.11
   4   6 -28   42.23   37.49
   4   6 -28   -2.89   75.00
  -4  -6  28  -77.56   63.73
  -4  -6  28  -41.90   46.20
   5   6 -28  -76.30   75.71
   5   6 -28  -33.44   38.98
  -5  -6  28   49.16   63.54
  -5  -6  28   22.27   47.02
   6   6 -28  -32.72   39.84
   6   6 -28    3.00   78.80
  -6  -6  28  -23.35   68.88
  -6  -6  28    1.97   51.41
   7   6 -28   21.66   83.35
   7   6 -28   27.49   44.54
  -7  -6  28  110.46   70.84
  -7  -6  28   19.28   52.91
   7   5 -28   76.66   42.01
   7   5 -28  100.61   85.75
  -7  -5  28  -41.90   68.92
   7   4 -28  100.08   37.98
   7   4 -28    3.41   83.35
  -7  -4  28  -38.02   65.70
   7   3 -28   -3.51   83.60
   7   3 -28   89.47   38.48
  -7  -3  28  -85.16   65.28
  -1   7 -28   48.23   38.20
   0   7 -28    2.17   38.53
   0   7 -28  100.52   74.22
   0  -7  28   23.98   36.89
   0  -7  28  -77.02   62.92
   1   7 -28   56.82   73.31
   1   7 -28   17.86   41.75
  -1  -7  28   12.74   39.00
  -1  -7  28    1.86   61.84
   2   7 -28   22.05   46.67
   2   7 -28   56.63   74.00
  -2  -7  28   92.23   65.26
  -2  -7  28  103.76   48.85
   3   7 -28    6.80   44.35
   3   7 -28  157.40   75.79
  -3  -7  28   40.45   65.44
  -3  -7  28   67.46   47.01
   4   7 -28  102.75   45.12
   4   7 -28  -24.67   72.65
  -4  -7  28   -1.88   49.08
  -4  -7  28    7.93   63.37
   5   7 -28   33.56   71.86
   5   7 -28   48.38   44.71
  -5  -7  28  -18.41   65.13
  -5  -7  28   15.97   50.57
   6   7 -28 -103.00   46.88
   6   7 -28  -28.66   75.54
  -6  -7  28   -2.12   54.20
  -6  -7  28  -12.74   66.48
   7   7 -28  528.03  147.15
   7   7 -28  181.32  122.52
  -7  -7  28  522.60  146.66
  -7  -7  28  189.90  128.47
   8   7 -28    6.31   81.25
   8   7 -28  106.18   55.37
  -8  -7  28    2.44   60.24
  -8  -7  28 -133.40   80.28
   8   6 -28 -218.51   90.88
  -8  -6  28  127.20   81.09
  -8  -6  28   84.70   61.44
  -8  -5  28   -2.30   73.83
   8   4 -28   98.40   88.35
  -8  -4  28   -2.34   68.36
   8   3 -28    3.60   87.78
  -8  -3  28   16.73   65.97
   0   8 -28   94.74   75.10
   0   8 -28   29.92   48.98
   0  -8  28   72.48   63.51
   0  -8  28   43.03   45.78
   1   8 -28   60.28   72.05
   1   8 -28   30.95   46.45
  -1  -8  28   12.32   42.86
  -1  -8  28    7.40   60.60
   2   8 -28  -23.64   74.61
   2   8 -28  113.31   48.18
  -2  -8  28    1.87   46.93
  -2  -8  28    1.89   64.16
   3   8 -28    5.30   47.57
   3   8 -28   18.52   73.26
  -3  -8  28    3.89   62.88
  -3  -8  28   66.05   49.90
   4   8 -28    2.69   71.33
   4   8 -28   76.43   50.68
  -4  -8  28   92.15   67.92
  -4  -8  28   10.28   53.83
   5   8 -28 -219.73   78.02
   5   8 -28  -67.65   52.11
  -5  -8  28   56.67   59.14
   6   8 -28  -70.66   84.24
   6   8 -28    2.92   57.66
  -6  -8  28  258.92   80.71
  -6  -8  28   27.73   61.62
   7   8 -28   85.14   55.11
   7   8 -28  -70.37   78.37
  -7  -8  28   13.53   74.34
  -7  -8  28    4.91   63.41
   8   8 -28 -167.46   62.84
   8   8 -28    3.06   84.58
  -8  -8  28    2.67   66.49
  -8  -8  28   11.84   78.77
   9   8 -28    3.26   92.56
  -9  -8  28  158.07   88.79
   9   7 -28    3.31   87.61
   9   7 -28    3.04   55.28
  -9  -7  28  -74.00   83.00
   9   6 -28  103.97   91.61
   9   6 -28   93.27   50.32
  -9  -6  28    2.45   58.10
  -9  -6  28 -143.26   78.47
   9   5 -28   12.00   44.74
  -9  -5  28    7.24   72.13
  -9  -5  28    2.36   57.61
   9   4 -28  679.62  227.76
  -9  -4  28  528.03  283.34
   9   3 -28    2.16   43.78
  -9  -3  28  -59.84   72.44
   0   9 -28  126.56   75.69
   0   9 -28   51.22   50.53
   0  -9  28  -49.42   65.87
   0  -9  28   12.91   45.95
   1   9 -28   17.76   49.28
   1   9 -28  122.58   71.61
  -1  -9  28   -1.96   47.61
  -1  -9  28 -109.48   64.59
   2   9 -28  -61.27   55.18
   2   9 -28    2.57   71.43
  -2  -9  28 -112.50   64.75
  -2  -9  28  102.03   53.58
   3   9 -28  -88.22   62.29
   3   9 -28 -194.87   81.07
  -3  -9  28   -2.17   56.52
   4   9 -28  288.62  334.08
   4   9 -28 1229.13  344.04
  -4  -9  28 1678.48  352.68
  -4  -9  28  585.81  331.01
   5   9 -28  129.48   58.74
   5   9 -28  -92.14   75.17
  -5  -9  28   14.74   72.47
  -5  -9  28 -155.76   63.72
   6   9 -28  167.64   78.80
   6   9 -28   46.88   58.72
  -6  -9  28  -22.18   75.41
  -6  -9  28  -33.51   64.69
   7   9 -28   -2.93   81.58
   7   9 -28    3.48   63.78
  -7  -9  28   -8.21   66.38
  -7  -9  28  134.32   78.28
   8   9 -28 -134.74   83.43
  -8  -9  28    9.74   84.48
  10   7 -28  -52.29   93.04
 -10  -7  28   57.36   83.33
  10   6 -28  -60.54   91.82
  10   6 -28  122.56   55.46
 -10  -6  28 -146.26   82.09
 -10  -6  28   23.98   69.33
  10   5 -28   40.21   92.68
  10   5 -28    2.65   49.85
 -10  -5  28 -145.12   65.15
 -10  -5  28 -106.98   80.39
  10   4 -28   56.59  106.19
  10   4 -28  121.42   61.96
 -10  -4  28  197.75   87.72
  10   3 -28 -102.67   43.14
 -10  -3  28  -54.96   73.45
   0  10 -28 -152.67  105.60
   0  10 -28 -117.95   89.39
   0 -10  28  314.34   81.28
   0 -10  28  418.26   98.38
  -1 -10  28   -2.23   62.16
   2  10 -28 -211.42   77.81
   3  10 -28   -3.50   62.12
   3  10 -28  160.00   80.02
  -3 -10  28   56.87   71.88
  -3 -10  28   65.08   64.86
   4  10 -28   57.84   70.59
   4  10 -28  131.19   80.69
  -4 -10  28  -23.23   71.60
  -4 -10  28  195.61   81.83
   5  10 -28   63.45   67.36
   5  10 -28  -35.73   76.95
  -5 -10  28   54.71   67.45
  -5 -10  28  152.84   78.86
   6  10 -28    5.68   76.88
   6  10 -28   15.44   65.51
  -6 -10  28    2.89   68.23
  -6 -10  28   -2.28   76.76
   7  10 -28   29.51   80.81
  -7 -10  28   -2.40   80.05
  11   5 -28   89.64   99.84
  11   5 -28   19.97   54.90
 -11  -5  28    5.35   82.60
  11   4 -28   15.76   96.34
  11   4 -28  -40.06   46.94
 -11  -4  28   16.24   81.51
  11   3 -28  -35.24   48.89
 -11  -3  28  181.56   80.67
   0  11 -28  -87.57   71.39
   0  11 -28  -70.59   64.67
   1  11 -28  -41.63   71.25
   1  11 -28   53.25   63.42
  -1 -11  28   51.22   67.28
  -1 -11  28  -52.92   58.39
   2  11 -28  -42.22   74.38
   2  11 -28    7.93   66.63
  -2 -11  28   16.29   73.40
  -2 -11  28  133.70   64.72
   3  11 -28   77.88   74.16
   3  11 -28   48.21   66.39
  -3 -11  28   39.71   68.08
  -3 -11  28    8.44   74.50
   4  11 -28   24.97   67.08
   4  11 -28   46.70   76.43
  -4 -11  28  100.58   76.40
  -4 -11  28  -61.60   71.85
   5  11 -28   17.22   67.81
   5  11 -28    2.82   74.64
  -5 -11  28    3.11   70.81
  -5 -11  28   -4.55   76.28
  12   3 -28   -2.82   48.92
 -12  -3  28  118.91   83.55
   1  12 -28    4.22   63.89
   1  12 -28   18.41   71.50
  -1 -12  28   60.91   71.82
  -1 -12  28  -72.67   64.78
   2  12 -28   53.55   77.07
   2  12 -28  -39.64   68.28
  -2 -12  28  -49.35   70.24
  -2 -12  28   10.52   72.16
   3  12 -28  107.36   72.32
   3  12 -28   24.93   74.92
  -3 -12  28  -91.84   71.90
  -3 -12  28    2.19   73.62
   4  12 -28  -31.27   76.66
   4  12 -28    4.64   63.90
  -4 -12  28   36.40   78.65
   1  13 -28  -45.64   74.46
  -1 -13  28   22.94   71.40
  -1 -13  28  -30.93   71.74
   2  13 -28  -60.41   81.11
  -2 -13  28   56.46   78.07
  -2 -13  28 -310.09   82.17
   1  14 -28   11.13   76.79
  -1 -14  28  -19.22   75.00
  -1   3 -29   12.30   25.19
   0   3 -29    8.57   26.73
   1   3 -29   26.72   28.88
   2   3 -29   38.72   29.27
  -2  -3  29  -79.54   60.72
   3   3 -29   16.22   30.27
  -3  -3  29  -20.05   62.43
   4   3 -29   27.10   31.33
  -4  -3  29  -90.39   61.12
  -1   4 -29  -15.54   25.68
   1  -4  29   57.30   60.86
   0   4 -29  -21.45   87.73
   0   4 -29  -27.74   28.07
   0  -4  29  -86.26   60.82
   1   4 -29   33.21   32.33
  -1  -4  29  119.91   65.25
   2   4 -29  177.85   94.18
   2   4 -29   42.24   41.97
  -2  -4  29  160.90   71.83
   3   4 -29 -100.60   85.97
   3   4 -29   14.65   29.97
  -3  -4  29  -32.24   61.80
   4   4 -29  -18.72   31.68
   4   4 -29  125.02   86.68
  -4  -4  29   35.00   64.16
   5   4 -29    7.15   32.72
   5   4 -29  -59.48   86.10
  -5  -4  29  -11.19   62.91
   5   3 -29  -19.67   32.47
  -5  -3  29  -66.85   64.48
  -1   5 -29   12.81   30.68
  -1   5 -29   35.06   87.12
   0   5 -29   55.21   88.32
   0   5 -29    1.65   31.84
   0  -5  29   58.75   62.10
   1   5 -29    1.70   29.78
   1   5 -29   88.01   89.98
  -1  -5  29   34.55   60.28
   2   5 -29   22.79   35.63
   2   5 -29   93.72   88.89
  -2  -5  29  137.45   66.72
   3   5 -29  -32.89   88.06
   3   5 -29   -9.08   32.22
  -3  -5  29   16.76   62.98
   4   5 -29   -5.66   35.47
   4   5 -29  -85.72   82.49
  -4  -5  29  -27.79   66.95
   5   5 -29    3.94   36.47
   5   5 -29   -3.33   80.57
  -5  -5  29 -144.79   67.11
   6   5 -29    3.39   85.48
   6   5 -29   10.35   40.27
  -6  -5  29  165.20   70.25
   6   4 -29   41.49   35.79
   6   4 -29 -181.01   86.69
  -6  -4  29  -66.76   68.40
   6   3 -29    1.90   36.13
  -6  -3  29  -26.02   64.90
   0   6 -29    9.34   34.41
   0   6 -29  -44.75   82.91
   0  -6  29  -65.22   61.84
   0  -6  29    2.87   36.24
   1   6 -29  258.24   86.58
   1   6 -29   49.92   36.55
  -1  -6  29  -69.25   39.99
  -1  -6  29   14.06   63.41
   2   6 -29   55.32   38.97
   2   6 -29  -46.90   84.15
  -2  -6  29   -6.11   65.51
  -2  -6  29   51.37   41.98
   3   6 -29    6.24   80.15
   3   6 -29    2.04   37.59
  -3  -6  29   -5.13   43.13
  -3  -6  29 -103.64   62.81
   4   6 -29 -154.18   80.30
   4   6 -29   54.74   38.86
  -4  -6  29   25.48   65.52
  -4  -6  29   43.64   46.42
   5   6 -29  -43.81   40.98
   5   6 -29  100.78   78.32
  -5  -6  29   -2.19   67.97
  -5  -6  29   19.36   49.88
   6   6 -29 -105.29   52.67
  -6  -6  29 -248.61   85.04
  -6  -6  29 -150.64   63.10
   7   6 -29 -237.85   95.69
   7   6 -29  -93.86   51.07
  -7  -6  29   22.41   61.74
  -7  -6  29  -89.30   80.66
   7   5 -29 -225.79   98.90
   7   5 -29    2.18   44.59
  -7  -5  29   25.83   74.91
   7   4 -29    2.00   35.87
   7   4 -29  -68.84   89.88
  -7  -4  29  -59.53   69.33
   7   3 -29   20.19   39.86
  -7  -3  29   53.69   67.55
   0   7 -29 -168.11   86.05
   0   7 -29   51.99   43.56
   0  -7  29 -143.20   66.50
   0  -7  29 -101.97   41.59
   1   7 -29   31.31   41.22
   1   7 -29    2.99   78.02
  -1  -7  29  -37.87   43.29
  -1  -7  29   61.77   66.11
   2   7 -29   20.68   39.94
   2   7 -29    8.93   75.70
  -2  -7  29  -84.77   45.80
  -2  -7  29   -6.09   66.49
   3   7 -29  128.34   77.54
   3   7 -29  -92.21   44.41
  -3  -7  29   81.03   66.91
  -3  -7  29    1.84   46.82
   4   7 -29   -2.44   41.74
   4   7 -29  -96.56   78.92
  -4  -7  29  -17.06   69.83
  -4  -7  29  -19.52   47.12
   5   7 -29    3.07   82.38
   5   7 -29  -35.36   46.76
  -5  -7  29 -143.11   59.92
  -5  -7  29   17.60   76.36
   6   7 -29 -191.97   90.22
  -6  -7  29 -168.91   82.68
  -6  -7  29 -183.28   63.59
   7   7 -29  -93.48   50.02
   7   7 -29 -204.55   88.07
  -7  -7  29  147.40   79.92
  -7  -7  29    2.35   59.83
   8   7 -29 -195.74   90.55
   8   7 -29  -66.22   55.47
  -8  -7  29   33.11   64.93
  -8  -7  29   12.43   82.65
   8   6 -29    2.64   49.19
   8   6 -29   24.27   90.06
  -8  -6  29   14.38   60.11
  -8  -6  29    2.46   78.50
   8   5 -29  -50.31   93.15
  -8  -5  29    2.31   59.46
  -8  -5  29  -26.74   74.48
   8   4 -29  584.53  159.42
  -8  -4  29  282.18  132.61
   0   8 -29 -109.97   78.23
   0   8 -29   57.21   46.81
   0  -8  29  -70.15   64.73
   0  -8  29  -17.01   42.52
   1   8 -29   -2.69   47.81
   1   8 -29 -155.51   76.99
  -1  -8  29  103.41   67.20
  -1  -8  29    1.81   43.04
   2   8 -29  -32.25   52.63
   2   8 -29 -250.46   88.91
  -2  -8  29  -75.52   49.36
   3   8 -29   -2.76   53.94
   4   8 -29  -59.76   57.29
   4   8 -29  129.86   88.24
  -4  -8  29    2.12   59.75
  -4  -8  29 -171.96   81.63
   5   8 -29   23.52   51.89
   5   8 -29   33.00   80.17
  -5  -8  29  -84.56   72.21
  -5  -8  29    6.76   55.68
   6   8 -29   18.31   53.27
   6   8 -29  -86.32   80.10
  -6  -8  29  -28.72   59.53
  -6  -8  29   83.22   74.21
   7   8 -29 -114.34   58.71
   7   8 -29  -31.88   88.27
  -7  -8  29   71.35   64.82
  -7  -8  29   53.05   77.50
   8   8 -29   13.28   88.03
  -8  -8  29   50.58   83.72
   9   7 -29 -214.38   99.29
  -9  -7  29    7.85   86.85
   9   6 -29  -94.03   96.20
  -9  -6  29 -113.58   86.24
   9   5 -29   75.55   97.44
   9   5 -29   -2.54   45.29
  -9  -5  29  -40.78   77.91
   9   4 -29 -115.42   96.34
   9   4 -29   84.98   49.68
  -9  -4  29  116.33   79.65
   9   3 -29  117.29   45.13
  -9  -3  29 -134.52   75.64
   0   9 -29 -228.70   71.75
   0  -9  29  162.66   60.76
   2   9 -29   -6.15   58.90
   3   9 -29  136.44   60.16
   3   9 -29  152.04   80.83
  -3  -9  29  -89.39   55.13
  -3  -9  29   -2.12   70.54
   4   9 -29  196.23   63.05
   4   9 -29   20.03   79.62
  -4  -9  29  -56.88   60.75
  -4  -9  29   43.70   75.76
   5   9 -29   23.43   76.63
   5   9 -29   13.51   57.94
  -5  -9  29  -42.74   62.54
  -5  -9  29   -2.27   75.44
   6   9 -29   34.94   60.62
   6   9 -29 -114.65   85.13
  -6  -9  29 -109.31   65.88
  -6  -9  29   33.01   79.15
   7   9 -29  -95.43   88.22
  -7  -9  29  -74.47   82.59
  10   5 -29  241.28  104.81
 -10  -5  29    2.68   58.76
 -10  -5  29    5.36   82.39
  10   4 -29   -2.63   47.81
  10   4 -29   75.93   99.02
 -10  -4  29  -48.65   78.94
  10   3 -29   86.80   52.31
 -10  -3  29   33.13   82.98
   0  10 -29  -98.41   61.93
   1  10 -29  -49.61   65.74
   1  10 -29  -41.51   76.51
  -1 -10  29   59.22   70.57
  -1 -10  29  -38.78   54.90
   2  10 -29   44.15   65.76
   2  10 -29    8.37   77.43
  -2 -10  29  109.43   72.62
  -2 -10  29  -55.73   59.64
   3  10 -29  104.66   85.32
   3  10 -29   65.74   72.07
  -3 -10  29  221.75   85.64
  -3 -10  29   22.56   69.05
   4  10 -29   63.42   82.53
   4  10 -29    7.54   65.90
  -4 -10  29   23.92   65.24
  -4 -10  29 -146.20   77.22
   5  10 -29  -38.92   68.86
   5  10 -29  -35.48   78.67
  -5 -10  29  -59.15   70.62
  -5 -10  29  121.44   77.84
   6  10 -29  149.62   87.74
  -6 -10  29  -19.47   84.11
   1  11 -29  125.50   81.77
   1  11 -29   67.54   69.47
  -1 -11  29    2.11   74.01
  -1 -11  29    2.58   60.11
   2  11 -29  -90.38   77.55
   2  11 -29   53.84   67.87
  -2 -11  29  -93.22   65.66
  -2 -11  29  -41.36   75.38
   3  11 -29   46.17   71.98
   3  11 -29  -97.67   81.28
  -3 -11  29   -2.84   66.11
  -3 -11  29   38.33   77.52
   4  11 -29   -2.94   82.95
   4  11 -29  243.25   79.31
  -4 -11  29  -81.44   75.27
  -4 -11  29  180.15   87.38
   1  12 -29  -26.42   69.42
   1  12 -29   47.61   79.41
  -1 -12  29 -101.00   68.15
  -1 -12  29   45.58   76.02
   2  12 -29   58.40   71.52
   2  12 -29    2.85   80.92
  -2 -12  29  103.55   80.35
  -2 -12  29  -78.97   69.76
   3  12 -29   23.27   82.45
  -3 -12  29   -3.25   55.07
  -3 -12  29 -131.05   85.34
   1  13 -29  -77.11   82.74
  -1 -13  29   77.21   75.44
  -1 -13  29  -62.30   77.95
  -1   3 -30  -15.77   27.28
   0   3 -30  -16.38   28.21
   1   3 -30   54.31   33.15
   2   3 -30    1.62   29.34
   3   3 -30   32.30   32.67
   4   3 -30  -10.74   34.23
  -1   4 -30  -13.33   28.74
   0   4 -30  -26.03   27.66
   0  -4  30   15.73   64.49
   1   4 -30   26.94   30.30
   2   4 -30   19.74   32.76
   2   4 -30  -78.08   99.86
  -2  -4  30   76.57   64.83
   3   4 -30   10.28   31.40
   3   4 -30  -33.26   92.17
  -3  -4  30  -68.32   64.47
   4   4 -30   -3.70   85.84
   4   4 -30    5.38   33.68
  -4  -4  30  -30.09   66.32
   5   4 -30  -20.76   36.48
   5   4 -30  -63.26   86.71
  -5  -4  30  -26.04   68.33
   5   3 -30  -15.14   36.09
  -5  -3  30   73.32   67.24
   0   5 -30   -8.63   30.49
   0   5 -30  -14.75   95.28
   0  -5  30   78.07   64.45
   1   5 -30   -7.12   33.77
   1   5 -30   61.73   91.47
  -1  -5  30   87.15   67.04
   2   5 -30  137.10   92.71
   2   5 -30   40.46   34.20
  -2  -5  30  -32.88   65.82
   3   5 -30 -125.57   88.89
   3   5 -30   17.16   36.01
  -3  -5  30  122.21   67.70
   4   5 -30   41.66   42.55
   4   5 -30    3.59   90.88
  -4  -5  30  183.55   71.85
   5   5 -30  -74.69   44.00
  -5  -5  30  -27.86   71.59
   6   5 -30  -82.81   49.78
  -6  -4  30 -223.80   86.18
   6   3 -30   -2.01   38.16
  -6  -3  30  125.27   70.49
   0   6 -30    7.80   35.92
   0   6 -30  143.50   93.78
   0  -6  30  -51.98   37.33
   0  -6  30 -118.50   68.33
   1   6 -30 -103.39   89.76
   1   6 -30   10.03   40.71
  -1  -6  30   65.61   43.14
  -1  -6  30  181.44   71.14
   2   6 -30  -22.72   40.68
   2   6 -30   10.25   88.60
  -2  -6  30   61.73   44.14
  -2  -6  30   15.13   66.53
   3   6 -30   25.56   40.26
   3   6 -30 -121.20   85.19
  -3  -6  30    1.78   44.46
  -3  -6  30  -74.86   69.78
   4   6 -30 -344.95  103.79
   4   6 -30  -50.74   52.69
  -4  -6  30  -62.60   56.47
  -4  -6  30 -276.64   87.60
   5   6 -30 -128.66   50.34
  -5  -6  30 -247.19   87.09
  -5  -6  30 -137.52   59.00
   6   6 -30   33.66   47.70
   6   6 -30   52.38   90.40
  -6  -6  30   69.88   78.36
  -6  -6  30   -2.16   57.55
   7   6 -30   -3.59   90.23
   7   6 -30   -2.53   50.79
  -7  -6  30    2.35   58.16
  -7  -6  30  -52.22   79.70
   7   5 -30   71.66   94.36
   7   5 -30   57.58   44.45
  -7  -5  30 -158.70   76.99
  -7  -4  30 -191.00   80.70
   7   3 -30  823.75  259.82
   0   7 -30 -323.58   99.98
   0   7 -30  -68.27   52.81
   0  -7  30  -52.63   44.84
   1   7 -30 -181.95   54.76
  -1  -7  30    1.70   45.90
   2   7 -30   33.57   51.12
   3   7 -30  429.71  201.04
   3   7 -30   39.50  159.15
  -3  -7  30  425.01  155.49
   4   7 -30  -63.77   52.03
   4   7 -30 -144.41   88.83
  -4  -7  30 -109.53   56.58
  -4  -7  30  -43.24   79.76
   5   7 -30    7.93   44.34
   5   7 -30  179.99   85.76
  -5  -7  30 -105.74   53.86
  -5  -7  30   42.24   74.00
   6   7 -30   52.33   49.83
   6   7 -30   64.86   88.52
  -6  -7  30    2.30   57.72
  -6  -7  30 -153.09   77.84
   7   7 -30  -60.56   50.97
   7   7 -30  -52.75   91.99
  -7  -7  30    2.46   61.90
  -7  -7  30  -60.72   81.85
   8   6 -30 -139.25   98.67
  -8  -6  30 -145.32   84.63
  -8  -6  30    2.52   64.04
   8   5 -30 -217.84  101.07
   8   5 -30  -25.14   45.73
  -8  -5  30  -56.83   79.56
  -8  -5  30    2.43   61.15
   8   4 -30  -63.15   43.81
   8   4 -30    7.89   98.46
  -8  -4  30   86.14   76.99
  -8  -3  30   37.46   75.59
   0   8 -30  -46.06   53.79
   1   8 -30  -50.41   51.84
   2   8 -30 -198.37   85.51
   2   8 -30  -25.18   50.18
  -2  -8  30  -38.99   50.78
  -2  -8  30  -98.58   76.70
   3   8 -30   31.16   82.77
   3   8 -30  -72.06   52.11
  -3  -8  30   37.24   50.85
  -3  -8  30 -115.83   75.20
   4   8 -30   65.32   53.12
   4   8 -30   75.73   85.28
  -4  -8  30   52.77   75.97
  -4  -8  30  -59.39   53.78
   5   8 -30   38.58   86.31
   5   8 -30   36.85   55.79
  -5  -8  30  -40.31   77.88
  -5  -8  30   23.38   59.49
   6   8 -30 -254.10   87.91
   6   8 -30   79.63   55.51
  -6  -8  30  -59.61   83.43
  -6  -8  30 -104.39   64.46
   9   5 -30 -121.20  102.90
  -9  -5  30   64.92   83.60
   9   4 -30   32.58   48.06
   9   4 -30  183.24  106.83
  -9  -4  30    8.17   81.26
   1   9 -30 -172.99   85.72
   1   9 -30    6.44   55.74
  -1  -9  30    6.21   50.55
  -1  -9  30  -51.59   73.61
   2   9 -30    3.20   56.19
   2   9 -30   -3.05   83.63
  -2  -9  30  -64.06   73.28
  -2  -9  30    4.33   52.07
   3   9 -30    3.07   84.34
   3   9 -30  148.81   63.31
  -3  -9  30   27.64   55.08
  -3  -9  30    2.27   76.22
   4   9 -30   78.43   65.00
   4   9 -30    3.12   85.39
  -4  -9  30    2.45   58.88
  -4  -9  30   86.79   79.03
   5   9 -30 -176.02   63.16
   5   9 -30  -92.55   86.04
  -5  -9  30   65.69   80.24
  -5  -9  30  -72.74   66.05
   1  10 -30  -84.01   85.90
   1  10 -30    3.69   61.06
  -1 -10  30  -78.98   76.47
  -1 -10  30   86.55   56.16
   2  10 -30  -75.59   84.40
   2  10 -30   40.47   62.46
  -2 -10  30  -99.51   77.14
  -2 -10  30   50.96   59.57
   3  10 -30    3.06   86.33
   3  10 -30   53.26   67.96
  -3 -10  30  116.62   78.82
  -3 -10  30 -103.13   63.25
   4  10 -30    3.12   84.72
   4  10 -30   62.85   69.42
  -4 -10  30   62.75   82.13
  -4 -10  30   -2.74   68.77
   1  11 -30   41.45   67.41
   1  11 -30 -108.00   84.32
  -1 -11  30   60.67   77.76
  -1 -11  30  -21.11   62.04
   2  11 -30  118.51   84.20
   2  11 -30  -21.10   67.92
  -2 -11  30  123.59   67.88
  -2 -11  30  -67.43   80.93
   3  11 -30    6.11   83.03
  -3 -11  30   24.09   81.21
   1  12 -30   -3.00   83.57
   1  12 -30   32.13   71.86
   2  12 -30   -3.05   85.53
   0   3 -31  -20.34   30.85
   1   3 -31   21.21   31.42
   2   3 -31   10.24   31.78
   0   4 -31    1.60   27.15
   1   4 -31   18.30   28.42
  -1  -4  31    4.78   66.27
   2   4 -31   -1.73   31.13
  -2  -4  31   72.01   68.09
   3   4 -31    1.81   33.35
  -3  -4  31   21.82   70.88
   4   4 -31  -64.35   46.13
  -4  -4  31 -285.26   87.28
   0   5 -31    1.81   33.83
   0   5 -31   55.12  103.19
   0  -5  31  -36.80   66.56
   1   5 -31    9.32   35.69
   1   5 -31  -27.21   98.30
  -1  -5  31  -55.48   71.16
   2   5 -31 -388.70  112.44
   2   5 -31  -40.52   44.14
  -2  -5  31 -131.12   77.30
   3   5 -31  196.12  156.02
   3   5 -31  996.10  201.63
  -3  -5  31  553.59  183.01
   4   5 -31  -66.80   43.69
   5   5 -31   85.10   94.63
   5   5 -31    2.19   41.42
  -5  -5  31  -54.58   74.92
   6   5 -31   -3.93   96.70
   6   5 -31    2.30   42.44
  -6  -5  31  120.11   77.25
   6   4 -31   48.11   96.38
   6   4 -31    4.22   40.43
  -6  -4  31    2.58   69.33
   0  -6  31  754.46  240.89
   1   6 -31  916.30  226.83
  -1  -6  31  536.91  206.09
   2   6 -31  -97.14   49.12
  -2  -6  31 -135.37   53.42
   3   6 -31   14.70   92.78
   3   6 -31   15.63   42.45
  -3  -6  31 -153.90   48.14
  -3  -6  31 -122.27   73.38
   4   6 -31   -3.69   97.20
   4   6 -31   -6.95   42.94
  -4  -6  31   33.65   74.63
  -4  -6  31  -49.50   48.98
   5   6 -31   41.01   45.13
   5   6 -31  -81.95   92.33
  -5  -6  31 -140.85   78.10
  -5  -6  31  -55.00   55.41
   6   6 -31   -3.80   97.09
   6   6 -31    2.53   51.64
  -6  -6  31 -174.13   59.96
  -6  -6  31  -33.16   79.29
   7   6 -31    3.90   97.08
  -7  -6  31 -187.24   58.00
  -7  -6  31  -42.39   86.15
   7   5 -31   32.50   45.98
   7   5 -31  -28.11  101.20
  -7  -5  31   74.09   80.94
   7   4 -31  -72.00   44.59
   7   4 -31  -12.25   99.68
  -7  -4  31  -26.64   75.78
   0   7 -31   44.14   46.22
   0   7 -31  -39.59   94.28
   1   7 -31   49.79   93.01
   1   7 -31   29.17   45.37
  -1  -7  31  -46.94   43.47
  -1  -7  31   65.90   72.90
   2   7 -31 -201.65   96.77
   2   7 -31  -27.52   46.38
  -2  -7  31  -37.12   47.31
  -2  -7  31  -57.83   77.02
   3   7 -31   82.50   47.96
   3   7 -31  209.03   93.44
  -3  -7  31   15.83   49.92
  -3  -7  31 -139.50   78.20
   4   7 -31  132.04   95.62
   4   7 -31   16.00   49.83
  -4  -7  31   -9.70   74.62
  -4  -7  31   10.55   54.25
   5   7 -31  -83.31   90.76
   5   7 -31   24.90   48.67
  -5  -7  31   62.51   76.07
  -5  -7  31   11.24   57.95
   6   7 -31   -3.70   96.85
  -6  -7  31 -204.39   85.04
  -6  -7  31   45.61   59.77
   8   5 -31   -4.13  101.95
   8   4 -31    4.19  101.44
   8   4 -31    7.45   46.95
  -8  -4  31 -129.94   81.75
   1   8 -31  -11.66   51.90
   1   8 -31  -69.23   96.69
  -1  -8  31   63.40   48.99
  -1  -8  31   36.54   77.09
   2   8 -31   -2.92   54.05
   2   8 -31   58.04   93.71
  -2  -8  31    4.68   78.96
  -2  -8  31   82.42   52.88
   3   8 -31    3.00   54.32
   3   8 -31  -51.44   93.37
  -3  -8  31 -146.30   80.84
  -3  -8  31   -2.14   52.49
   4   8 -31   49.52   57.69
   4   8 -31  246.38   92.29
  -4  -8  31    6.83   59.31
  -4  -8  31    9.88   82.30
   5   8 -31 -134.18   93.31
  -5  -8  31  109.09   63.34
  -5  -8  31 -252.59   86.99
   1   9 -31    3.35   58.86
   1   9 -31  -59.75   88.61
  -1  -9  31   17.02   51.46
  -1  -9  31   41.49   79.02
   2   9 -31  -93.26   94.47
   2   9 -31   26.70   61.91
  -2  -9  31  -93.66   57.23
  -2  -9  31 -108.83   81.29
   3   9 -31   43.64   90.80
   3   9 -31    3.44   60.95
  -3  -9  31  -30.89   58.77
  -3  -9  31   65.71   80.54
   4   9 -31  -34.06   86.78
  -4  -9  31    2.53   61.50
  -4  -9  31   52.78   82.91
   1  10 -31  -23.07   65.98
   1  10 -31   -3.27   89.84
  -1 -10  31  -16.45   80.78
  -1 -10  31   50.34   56.74
   2  10 -31  -68.95   64.99
   2  10 -31 -141.69   93.99
  -2 -10  31    2.49   59.65
  -2 -10  31  -50.87   80.04
   3  10 -31 -119.92   93.14
  -3 -10  31    5.00   83.01
   1  11 -31  -48.77   90.21
   1  11 -31  -38.84   69.28
   2  11 -31  341.15  113.63
  -2 -11  31   59.71  108.54
   0   4 -32  -31.93   33.91
   1   4 -32  -29.69   34.09
   2   4 -32  -18.20   34.65
   3   4 -32    1.90   33.94
  -3  -4  32  -20.61   71.10
   4   4 -32   63.94   43.84
  -4  -4  32   83.73   77.73
   5   4 -32   42.13   42.50
  -5  -4  32  109.53   76.95
   0   5 -32    1.89   35.79
   1   5 -32  -29.01  102.54
   1   5 -32   46.83   39.94
  -1  -5  32  117.97   76.25
   2   5 -32  -18.19   39.92
   2   5 -32  114.86  101.40
  -2  -5  32   99.24   70.80
   3   5 -32   24.50   99.69
   3   5 -32   23.13   42.02
  -3  -5  32   95.62   74.71
   4   5 -32 -172.00  102.37
   4   5 -32  -54.93   41.35
  -4  -5  32   43.75   75.89
   5   5 -32   66.01  100.88
   5   5 -32   80.60   47.37
  -5  -5  32    2.64   80.01
   6   5 -32   58.61  102.43
   6   5 -32    2.43   43.97
  -6  -5  32  -40.69   82.25
   6   4 -32  -55.52   41.68
  -6  -4  32    2.74   78.68
   1   6 -32    6.57   38.64
   1   6 -32  -85.24  100.80
  -1  -6  32  -11.80   42.92
  -1  -6  32  -55.75   71.45
   2   6 -32 -120.70  100.85
   2   6 -32  -11.30   42.72
  -2  -6  32   73.49   75.42
  -2  -6  32   37.95   45.38
   3   6 -32   58.44   45.18
   3   6 -32 -288.39  105.86
  -3  -6  32    7.48   78.33
  -3  -6  32   23.21   49.36
   4   6 -32  -21.86   46.49
   4   6 -32   76.34  104.47
  -4  -6  32  -35.19   52.23
  -4  -6  32   78.96   80.89
   5   6 -32   89.23  102.70
   5   6 -32  -45.68   50.00
  -5  -6  32  -68.68   54.92
  -5  -6  32  -68.05   81.73
   6   6 -32   -8.25  101.40
  -6  -6  32  -78.34   84.71
  -7  -4  32 -101.86   83.54
   1   7 -32 -283.95  101.58
   1   7 -32  -48.13   46.89
  -1  -7  32    7.29   45.60
  -1  -7  32  -60.24   80.52
   2   7 -32  -18.26   47.68
   2   7 -32   -3.86   98.82
  -2  -7  32  -59.66   49.63
  -2  -7  32   93.23   80.90
   3   7 -32   29.62   50.60
   3   7 -32  -30.49  102.59
  -3  -7  32 -107.75   79.47
  -3  -7  32 -102.76   53.82
   4   7 -32   -5.58   50.25
   4   7 -32   11.50  102.99
  -4  -7  32  -36.23   82.94
  -4  -7  32  118.57   57.51
   5   7 -32  -50.54   99.25
  -5  -7  32  -21.33   84.36
  -5  -7  32    2.35   47.13
   1   8 -32   64.68   53.28
   1   8 -32   33.52   94.22
  -1  -8  32 -109.52   77.30
  -1  -8  32   35.68   50.08
   2   8 -32   29.74  102.32
   2   8 -32  -30.33   53.03
  -2  -8  32   64.40   53.87
  -2  -8  32   59.81   80.09
   3   8 -32   75.09   60.97
   3   8 -32  104.57  103.99
  -3  -8  32   63.91   86.75
  -3  -8  32   64.28   59.03
   4   8 -32 -188.44  102.91
  -4  -8  32   11.81   61.10
  -4  -8  32   63.12   85.47
   1   9 -32   46.96   63.85
   1   9 -32  259.61  102.92
  -1  -9  32  -51.99   86.16
  -1  -9  32   54.69   57.96
   2   9 -32  -17.35   61.49
   2   9 -32    3.66   99.30
  -2  -9  32    2.30   54.87
  -2  -9  32   73.71   84.46
   3   9 -32  -44.26   95.92
  -3  -9  32  -31.87   59.44
  -3  -9  32  -86.38   88.86
   1  10 -32  -26.86   66.33
   2  10 -32  125.95   97.97
  -2 -10  32 -126.91   88.41
   0   4 -33  -31.69   33.44
   1   4 -33   20.16   35.15
   2   4 -33   -7.65   37.27
   3   4 -33   22.05   39.49
   4   4 -33   23.18   40.33
   5   4 -33  -91.30   42.45
   1   5 -33   42.89   39.49
  -1  -5  33 -269.59   79.76
   2   5 -33   82.79   52.07
  -2  -5  33  140.03   85.98
   3   5 -33  239.40  113.27
   3   5 -33    6.63   52.25
  -3  -5  33  232.63   85.27
   4   5 -33  104.56  108.78
   4   5 -33   43.97   46.33
  -4  -5  33   46.32   82.53
   5   5 -33    4.39  101.89
  -5  -5  33  -78.12   81.28
   1   6 -33  181.59  108.95
   1   6 -33  -16.01   42.54
  -1  -6  33   25.77   79.65
  -1  -6  33   49.89   44.16
   2   6 -33   47.31   50.31
   2   6 -33  111.59  112.03
  -2  -6  33   48.93   50.55
  -2  -6  33  102.00   82.59
   3   6 -33    4.28  109.05
   3   6 -33  -34.32   44.90
  -3  -6  33    4.04   51.33
  -3  -6  33   21.30   81.64
   4   6 -33  -68.73  105.43
  -4  -6  33   28.16   54.59
  -4  -6  33   29.96   84.37
   1   7 -33  -21.21  112.99
   1   7 -33   29.01   45.44
  -1  -7  33  -35.72   79.41
  -1  -7  33   33.97   47.41
   2   7 -33    4.16  107.07
   2   7 -33   16.36   51.15
  -2  -7  33  111.71   81.99
  -2  -7  33   -2.00   50.61
   3   7 -33  -49.88  109.61
   3   7 -33   33.80   51.14
  -3  -7  33   18.71   84.01
  -3  -7  33   27.80   53.68
   1   8 -33    4.05  106.20
   1   8 -33  110.12   63.43
   2   8 -33   15.80   56.79
   2   8 -33  121.30  106.52
  -2  -8  33   47.76   85.72
  -2  -8  33    2.15   53.53
   3   8 -33   20.26  110.13
  -3  -8  33  -78.90   86.61
   1   5 -34   13.19   40.42
   2   5 -34   -2.23   39.92
  -2  -5  34 -227.27   85.15
   3   5 -34    2.33   43.63
  -3  -5  34 -130.89   82.93
   1   6 -34   -4.96   44.87
   1   6 -34 -105.87  113.01
  -1  -6  34   49.08   79.26
  -1  -6  34   42.62   46.54
   2   6 -34  -59.44  117.06
   2   6 -34   17.34   53.56
  -2  -6  34   49.81   85.25
  -2  -6  34  188.34   57.63
   3   6 -34  191.95  118.49
  -3  -6  34   76.16   85.01
  -3  -6  34   -2.11   42.17
   1   7 -34 -145.88  113.36
   1   7 -34   68.67   51.31
   2   7 -34  272.03  117.69
  -2  -7  34 -160.56   84.98
   1   5 -35   -9.20   41.32
   0   0   0    0.00    0.00
;
_shelx_hkl_checksum              91470
_shelx_fab_checksum              2335
_shelx_fab_file
;
    0    2    0   -371.80      0.00
    1    2    0    480.96      0.00
    1    3    0     38.77      0.00
    2    3    0    183.67      0.00
    0    4    0    -27.55      0.00
    1    4    0     32.87      0.00
    2    4    0     42.29      0.00
    1    5    0    -77.12      0.00
    2    5    0      9.63      0.00
    3    5    0     15.83      0.00
    0    6    0     66.60      0.00
    1    6    0    -65.53      0.00
    2    6    0     57.98      0.00
    3    6    0     11.29      0.00
    4    6    0     -3.16      0.00
    1    7    0     25.66      0.00
    2    7    0     -8.56      0.00
    3    7    0     27.47      0.00
    4    7    0      5.75      0.00
    0    8    0     -9.34      0.00
    1    8    0    -16.00      0.00
    2    8    0    -13.07      0.00
    3    8    0    -47.02      0.00
    4    8    0    -10.29      0.00
    5    8    0     13.91      0.00
    1    9    0     18.29      0.00
    2    9    0     -6.02      0.00
    3    9    0      3.37      0.00
    4    9    0     14.04      0.00
    5    9    0      4.44      0.00
    0   10    0     -5.68      0.00
    1   10    0     -0.74      0.00
    2   10    0     -9.69      0.00
    3   10    0     13.63      0.00
    4   10    0     -7.73      0.00
    5   10    0     13.48      0.00
    1   11    0    -14.89      0.00
    2   11    0     -8.94      0.00
    3   11    0     16.76      0.00
    4   11    0    -13.78      0.00
    5   11    0      6.83      0.00
    6   11    0     18.66      0.00
    0   12    0    -20.02      0.00
    1   12    0    -49.53      0.00
    2   12    0     30.59      0.00
    3   12    0     -1.54      0.00
    4   12    0     -3.79      0.00
    5   12    0    -30.39      0.00
    6   12    0     22.82      0.00
    1   13    0     13.89      0.00
    2   13    0     18.13      0.00
    3   13    0     -3.17      0.00
    4   13    0      6.40      0.00
    5   13    0    -33.46      0.00
    2   14    0     14.75      0.00
    3   14    0    -78.66      0.00
    4   14    0    -11.23      0.00
    5   14    0    -16.82      0.00
    6   14    0    -43.76      0.00
    1   15    0    -25.45      0.00
    2   15    0    -16.50      0.00
    3   15    0     -3.91      0.00
    4   15    0      5.51      0.00
    5   15    0    -15.32      0.00
    6   15    0     24.29      0.00
    0   16    0     32.14      0.00
    1   16    0      6.40      0.00
    2   16    0     17.21      0.00
    3   16    0    -39.58      0.00
    4   16    0     15.33      0.00
    5   16    0    -21.61      0.00
    6   16    0     23.49      0.00
    7   16    0     -5.03      0.00
    1   17    0      1.63      0.00
    2   17    0     73.80      0.00
    3   17    0     36.96      0.00
    4   17    0    -43.69      0.00
    5   17    0     58.31      0.00
    6   17    0    -37.81      0.00
    7   17    0     -2.25      0.00
    0   18    0     -6.49      0.00
    1   18    0    -34.82      0.00
    2   18    0     58.12      0.00
    3   18    0    -30.73      0.00
    4   18    0     51.05      0.00
    5   18    0     42.42      0.00
    6   18    0    -41.08      0.00
    7   18    0   -128.14      0.00
    1   19    0    -32.54      0.00
    2   19    0    -75.60      0.00
    3   19    0    181.87      0.00
    4   19    0    -38.60      0.00
    5   19    0    -35.38      0.00
    6   19    0     17.01      0.00
    0   20    0     49.21      0.00
    1   20    0     44.66      0.00
    2   20    0     43.10      0.00
    3   20    0    -50.82      0.00
    4   20    0     59.82      0.00
    5   20    0     14.06      0.00
    6   20    0      2.87      0.00
    1    2    1     88.57      0.00
    0    3    1    -50.33      0.00
    1    3    1    151.68      0.00
    2    3    1     14.71      0.00
    1    4    1    -14.28      0.00
    2    4    1     25.37      0.00
    3    4    1     37.04      0.00
    0    5    1    -10.41      0.00
    1    5    1    -15.57      0.00
    2    5    1     68.41      0.00
    3    5    1     11.73      0.00
    1    6    1     29.08      0.00
    2    6    1    -47.18      0.00
    3    6    1     -7.96      0.00
    4    6    1     11.23      0.00
    0    7    1    -14.72      0.00
    1    7    1     -5.22      0.00
    2    7    1      1.72      0.00
    3    7    1     11.20      0.00
    4    7    1     -0.80      0.00
    1    8    1     -7.30      0.00
    2    8    1     -0.20      0.00
    3    8    1     19.87      0.00
    4    8    1     10.36      0.00
    5    8    1     42.45      0.00
    0    9    1    -29.12      0.00
    1    9    1      3.43      0.00
    2    9    1      8.02      0.00
    3    9    1     -3.05      0.00
    4    9    1     -4.03      0.00
    5    9    1     15.96      0.00
    1   10    1     26.20      0.00
    2   10    1     -5.95      0.00
    3   10    1     -8.50      0.00
    4   10    1     15.13      0.00
    5   10    1    -14.05      0.00
    6   10    1      7.11      0.00
    0   11    1     -7.37      0.00
    1   11    1     26.65      0.00
    2   11    1    -11.17      0.00
    3   11    1     -8.36      0.00
    4   11    1     14.02      0.00
    5   11    1     -6.89      0.00
    6   11    1     -3.48      0.00
    1   12    1      2.48      0.00
    2   12    1     76.24      0.00
    3   12    1     -6.35      0.00
    4   12    1     -8.69      0.00
    5   12    1      1.28      0.00
    6   12    1     12.99      0.00
    0   13    1      2.57      0.00
    1   13    1    -13.36      0.00
    2   13    1     12.61      0.00
    3   13    1    -11.14      0.00
    4   13    1    -17.92      0.00
    5   13    1     26.04      0.00
    6   13    1    -22.47      0.00
    1   14    1     -2.18      0.00
    2   14    1     15.95      0.00
    3   14    1     24.78      0.00
    4   14    1     41.93      0.00
    5   14    1     58.90      0.00
    6   14    1    -10.83      0.00
    7   14    1     11.04      0.00
    0   15    1    -25.44      0.00
    1   15    1    -23.10      0.00
    2   15    1      8.83      0.00
    3   15    1     10.52      0.00
    4   15    1    -13.99      0.00
    5   15    1    -11.49      0.00
    6   15    1     15.99      0.00
    7   15    1     13.77      0.00
    1   16    1      6.28      0.00
    2   16    1    -16.55      0.00
    3   16    1    -16.21      0.00
    4   16    1     -4.85      0.00
    5   16    1      6.55      0.00
    6   16    1     16.31      0.00
    7   16    1    -31.86      0.00
    0   17    1    -16.81      0.00
    1   17    1     -4.05      0.00
    2   17    1     13.91      0.00
    3   17    1     14.21      0.00
    4   17    1    -17.05      0.00
    5   17    1     23.57      0.00
    6   17    1      1.45      0.00
    7   17    1    -27.11      0.00
    1   18    1    -10.05      0.00
    2   18    1    -36.57      0.00
    3   18    1    -18.20      0.00
    4   18    1    -16.16      0.00
    5   18    1      8.50      0.00
    6   18    1     -0.78      0.00
    7   18    1    105.11      0.00
    0   19    1    -32.17      0.00
    1   19    1    -30.20      0.00
    2   19    1     -4.92      0.00
    3   19    1    232.00      0.00
    4   19    1    -34.19      0.00
    5   19    1    -16.24      0.00
    6   19    1    -23.40      0.00
    7   19    1     23.44      0.00
    1   20    1     26.02      0.00
    2   20    1    -33.99      0.00
    3   20    1      5.01      0.00
    4   20    1    -20.23      0.00
    5   20    1     23.17      0.00
    6   20    1    -15.17      0.00
    7   20    1    -35.52      0.00
    1    1    2   -612.45      0.00
    0    2    2     72.90      0.00
    1    2    2   -132.90      0.00
    2    2    2     19.63      0.00
    1    3    2     24.41      0.00
    2    3    2    -73.96      0.00
    3    3    2   -126.20      0.00
    0    4    2     -5.77      0.00
    1    4    2     57.43      0.00
    2    4    2    -33.81      0.00
    3    4    2    -41.12      0.00
    1    5    2     16.04      0.00
    2    5    2    -24.30      0.00
    3    5    2    -11.42      0.00
    0    6    2    -40.33      0.00
    1    6    2    -22.68      0.00
    2    6    2     21.38      0.00
    3    6    2    -14.22      0.00
    4    6    2    -10.83      0.00
    1    7    2    -22.27      0.00
    2    7    2     28.56      0.00
    3    7    2    -19.02      0.00
    4    7    2    -10.29      0.00
    5    7    2      9.83      0.00
    0    8    2    -15.97      0.00
    1    8    2      0.19      0.00
    2    8    2    -34.78      0.00
    3    8    2    -40.60      0.00
    4    8    2     -0.57      0.00
    5    8    2    -14.47      0.00
    1    9    2     -8.14      0.00
    2    9    2      5.96      0.00
    3    9    2      1.03      0.00
    4    9    2      9.87      0.00
    5    9    2     -2.63      0.00
    6    9    2    -16.63      0.00
    0   10    2     20.82      0.00
    1   10    2      3.77      0.00
    2   10    2     -0.85      0.00
    3   10    2     11.87      0.00
    4   10    2    -12.52      0.00
    5   10    2      8.81      0.00
    6   10    2     -9.50      0.00
    1   11    2    -11.26      0.00
    2   11    2    -17.76      0.00
    3   11    2    -15.55      0.00
    4   11    2    -18.04      0.00
    5   11    2      5.89      0.00
    6   11    2    -14.84      0.00
    0   12    2     26.69      0.00
    1   12    2     13.15      0.00
    2   12    2     -5.67      0.00
    3   12    2    -29.57      0.00
    4   12    2      7.22      0.00
    5   12    2     27.10      0.00
    6   12    2     13.38      0.00
    7   12    2     -8.00      0.00
    1   13    2     -8.54      0.00
    2   13    2     -2.12      0.00
    3   13    2    -26.37      0.00
    4   13    2     15.50      0.00
    5   13    2     -8.39      0.00
    6   13    2    -15.04      0.00
    0   14    2     14.75      0.00
    1   14    2     12.96      0.00
    2   14    2    -11.07      0.00
    3   14    2    -46.73      0.00
    4   14    2    -13.14      0.00
    5   14    2    -42.26      0.00
    6   14    2    -24.21      0.00
    7   14    2     17.91      0.00
    1   15    2     -9.80      0.00
    2   15    2     -3.13      0.00
    3   15    2      3.19      0.00
    4   15    2     -3.73      0.00
    5   15    2    -14.10      0.00
    6   15    2      4.77      0.00
    7   15    2     -5.76      0.00
    0   16    2    -55.67      0.00
    1   16    2     -5.85      0.00
    2   16    2     -6.47      0.00
    3   16    2     24.48      0.00
    4   16    2      7.01      0.00
    5   16    2     -0.38      0.00
    6   16    2    -14.95      0.00
    7   16    2      6.73      0.00
    1   17    2    -35.47      0.00
    2   17    2     59.61      0.00
    3   17    2     24.98      0.00
    4   17    2     22.93      0.00
    5   17    2      6.25      0.00
    6   17    2     22.52      0.00
    7   17    2    -18.99      0.00
    0   18    2     23.09      0.00
    1   18    2     37.90      0.00
    2   18    2      1.07      0.00
    3   18    2    -17.76      0.00
    4   18    2    -64.20      0.00
    5   18    2    -51.63      0.00
    6   18    2    -26.24      0.00
    7   18    2    131.93      0.00
    2   19    2    -21.95      0.00
    3   19    2   -244.37      0.00
    4   19    2    -29.61      0.00
    5   19    2     45.46      0.00
    6   19    2     18.01      0.00
    7   19    2    -23.34      0.00
    0   20    2      8.03      0.00
    1   20    2    -16.23      0.00
    2   20    2      8.56      0.00
    3   20    2    -15.27      0.00
    4   20    2     -4.37      0.00
    5   20    2     18.87      0.00
    6   20    2    -10.65      0.00
    1   21    2      5.17      0.00
    2   21    2     18.56      0.00
    3   21    2    -32.54      0.00
    0    1    3     82.73      0.00
    1    2    3   -102.55      0.00
    0    3    3    279.18      0.00
    1    3    3   -126.54      0.00
    2    3    3    -50.75      0.00
    1    4    3    -24.12      0.00
    2    4    3    -37.03      0.00
    3    4    3    -27.31      0.00
    0    5    3    -22.23      0.00
    1    5    3     28.61      0.00
    2    5    3    -77.90      0.00
    3    5    3    -19.13      0.00
    4    5    3      9.75      0.00
    1    6    3    -14.01      0.00
    2    6    3      2.18      0.00
    3    6    3     -0.86      0.00
    4    6    3     -6.11      0.00
    5    6    3     -2.79      0.00
    0    7    3     23.05      0.00
    1    7    3     15.95      0.00
    2    7    3     -7.49      0.00
    3    7    3     -5.92      0.00
    4    7    3    -14.09      0.00
    5    7    3    -12.77      0.00
    1    8    3    -23.60      0.00
    2    8    3      6.88      0.00
    3    8    3    -10.99      0.00
    4    8    3     -2.33      0.00
    5    8    3     -9.65      0.00
    6    8    3      0.13      0.00
    0    9    3     24.50      0.00
    1    9    3     -9.77      0.00
    2    9    3      3.64      0.00
    3    9    3      5.29      0.00
    4    9    3      6.50      0.00
    5    9    3      0.58      0.00
    6    9    3    -14.78      0.00
    1   10    3     13.54      0.00
    2   10    3     15.58      0.00
    3   10    3     -4.31      0.00
    4   10    3    -19.40      0.00
    5   10    3     -7.43      0.00
    6   10    3    -10.90      0.00
    0   11    3     -0.69      0.00
    1   11    3    -17.72      0.00
    2   11    3      9.97      0.00
    3   11    3      2.34      0.00
    4   11    3     -8.28      0.00
    5   11    3      2.15      0.00
    6   11    3    -41.07      0.00
    7   11    3     49.27      0.00
    1   12    3    -38.77      0.00
    2   12    3    -25.28      0.00
    3   12    3     16.45      0.00
    4   12    3     -7.23      0.00
    5   12    3    -13.61      0.00
    6   12    3      7.49      0.00
    7   12    3     12.49      0.00
    0   13    3    -26.68      0.00
    1   13    3     -7.55      0.00
    2   13    3     10.20      0.00
    3   13    3     15.59      0.00
    4   13    3     -2.20      0.00
    5   13    3     41.68      0.00
    6   13    3      7.02      0.00
    7   13    3    -80.97      0.00
    1   14    3     19.02      0.00
    2   14    3     57.69      0.00
    3   14    3     28.89      0.00
    4   14    3     18.75      0.00
    5   14    3      2.97      0.00
    6   14    3    -20.08      0.00
    7   14    3    -11.35      0.00
    0   15    3     -3.94      0.00
    1   15    3     -0.62      0.00
    2   15    3    -19.37      0.00
    3   15    3    -17.21      0.00
    4   15    3    -36.79      0.00
    5   15    3      4.47      0.00
    6   15    3     30.93      0.00
    7   15    3     37.64      0.00
    1   16    3    -15.37      0.00
    2   16    3    -21.54      0.00
    3   16    3      8.47      0.00
    4   16    3     19.46      0.00
    5   16    3     15.29      0.00
    6   16    3     13.89      0.00
    7   16    3     25.02      0.00
    0   17    3    -51.62      0.00
    1   17    3     21.78      0.00
    2   17    3     67.93      0.00
    3   17    3     -0.31      0.00
    4   17    3    -24.38      0.00
    5   17    3      8.89      0.00
    6   17    3    -51.40      0.00
    7   17    3    -43.25      0.00
    1   18    3    -26.95      0.00
    2   18    3    -74.32      0.00
    3   18    3     46.12      0.00
    4   18    3    -26.96      0.00
    5   18    3    -13.78      0.00
    6   18    3    -27.23      0.00
    7   18    3     77.75      0.00
    1   19    3    -25.55      0.00
    2   19    3    -68.68      0.00
    3   19    3     34.19      0.00
    4   19    3     50.87      0.00
    5   19    3      4.69      0.00
    6   19    3     33.00      0.00
    1   20    3     25.73      0.00
    2   20    3    -36.68      0.00
    3   20    3     37.70      0.00
    4   20    3      4.22      0.00
    5   20    3     -5.95      0.00
    6   20    3     21.12      0.00
    0   21    3    -29.32      0.00
    1   21    3     27.24      0.00
    2   21    3      8.79      0.00
    3   21    3    -51.43      0.00
    4   21    3    -23.54      0.00
    0    0    4    -62.51      0.00
    1    1    4    108.17      0.00
    0    2    4    121.75      0.00
    1    2    4    -17.06      0.00
    2    2    4      3.50      0.00
    1    3    4     46.80      0.00
    2    3    4      7.83      0.00
    3    3    4    -92.59      0.00
    0    4    4   -147.68      0.00
    1    4    4    -71.29      0.00
    2    4    4      8.26      0.00
    3    4    4     -2.54      0.00
    4    4    4      1.87      0.00
    1    5    4    -35.85      0.00
    2    5    4    -10.45      0.00
    3    5    4     39.38      0.00
    4    5    4     -3.54      0.00
    5    5    4     11.66      0.00
    0    6    4     51.12      0.00
    1    6    4     34.22      0.00
    2    6    4      6.77      0.00
    3    6    4     -1.64      0.00
    4    6    4      0.20      0.00
    5    6    4    -10.69      0.00
    1    7    4     10.00      0.00
    2    7    4     22.19      0.00
    3    7    4    -23.92      0.00
    4    7    4      8.05      0.00
    5    7    4      0.81      0.00
    6    7    4      2.36      0.00
    0    8    4     21.73      0.00
    1    8    4     20.93      0.00
    2    8    4     24.51      0.00
    3    8    4      7.45      0.00
    4    8    4      9.80      0.00
    5    8    4     -7.42      0.00
    6    8    4     -3.66      0.00
    1    9    4     14.47      0.00
    2    9    4      2.19      0.00
    3    9    4     12.40      0.00
    4    9    4     -1.20      0.00
    5    9    4      7.72      0.00
    6    9    4      0.04      0.00
    0   10    4     -4.28      0.00
    1   10    4     -3.33      0.00
    2   10    4      8.80      0.00
    3   10    4      4.54      0.00
    4   10    4     -5.56      0.00
    5   10    4      5.89      0.00
    6   10    4    -10.63      0.00
    7   10    4      3.50      0.00
    1   11    4      8.00      0.00
    2   11    4      2.33      0.00
    3   11    4    -15.76      0.00
    4   11    4    -12.13      0.00
    5   11    4      4.33      0.00
    6   11    4    -13.08      0.00
    7   11    4     26.54      0.00
    0   12    4     -5.65      0.00
    1   12    4      6.41      0.00
    2   12    4      5.12      0.00
    3   12    4     -7.66      0.00
    4   12    4     46.10      0.00
    5   12    4     11.25      0.00
    6   12    4    -23.77      0.00
    7   12    4    -25.62      0.00
    1   13    4     -1.93      0.00
    2   13    4     -0.21      0.00
    3   13    4    -20.89      0.00
    4   13    4     -2.23      0.00
    5   13    4     -2.43      0.00
    6   13    4     27.28      0.00
    7   13    4    -15.13      0.00
    0   14    4     10.88      0.00
    1   14    4     17.36      0.00
    2   14    4    -22.63      0.00
    3   14    4     24.46      0.00
    4   14    4      1.29      0.00
    5   14    4     20.73      0.00
    6   14    4    -30.02      0.00
    8   14    4    -21.88      0.00
    1   15    4     16.58      0.00
    2   15    4    -18.91      0.00
    3   15    4      2.48      0.00
    4   15    4      1.73      0.00
    5   15    4    -22.04      0.00
    6   15    4     12.47      0.00
    7   15    4     26.97      0.00
    0   16    4      9.16      0.00
    1   16    4      6.00      0.00
    2   16    4    -22.54      0.00
    3   16    4     34.30      0.00
    4   16    4      6.42      0.00
    5   16    4     11.96      0.00
    6   16    4    -70.47      0.00
    7   16    4    -18.04      0.00
    1   17    4    101.23      0.00
    2   17    4    -19.09      0.00
    3   17    4    -59.93      0.00
    4   17    4    -14.61      0.00
    5   17    4     18.33      0.00
    6   17    4    -10.96      0.00
    0   18    4     -9.40      0.00
    1   18    4   -122.65      0.00
    2   18    4     40.24      0.00
    3   18    4    -23.62      0.00
    4   18    4     38.76      0.00
    5   18    4    -10.20      0.00
    6   18    4      0.13      0.00
    1   19    4    -46.45      0.00
    2   19    4    157.36      0.00
    3   19    4     22.73      0.00
    4   19    4    -29.18      0.00
    5   19    4     -2.32      0.00
    6   19    4     -0.25      0.00
    0   20    4     12.31      0.00
    1   20    4      0.10      0.00
    2   20    4     36.60      0.00
    3   20    4     27.15      0.00
    4   20    4     28.11      0.00
    5   20    4     17.13      0.00
    1   21    4    -25.47      0.00
    2   21    4    -17.96      0.00
    3   21    4     13.77      0.00
    4   21    4     40.81      0.00
    0    1    5    -55.18      0.00
    1    2    5     99.26      0.00
    0    3    5     19.54      0.00
    1    3    5    -70.54      0.00
    2    3    5     63.83      0.00
    1    4    5     -4.57      0.00
    2    4    5     53.64      0.00
    3    4    5    -17.87      0.00
    0    5    5      7.00      0.00
    1    5    5      7.88      0.00
    2    5    5     40.98      0.00
    3    5    5     -1.75      0.00
    4    5    5     21.51      0.00
    1    6    5     27.53      0.00
    2    6    5     21.29      0.00
    3    6    5      3.96      0.00
    4    6    5     -6.00      0.00
    5    6    5     22.42      0.00
    0    7    5     60.07      0.00
    1    7    5     -1.07      0.00
    2    7    5     -4.21      0.00
    3    7    5     17.90      0.00
    4    7    5     21.98      0.00
    5    7    5    -17.47      0.00
    6    7    5      5.07      0.00
    1    8    5    -44.09      0.00
    2    8    5     16.75      0.00
    3    8    5     -8.84      0.00
    4    8    5    -10.56      0.00
    5    8    5      1.75      0.00
    6    8    5    -10.35      0.00
    7    8    5     11.46      0.00
    0    9    5    -21.03      0.00
    1    9    5      2.48      0.00
    2    9    5     22.01      0.00
    3    9    5      6.82      0.00
    4    9    5     -3.52      0.00
    5    9    5     10.60      0.00
    6    9    5     -8.61      0.00
    7    9    5      9.23      0.00
    1   10    5    -10.02      0.00
    2   10    5     -7.72      0.00
    3   10    5     16.73      0.00
    4   10    5      1.75      0.00
    5   10    5      0.43      0.00
    6   10    5    -13.07      0.00
    7   10    5     -6.76      0.00
    0   11    5     15.20      0.00
    1   11    5      7.77      0.00
    2   11    5    -10.08      0.00
    3   11    5      0.61      0.00
    4   11    5     17.90      0.00
    5   11    5     -8.89      0.00
    6   11    5      2.17      0.00
    7   11    5     -0.17      0.00
    1   12    5     16.70      0.00
    2   12    5    -12.84      0.00
    3   12    5     -0.88      0.00
    4   12    5      4.44      0.00
    5   12    5     45.57      0.00
    6   12    5    -30.93      0.00
    7   12    5      5.69      0.00
    8   12    5      7.19      0.00
    0   13    5     13.93      0.00
    1   13    5     -8.94      0.00
    2   13    5     16.71      0.00
    3   13    5     -2.38      0.00
    4   13    5      1.95      0.00
    5   13    5     -8.56      0.00
    6   13    5     -6.21      0.00
    7   13    5     32.95      0.00
    1   14    5    -22.01      0.00
    2   14    5    -18.21      0.00
    3   14    5     25.58      0.00
    4   14    5    -48.63      0.00
    5   14    5     23.50      0.00
    6   14    5      0.40      0.00
    7   14    5     27.14      0.00
    0   15    5     22.28      0.00
    1   15    5    -10.36      0.00
    2   15    5     10.86      0.00
    3   15    5    -14.75      0.00
    4   15    5     34.76      0.00
    5   15    5    -21.36      0.00
    6   15    5     20.72      0.00
    7   15    5     29.29      0.00
    1   16    5     30.26      0.00
    2   16    5     26.63      0.00
    3   16    5    -35.78      0.00
    4   16    5      9.66      0.00
    5   16    5     29.01      0.00
    6   16    5    -20.97      0.00
    7   16    5     51.85      0.00
    0   17    5     64.36      0.00
    1   17    5     46.66      0.00
    2   17    5    -27.65      0.00
    3   17    5    -17.92      0.00
    4   17    5    -13.74      0.00
    5   17    5     20.90      0.00
    6   17    5    -17.99      0.00
    7   17    5     15.66      0.00
    1   18    5    -16.09      0.00
    2   18    5    -27.31      0.00
    3   18    5      8.15      0.00
    4   18    5     19.42      0.00
    5   18    5     33.51      0.00
    7   18    5      5.48      0.00
    0   19    5   -163.93      0.00
    1   19    5    131.53      0.00
    2   19    5     29.35      0.00
    3   19    5    -60.94      0.00
    4   19    5     19.11      0.00
    5   19    5     -5.86      0.00
    6   19    5    -43.13      0.00
    1   20    5     14.49      0.00
    2   20    5     45.49      0.00
    3   20    5    -15.02      0.00
    4   20    5      3.33      0.00
    0   21    5    -44.50      0.00
    1   21    5     -0.32      0.00
    2   21    5     56.70      0.00
    3   21    5    -12.23      0.00
    0    0    6   -221.89      0.00
    1    1    6     37.46      0.00
    0    2    6    -53.54      0.00
    1    2    6   -108.68      0.00
    2    2    6    -34.18      0.00
    1    3    6     74.00      0.00
    2    3    6    -54.86      0.00
    3    3    6     61.92      0.00
    0    4    6     67.80      0.00
    1    4    6    -47.28      0.00
    2    4    6    -13.68      0.00
    3    4    6      6.17      0.00
    4    4    6     35.68      0.00
    1    5    6    -33.73      0.00
    2    5    6     13.17      0.00
    3    5    6     -7.18      0.00
    4    5    6    -11.81      0.00
    5    5    6     65.54      0.00
    0    6    6     25.42      0.00
    1    6    6     14.59      0.00
    2    6    6    -16.22      0.00
    3    6    6     22.61      0.00
    4    6    6    -11.41      0.00
    5    6    6    -14.50      0.00
    6    6    6     -2.43      0.00
    1    7    6     -6.53      0.00
    2    7    6      1.25      0.00
    3    7    6     -9.31      0.00
    4    7    6     -3.40      0.00
    5    7    6    -17.42      0.00
    6    7    6      3.72      0.00
    7    7    6      7.97      0.00
    0    8    6     11.72      0.00
    1    8    6    -12.31      0.00
    2    8    6      9.23      0.00
    3    8    6     -2.09      0.00
    4    8    6      8.95      0.00
    5    8    6     -1.02      0.00
    6    8    6      7.60      0.00
    7    8    6      0.37      0.00
    1    9    6     11.55      0.00
    2    9    6      0.38      0.00
    3    9    6     11.55      0.00
    4    9    6      5.32      0.00
    5    9    6     -5.35      0.00
    6    9    6     10.69      0.00
    7    9    6     -7.87      0.00
    0   10    6      2.41      0.00
    1   10    6    -10.23      0.00
    2   10    6      3.68      0.00
    3   10    6     -8.34      0.00
    4   10    6      0.41      0.00
    5   10    6      3.93      0.00
    6   10    6    -16.52      0.00
    7   10    6    -12.93      0.00
    8   10    6    -12.24      0.00
    1   11    6     -1.96      0.00
    2   11    6     -1.12      0.00
    3   11    6     -6.67      0.00
    4   11    6     12.19      0.00
    5   11    6    -14.93      0.00
    6   11    6     -5.31      0.00
    7   11    6      9.66      0.00
    8   11    6     14.83      0.00
    0   12    6    -11.12      0.00
    1   12    6    -28.81      0.00
    2   12    6    -21.68      0.00
    3   12    6     17.13      0.00
    4   12    6    -21.28      0.00
    5   12    6     14.29      0.00
    6   12    6     21.35      0.00
    7   12    6     -7.79      0.00
    8   12    6     22.82      0.00
    1   13    6     13.39      0.00
    2   13    6    -41.82      0.00
    3   13    6     16.84      0.00
    4   13    6    -10.17      0.00
    5   13    6      4.89      0.00
    6   13    6     29.93      0.00
    7   13    6     34.21      0.00
    0   14    6      7.31      0.00
    1   14    6      8.99      0.00
    2   14    6    -17.63      0.00
    3   14    6     11.87      0.00
    4   14    6     29.13      0.00
    5   14    6     -5.44      0.00
    6   14    6     42.23      0.00
    7   14    6     -3.88      0.00
    1   15    6      1.99      0.00
    2   15    6    -17.57      0.00
    3   15    6     19.43      0.00
    4   15    6     -7.65      0.00
    5   15    6    -10.73      0.00
    6   15    6     -9.80      0.00
    7   15    6      1.87      0.00
    0   16    6      7.10      0.00
    1   16    6     16.23      0.00
    2   16    6    -32.96      0.00
    3   16    6     23.91      0.00
    4   16    6    -12.02      0.00
    5   16    6    -10.80      0.00
    6   16    6      3.62      0.00
    7   16    6     -8.13      0.00
    1   17    6     15.82      0.00
    2   17    6      4.46      0.00
    3   17    6    -18.66      0.00
    4   17    6    -12.06      0.00
    5   17    6     30.17      0.00
    6   17    6    -75.97      0.00
    7   17    6    -11.04      0.00
    0   18    6     40.61      0.00
    1   18    6    -10.53      0.00
    2   18    6    -30.28      0.00
    3   18    6    -22.84      0.00
    4   18    6    -13.68      0.00
    5   18    6     25.18      0.00
    6   18    6    -22.41      0.00
    7   18    6      2.81      0.00
    1   19    6    -42.26      0.00
    2   19    6    -14.37      0.00
    3   19    6     36.27      0.00
    4   19    6    -44.90      0.00
    5   19    6     -8.51      0.00
    6   19    6     28.93      0.00
    7   19    6     25.12      0.00
    0   20    6     -0.90      0.00
    1   20    6    -14.28      0.00
    2   20    6     10.99      0.00
    3   20    6    -15.36      0.00
    4   20    6     31.87      0.00
    1   21    6     17.24      0.00
    2   21    6    -22.62      0.00
    0    1    7    -41.28      0.00
    1    2    7     -5.10      0.00
    0    3    7     32.89      0.00
    1    3    7    -52.95      0.00
    2    3    7    -80.84      0.00
    1    4    7    -10.83      0.00
    2    4    7     10.48      0.00
    3    4    7    -18.10      0.00
    0    5    7    -39.41      0.00
    1    5    7     35.33      0.00
    2    5    7      1.48      0.00
    3    5    7     -1.51      0.00
    4    5    7      8.96      0.00
    1    6    7     20.89      0.00
    2    6    7      4.70      0.00
    3    6    7     -7.61      0.00
    4    6    7     -4.22      0.00
    5    6    7      3.01      0.00
    0    7    7     -5.00      0.00
    1    7    7     -1.90      0.00
    2    7    7     -8.59      0.00
    3    7    7    -19.86      0.00
    4    7    7    -13.49      0.00
    5    7    7     10.75      0.00
    6    7    7    -28.14      0.00
    1    8    7    -16.01      0.00
    2    8    7    -10.56      0.00
    3    8    7     -8.69      0.00
    4    8    7      2.33      0.00
    5    8    7    -23.16      0.00
    6    8    7     -2.59      0.00
    7    8    7      7.71      0.00
    0    9    7    -22.30      0.00
    1    9    7    -11.43      0.00
    2    9    7      9.11      0.00
    3    9    7     -9.52      0.00
    4    9    7     -4.23      0.00
    5    9    7    -14.41      0.00
    6    9    7      1.89      0.00
    7    9    7     29.62      0.00
    8    9    7     -4.27      0.00
    1   10    7    -11.22      0.00
    2   10    7     -2.29      0.00
    3   10    7     -9.45      0.00
    4   10    7     -3.96      0.00
    5   10    7      3.45      0.00
    6   10    7     -6.87      0.00
    7   10    7     -8.97      0.00
    8   10    7     17.85      0.00
    0   11    7      0.09      0.00
    1   11    7      1.69      0.00
    2   11    7     -0.53      0.00
    3   11    7      7.24      0.00
    4   11    7      3.55      0.00
    5   11    7      7.49      0.00
    6   11    7      6.74      0.00
    7   11    7     -7.05      0.00
    8   11    7     -5.72      0.00
    1   12    7     -8.05      0.00
    2   12    7     -5.87      0.00
    3   12    7    -11.90      0.00
    4   12    7      5.06      0.00
    5   12    7      7.19      0.00
    6   12    7      8.75      0.00
    7   12    7     -7.76      0.00
    8   12    7    -22.42      0.00
    0   13    7    -12.80      0.00
    1   13    7      1.84      0.00
    2   13    7      1.86      0.00
    3   13    7     13.12      0.00
    4   13    7      4.17      0.00
    5   13    7     -6.58      0.00
    6   13    7   -127.71      0.00
    7   13    7    -16.25      0.00
    1   14    7      0.38      0.00
    2   14    7     -3.08      0.00
    3   14    7    -78.46      0.00
    4   14    7     11.05      0.00
    5   14    7    -31.55      0.00
    6   14    7    -17.38      0.00
    7   14    7    -11.22      0.00
    0   15    7    -33.03      0.00
    1   15    7    -13.11      0.00
    2   15    7     -7.33      0.00
    3   15    7     14.30      0.00
    4   15    7     31.28      0.00
    5   15    7    -10.51      0.00
    6   15    7     -5.85      0.00
    7   15    7     13.08      0.00
    1   16    7    -23.45      0.00
    2   16    7     31.76      0.00
    3   16    7     20.62      0.00
    4   16    7     11.94      0.00
    5   16    7     19.48      0.00
    6   16    7      1.97      0.00
    7   16    7     24.44      0.00
    0   17    7     -1.98      0.00
    1   17    7      0.34      0.00
    2   17    7    -17.62      0.00
    3   17    7    -28.85      0.00
    4   17    7      6.39      0.00
    5   17    7    -32.78      0.00
    6   17    7    -53.58      0.00
    7   17    7      8.27      0.00
    1   18    7     16.06      0.00
    2   18    7     20.99      0.00
    3   18    7      0.13      0.00
    4   18    7    -28.35      0.00
    5   18    7     14.94      0.00
    6   18    7    -24.85      0.00
    7   18    7     21.02      0.00
    0   19    7      8.70      0.00
    1   19    7      1.32      0.00
    2   19    7     32.03      0.00
    3   19    7      3.59      0.00
    4   19    7    -27.25      0.00
    5   19    7    -71.15      0.00
    6   19    7    -14.48      0.00
    7   19    7    -16.26      0.00
    1   20    7     24.45      0.00
    2   20    7     -1.94      0.00
    3   20    7    -47.17      0.00
    0   21    7      7.91      0.00
    1   21    7     -9.09      0.00
    0    0    8    -84.98      0.00
    1    1    8     14.46      0.00
    0    2    8    -12.77      0.00
    1    2    8     49.13      0.00
    2    2    8     -5.51      0.00
    1    3    8    -27.84      0.00
    2    3    8    -28.98      0.00
    3    3    8    -29.88      0.00
    0    4    8    -99.85      0.00
    1    4    8     19.06      0.00
    2    4    8     -4.89      0.00
    3    4    8      0.02      0.00
    4    4    8    -16.70      0.00
    1    5    8    -11.71      0.00
    2    5    8      7.99      0.00
    3    5    8      2.44      0.00
    4    5    8     -0.69      0.00
    5    5    8     13.99      0.00
    0    6    8      2.46      0.00
    1    6    8    -10.64      0.00
    2    6    8     27.32      0.00
    3    6    8     -4.77      0.00
    4    6    8    -28.59      0.00
    5    6    8     -3.83      0.00
    6    6    8     -0.84      0.00
    1    7    8     -4.33      0.00
    2    7    8      3.38      0.00
    3    7    8     -9.55      0.00
    4    7    8     -2.88      0.00
    5    7    8      0.09      0.00
    6    7    8     13.28      0.00
    7    7    8     -3.92      0.00
    0    8    8     -6.76      0.00
    1    8    8    -15.60      0.00
    2    8    8     11.19      0.00
    3    8    8      4.65      0.00
    4    8    8      0.95      0.00
    5    8    8      7.18      0.00
    6    8    8     -4.06      0.00
    7    8    8     11.74      0.00
    8    8    8     -2.50      0.00
    1    9    8     11.82      0.00
    2    9    8     -8.54      0.00
    3    9    8     -2.01      0.00
    4    9    8      1.00      0.00
    5    9    8     27.97      0.00
    6    9    8     -1.25      0.00
    7    9    8      2.15      0.00
    8    9    8     -9.73      0.00
    0   10    8    -32.01      0.00
    1   10    8      1.66      0.00
    2   10    8    -14.53      0.00
    3   10    8     -8.31      0.00
    4   10    8    -18.97      0.00
    5   10    8     -0.40      0.00
    6   10    8     -6.20      0.00
    7   10    8      9.65      0.00
    8   10    8      4.20      0.00
    1   11    8      2.37      0.00
    2   11    8     16.15      0.00
    3   11    8     -5.49      0.00
    4   11    8     -6.27      0.00
    5   11    8      4.53      0.00
    6   11    8      9.02      0.00
    7   11    8     -4.12      0.00
    8   11    8      0.11      0.00
    0   12    8     11.49      0.00
    1   12    8     -0.37      0.00
    2   12    8      4.21      0.00
    3   12    8     17.06      0.00
    4   12    8      2.57      0.00
    5   12    8      0.59      0.00
    6   12    8     23.33      0.00
    7   12    8    -14.24      0.00
    8   12    8      7.13      0.00
    1   13    8     -8.75      0.00
    2   13    8     29.64      0.00
    3   13    8     21.51      0.00
    4   13    8      8.64      0.00
    5   13    8    -48.49      0.00
    6   13    8      7.79      0.00
    7   13    8     -2.46      0.00
    8   13    8     12.22      0.00
    9   13    8      5.97      0.00
    0   14    8     33.28      0.00
    1   14    8     29.87      0.00
    2   14    8    -49.30      0.00
    3   14    8     19.03      0.00
    4   14    8    -14.40      0.00
    5   14    8     -4.80      0.00
    6   14    8     46.78      0.00
    7   14    8     -2.59      0.00
    8   14    8     25.07      0.00
    1   15    8     15.85      0.00
    2   15    8     -2.07      0.00
    3   15    8     11.86      0.00
    4   15    8      3.41      0.00
    5   15    8    -22.30      0.00
    6   15    8     22.21      0.00
    7   15    8    -25.79      0.00
    8   15    8     -8.13      0.00
    0   16    8    -15.82      0.00
    1   16    8      1.42      0.00
    2   16    8     -1.40      0.00
    3   16    8      0.57      0.00
    4   16    8    -22.61      0.00
    5   16    8      6.35      0.00
    6   16    8    -35.30      0.00
    7   16    8     24.71      0.00
    8   16    8    -20.02      0.00
    1   17    8     -9.93      0.00
    2   17    8      0.73      0.00
    3   17    8    -28.51      0.00
    4   17    8    -10.02      0.00
    5   17    8     25.22      0.00
    6   17    8    -10.27      0.00
    7   17    8      7.51      0.00
    0   18    8    -10.54      0.00
    1   18    8     -6.55      0.00
    2   18    8     23.59      0.00
    3   18    8     -6.00      0.00
    4   18    8      5.45      0.00
    5   18    8    310.38      0.00
    6   18    8      5.51      0.00
    7   18    8    -25.17      0.00
    1   19    8      2.61      0.00
    2   19    8    -14.43      0.00
    3   19    8     19.12      0.00
    4   19    8    -16.65      0.00
    5   19    8    -14.24      0.00
    6   19    8     38.80      0.00
    0   20    8     -0.49      0.00
    1   20    8      4.13      0.00
    2   20    8      0.61      0.00
    1   21    8     12.31      0.00
    0    1    9     22.58      0.00
    1    2    9    -18.48      0.00
    0    3    9    -22.43      0.00
    1    3    9      4.50      0.00
    2    3    9      6.01      0.00
    1    4    9     19.62      0.00
    2    4    9     36.57      0.00
    3    4    9     11.74      0.00
    0    5    9    -19.10      0.00
    1    5    9     -3.15      0.00
    2    5    9      9.64      0.00
    3    5    9    -16.21      0.00
    4    5    9    -10.65      0.00
    1    6    9     12.50      0.00
    2    6    9    -11.06      0.00
    3    6    9     -6.36      0.00
    4    6    9     -1.87      0.00
    5    6    9      5.31      0.00
    0    7    9     18.25      0.00
    1    7    9      5.21      0.00
    2    7    9      6.06      0.00
    3    7    9     -4.74      0.00
    4    7    9    -10.01      0.00
    5    7    9      2.04      0.00
    6    7    9    -16.44      0.00
    1    8    9     -4.23      0.00
    2    8    9     -2.40      0.00
    3    8    9     12.03      0.00
    4    8    9     -3.18      0.00
    5    8    9     13.45      0.00
    6    8    9      6.56      0.00
    7    8    9     -1.45      0.00
    0    9    9     -8.15      0.00
    1    9    9     -3.87      0.00
    2    9    9      4.04      0.00
    3    9    9     17.91      0.00
    4    9    9      1.47      0.00
    5    9    9      1.14      0.00
    6    9    9     11.79      0.00
    7    9    9     -7.43      0.00
    8    9    9     12.37      0.00
    1   10    9      4.57      0.00
    2   10    9      0.82      0.00
    3   10    9     -9.31      0.00
    4   10    9     -5.98      0.00
    5   10    9    -10.21      0.00
    6   10    9     14.61      0.00
    7   10    9      4.13      0.00
    8   10    9     -1.77      0.00
    0   11    9     14.14      0.00
    1   11    9      7.34      0.00
    2   11    9     -9.38      0.00
    3   11    9      1.70      0.00
    4   11    9     14.12      0.00
    5   11    9     19.34      0.00
    6   11    9     17.69      0.00
    7   11    9     -0.10      0.00
    8   11    9     13.12      0.00
    1   12    9      6.75      0.00
    2   12    9     21.40      0.00
    3   12    9      4.57      0.00
    4   12    9      4.74      0.00
    5   12    9      5.56      0.00
    6   12    9    -10.08      0.00
    7   12    9      1.30      0.00
    8   12    9     39.30      0.00
    9   12    9      7.96      0.00
    0   13    9    -11.15      0.00
    1   13    9     -0.25      0.00
    2   13    9     27.54      0.00
    3   13    9      1.68      0.00
    4   13    9     11.60      0.00
    5   13    9    -53.46      0.00
    6   13    9     23.85      0.00
    7   13    9     -5.86      0.00
    8   13    9    -16.18      0.00
    9   13    9     -9.18      0.00
    1   14    9     20.07      0.00
    2   14    9    -14.66      0.00
    3   14    9     -6.60      0.00
    4   14    9      4.98      0.00
    5   14    9     18.18      0.00
    6   14    9     36.24      0.00
    7   14    9     20.90      0.00
    8   14    9    -45.98      0.00
    0   15    9    -11.74      0.00
    1   15    9    -11.01      0.00
    2   15    9     31.90      0.00
    3   15    9      9.26      0.00
    4   15    9      6.74      0.00
    5   15    9    -11.25      0.00
    6   15    9    -18.43      0.00
    7   15    9     18.44      0.00
    8   15    9     18.77      0.00
    1   16    9    -20.34      0.00
    2   16    9    -20.22      0.00
    3   16    9     74.50      0.00
    4   16    9     -0.51      0.00
    5   16    9    -25.68      0.00
    6   16    9     22.47      0.00
    7   16    9      8.88      0.00
    8   16    9      3.00      0.00
    0   17    9     -9.94      0.00
    1   17    9    -14.98      0.00
    2   17    9    -53.95      0.00
    3   17    9    -26.76      0.00
    4   17    9      7.97      0.00
    5   17    9    -59.42      0.00
    6   17    9     26.01      0.00
    7   17    9     41.53      0.00
    8   17    9     16.62      0.00
    1   18    9    -10.52      0.00
    2   18    9    -23.12      0.00
    3   18    9      2.30      0.00
    4   18    9    112.74      0.00
    5   18    9     14.78      0.00
    6   18    9    -57.92      0.00
    7   18    9    -46.39      0.00
    8   18    9    -19.00      0.00
    0   19    9    -15.02      0.00
    1   19    9      3.68      0.00
    2   19    9     -6.88      0.00
    3   19    9    -29.52      0.00
    4   19    9      0.34      0.00
    5   19    9    -49.86      0.00
    6   19    9     -4.05      0.00
    1   20    9    -23.06      0.00
    2   20    9    -13.84      0.00
    0    0   10     29.90      0.00
    1    1   10     43.31      0.00
    0    2   10     61.16      0.00
    1    2   10     -6.33      0.00
    2    2   10    -17.19      0.00
    1    3   10     -5.92      0.00
    2    3   10     -4.46      0.00
    3    3   10     15.54      0.00
    0    4   10     21.33      0.00
    1    4   10     -8.56      0.00
    2    4   10     28.92      0.00
    3    4   10     16.30      0.00
    4    4   10     -7.40      0.00
    1    5   10     14.92      0.00
    2    5   10     22.31      0.00
    3    5   10     10.81      0.00
    4    5   10     -4.50      0.00
    5    5   10     -3.99      0.00
    0    6   10      1.96      0.00
    1    6   10    -14.30      0.00
    2    6   10    -15.50      0.00
    3    6   10     -5.41      0.00
    4    6   10      0.54      0.00
    5    6   10      0.09      0.00
    6    6   10      0.63      0.00
    1    7   10    -14.10      0.00
    2    7   10     -9.69      0.00
    3    7   10     -0.79      0.00
    4    7   10      8.66      0.00
    5    7   10     12.18      0.00
    6    7   10      3.73      0.00
    7    7   10      7.77      0.00
    0    8   10     -0.62      0.00
    1    8   10    -12.04      0.00
    2    8   10     12.33      0.00
    3    8   10      7.69      0.00
    4    8   10     14.73      0.00
    5    8   10    -12.37      0.00
    6    8   10     -3.08      0.00
    7    8   10     -5.71      0.00
    8    8   10      8.13      0.00
    1    9   10      6.16      0.00
    2    9   10     22.35      0.00
    3    9   10     -0.66      0.00
    4    9   10     -4.73      0.00
    5    9   10      9.37      0.00
    6    9   10    -21.57      0.00
    7    9   10      5.38      0.00
    8    9   10     -4.73      0.00
    9    9   10     29.52      0.00
    0   10   10     17.14      0.00
    1   10   10      0.39      0.00
    2   10   10     -4.08      0.00
    3   10   10    -15.02      0.00
    4   10   10    -14.66      0.00
    5   10   10     -5.67      0.00
    6   10   10    -12.45      0.00
    7   10   10     -1.67      0.00
    8   10   10    -23.17      0.00
    1   11   10      8.26      0.00
    2   11   10    -14.09      0.00
    3   11   10     35.49      0.00
    4   11   10      8.31      0.00
    5   11   10     -4.19      0.00
    6   11   10     15.06      0.00
    7   11   10     17.87      0.00
    9   11   10    -34.55      0.00
    0   12   10      9.79      0.00
    1   12   10      5.08      0.00
    2   12   10     12.65      0.00
    3   12   10    -26.04      0.00
    4   12   10      2.58      0.00
    5   12   10      3.74      0.00
    6   12   10      8.18      0.00
    7   12   10    -16.00      0.00
    8   12   10      6.62      0.00
    9   12   10      4.04      0.00
    1   13   10     -4.09      0.00
    2   13   10    -30.13      0.00
    3   13   10    -17.02      0.00
    4   13   10    -31.03      0.00
    5   13   10    -17.10      0.00
    6   13   10     27.91      0.00
    7   13   10    -28.77      0.00
    8   13   10     46.05      0.00
    9   13   10     -2.89      0.00
    0   14   10     20.49      0.00
    1   14   10      2.80      0.00
    2   14   10    -16.82      0.00
    3   14   10     -7.22      0.00
    4   14   10     28.88      0.00
    5   14   10      2.78      0.00
    6   14   10     17.47      0.00
    7   14   10     -5.65      0.00
    8   14   10    -20.70      0.00
    1   15   10     26.05      0.00
    2   15   10     17.61      0.00
    3   15   10      3.43      0.00
    4   15   10      5.06      0.00
    5   15   10     -4.18      0.00
    6   15   10    -16.66      0.00
    7   15   10    -30.88      0.00
    8   15   10     -6.51      0.00
    0   16   10     -5.87      0.00
    1   16   10    -12.02      0.00
    2   16   10     63.54      0.00
    3   16   10    -15.16      0.00
    4   16   10    -18.37      0.00
    5   16   10     14.79      0.00
    6   16   10    -27.40      0.00
    7   16   10     -6.44      0.00
    8   16   10      2.70      0.00
    1   17   10    -14.67      0.00
    2   17   10     17.78      0.00
    3   17   10     13.70      0.00
    4   17   10    -67.78      0.00
    5   17   10     -7.36      0.00
    6   17   10    -11.58      0.00
    7   17   10    -61.04      0.00
    8   17   10     -6.26      0.00
    0   18   10     22.06      0.00
    1   18   10    -34.80      0.00
    2   18   10    -15.22      0.00
    3   18   10     64.95      0.00
    4   18   10     26.88      0.00
    5   18   10    -34.82      0.00
    6   18   10     18.79      0.00
    7   18   10    -19.28      0.00
    8   18   10     37.59      0.00
    1   19   10     45.25      0.00
    2   19   10    -41.85      0.00
    3   19   10     -1.43      0.00
    4   19   10    -37.62      0.00
    5   19   10    -62.91      0.00
    6   19   10    -52.82      0.00
    2   20   10    -14.31      0.00
    0    1   11      3.52      0.00
    1    2   11     10.51      0.00
    0    3   11    -38.33      0.00
    1    3   11     23.07      0.00
    2    3   11     22.76      0.00
    1    4   11      7.37      0.00
    2    4   11     10.28      0.00
    3    4   11     -3.71      0.00
    0    5   11     18.20      0.00
    1    5   11     18.54      0.00
    2    5   11     13.66      0.00
    3    5   11      1.49      0.00
    4    5   11      4.15      0.00
    1    6   11     -0.11      0.00
    2    6   11    -11.92      0.00
    3    6   11      2.18      0.00
    4    6   11     -4.81      0.00
    5    6   11     11.94      0.00
    0    7   11    -32.68      0.00
    1    7   11    -23.13      0.00
    2    7   11     -0.06      0.00
    3    7   11     13.22      0.00
    4    7   11     -5.16      0.00
    5    7   11      2.85      0.00
    6    7   11      3.87      0.00
    1    8   11     -7.42      0.00
    2    8   11     -0.66      0.00
    3    8   11     10.84      0.00
    4    8   11      5.56      0.00
    5    8   11     13.55      0.00
    6    8   11     -7.13      0.00
    7    8   11      0.17      0.00
    0    9   11     31.51      0.00
    1    9   11      3.89      0.00
    2    9   11     10.24      0.00
    3    9   11     -1.60      0.00
    4    9   11      6.29      0.00
    5    9   11      7.08      0.00
    6    9   11     11.73      0.00
    7    9   11    -12.06      0.00
    8    9   11     -7.01      0.00
    1   10   11     -2.99      0.00
    2   10   11      3.46      0.00
    3   10   11    -28.81      0.00
    4   10   11     -8.39      0.00
    5   10   11     -7.59      0.00
    6   10   11     -3.02      0.00
    7   10   11    -13.58      0.00
    8   10   11     -5.35      0.00
    9   10   11    -40.25      0.00
    0   11   11     -0.50      0.00
    1   11   11     26.20      0.00
    2   11   11    -16.59      0.00
    3   11   11    -10.02      0.00
    4   11   11     20.91      0.00
    5   11   11     14.47      0.00
    6   11   11    -24.14      0.00
    7   11   11    -24.42      0.00
    8   11   11      1.55      0.00
    9   11   11      9.03      0.00
   10   11   11     -1.99      0.00
    1   12   11     14.03      0.00
    2   12   11      5.64      0.00
    3   12   11      3.85      0.00
    4   12   11     16.46      0.00
    5   12   11     28.11      0.00
    6   12   11    -34.74      0.00
    7   12   11     -9.98      0.00
    8   12   11     16.40      0.00
    9   12   11     -9.41      0.00
   10   12   11      0.63      0.00
    0   13   11    -35.37      0.00
    1   13   11    -15.67      0.00
    2   13   11     -0.37      0.00
    3   13   11     39.66      0.00
    4   13   11    -25.90      0.00
    5   13   11    -16.19      0.00
    6   13   11     12.12      0.00
    7   13   11    -23.51      0.00
    8   13   11      0.33      0.00
    9   13   11     -5.48      0.00
   10   13   11    -17.56      0.00
    1   14   11      9.82      0.00
    2   14   11      2.77      0.00
    3   14   11     26.03      0.00
    4   14   11     -0.54      0.00
    5   14   11     -4.49      0.00
    6   14   11     41.25      0.00
    7   14   11    -12.97      0.00
    8   14   11    -24.19      0.00
    9   14   11     30.22      0.00
   10   14   11     -2.19      0.00
    0   15   11      2.84      0.00
    1   15   11    -11.99      0.00
    2   15   11     -4.61      0.00
    3   15   11    -13.51      0.00
    4   15   11      3.43      0.00
    5   15   11      3.48      0.00
    6   15   11     36.40      0.00
    7   15   11    -22.36      0.00
    8   15   11    -10.90      0.00
    1   16   11    -15.83      0.00
    2   16   11    -33.53      0.00
    3   16   11    -29.24      0.00
    4   16   11      2.33      0.00
    5   16   11     10.25      0.00
    6   16   11    -11.87      0.00
    7   16   11     37.46      0.00
    8   16   11    -28.23      0.00
    0   17   11    -39.15      0.00
    1   17   11     14.84      0.00
    2   17   11     -6.41      0.00
    3   17   11      1.60      0.00
    4   17   11     19.53      0.00
    5   17   11     -3.57      0.00
    6   17   11     62.24      0.00
    7   17   11     -3.95      0.00
    8   17   11     42.15      0.00
    1   18   11     88.18      0.00
    2   18   11    189.91      0.00
    3   18   11     -5.87      0.00
    4   18   11    -15.87      0.00
    5   18   11      4.00      0.00
    6   18   11     18.49      0.00
    7   18   11     -8.51      0.00
    8   18   11      8.31      0.00
    0   19   11     66.40      0.00
    1   19   11     -8.47      0.00
    2   19   11      1.95      0.00
    3   19   11    -34.83      0.00
    4   19   11    -51.46      0.00
    5   19   11     -8.85      0.00
    0    0   12     -5.23      0.00
    1    1   12     -3.09      0.00
    0    2   12    -21.52      0.00
    1    2   12    -10.15      0.00
    2    2   12     15.21      0.00
    1    3   12     -6.42      0.00
    2    3   12     18.77      0.00
    3    3   12      5.90      0.00
    0    4   12    -11.06      0.00
    1    4   12     -2.14      0.00
    2    4   12     -6.09      0.00
    3    4   12     -6.21      0.00
    4    4   12     -6.46      0.00
    1    5   12      1.12      0.00
    2    5   12     10.03      0.00
    3    5   12     -3.89      0.00
    4    5   12    -12.60      0.00
    5    5   12      3.46      0.00
    0    6   12     12.72      0.00
    1    6   12    -10.86      0.00
    2    6   12      3.71      0.00
    3    6   12     -2.98      0.00
    4    6   12      1.69      0.00
    5    6   12      1.03      0.00
    6    6   12    -10.54      0.00
    1    7   12    -13.61      0.00
    2    7   12      0.75      0.00
    3    7   12     -1.01      0.00
    4    7   12      4.84      0.00
    5    7   12    -10.89      0.00
    6    7   12     16.50      0.00
    7    7   12     -7.14      0.00
    0    8   12     -3.78      0.00
    1    8   12      8.06      0.00
    2    8   12      4.98      0.00
    3    8   12     16.13      0.00
    4    8   12    -12.57      0.00
    5    8   12     -5.37      0.00
    6    8   12     -7.24      0.00
    7    8   12     13.51      0.00
    8    8   12     -1.00      0.00
    1    9   12      6.32      0.00
    2    9   12     -5.51      0.00
    3    9   12     -4.82      0.00
    4    9   12     18.56      0.00
    5    9   12     -0.24      0.00
    6    9   12      8.45      0.00
    7    9   12    -13.28      0.00
    8    9   12     -1.34      0.00
    9    9   12     62.43      0.00
    0   10   12      3.19      0.00
    1   10   12     -3.50      0.00
    2   10   12     -6.64      0.00
    3   10   12    -12.90      0.00
    4   10   12     -1.33      0.00
    5   10   12     -6.87      0.00
    6   10   12      0.83      0.00
    7   10   12    -14.38      0.00
    8   10   12     -2.32      0.00
    9   10   12     -9.00      0.00
   10   10   12     24.01      0.00
    1   11   12      7.62      0.00
    2   11   12    -14.46      0.00
    3   11   12     -4.69      0.00
    4   11   12    -12.54      0.00
    5   11   12     -7.93      0.00
    6   11   12     10.69      0.00
    7   11   12     37.07      0.00
    8   11   12     -7.90      0.00
    9   11   12    -17.47      0.00
   10   11   12    -25.02      0.00
    0   12   12    -17.90      0.00
    1   12   12      8.19      0.00
    2   12   12      3.86      0.00
    3   12   12    -12.19      0.00
    4   12   12     -1.16      0.00
    5   12   12    -16.85      0.00
    7   12   12    -12.17      0.00
    8   12   12      7.42      0.00
    9   12   12    -13.29      0.00
   10   12   12     -3.47      0.00
    1   13   12    -43.76      0.00
    2   13   12     22.05      0.00
    3   13   12     18.61      0.00
    4   13   12    -42.57      0.00
    5   13   12    -12.59      0.00
    6   13   12    -12.24      0.00
    7   13   12     -0.33      0.00
    8   13   12     15.37      0.00
    9   13   12     11.81      0.00
   10   13   12      1.50      0.00
    0   14   12     -7.76      0.00
    1   14   12     -2.49      0.00
    2   14   12     -9.32      0.00
    3   14   12     -9.08      0.00
    4   14   12    -12.92      0.00
    5   14   12     -0.45      0.00
    6   14   12     27.01      0.00
    7   14   12    -59.19      0.00
    8   14   12     11.91      0.00
    9   14   12    -10.82      0.00
   10   14   12    -21.76      0.00
    1   15   12      1.45      0.00
    2   15   12    -25.37      0.00
    3   15   12    -32.24      0.00
    4   15   12     12.50      0.00
    5   15   12    -22.28      0.00
    6   15   12      9.82      0.00
    7   15   12     -4.76      0.00
    8   15   12    -25.62      0.00
    9   15   12     -3.43      0.00
    0   16   12    -19.25      0.00
    1   16   12     -2.57      0.00
    2   16   12     19.56      0.00
    3   16   12     11.91      0.00
    4   16   12      9.39      0.00
    5   16   12    -14.51      0.00
    6   16   12     20.96      0.00
    7   16   12     25.48      0.00
    9   16   12      3.65      0.00
    1   17   12     11.15      0.00
    2   17   12    -26.33      0.00
    3   17   12    -20.30      0.00
    4   17   12      5.92      0.00
    5   17   12     -3.73      0.00
    6   17   12     12.93      0.00
    7   17   12    -31.86      0.00
    8   17   12     36.80      0.00
    9   17   12    -15.74      0.00
    0   18   12    -26.58      0.00
    1   18   12     -9.36      0.00
    2   18   12    -33.92      0.00
    3   18   12    -36.94      0.00
    4   18   12     13.06      0.00
    5   18   12     -4.92      0.00
    6   18   12     37.08      0.00
    7   18   12     39.93      0.00
    8   18   12     -0.65      0.00
    1   19   12    -28.34      0.00
    2   19   12    -14.76      0.00
    3   19   12     15.87      0.00
    4   19   12     43.03      0.00
    5   19   12    -21.56      0.00
    0    1   13     10.05      0.00
    1    2   13    -21.25      0.00
    0    3   13    -22.93      0.00
    1    3   13      6.78      0.00
    2    3   13    -22.61      0.00
    1    4   13     19.01      0.00
    2    4   13      1.86      0.00
    3    4   13      5.11      0.00
    0    5   13      7.25      0.00
    1    5   13    -18.58      0.00
    2    5   13      1.36      0.00
    3    5   13     -4.19      0.00
    4    5   13    -14.79      0.00
    1    6   13    -14.74      0.00
    2    6   13    -15.20      0.00
    3    6   13     -2.17      0.00
    4    6   13     -1.66      0.00
    5    6   13    -10.69      0.00
    0    7   13     -4.64      0.00
    1    7   13     10.83      0.00
    2    7   13      2.10      0.00
    3    7   13     -3.86      0.00
    4    7   13      6.44      0.00
    5    7   13     -4.16      0.00
    6    7   13      3.64      0.00
    1    8   13     -2.81      0.00
    2    8   13     11.41      0.00
    3    8   13     -8.65      0.00
    4    8   13    -12.24      0.00
    5    8   13      4.19      0.00
    6    8   13     -0.16      0.00
    7    8   13      1.94      0.00
    0    9   13    -17.94      0.00
    1    9   13      6.01      0.00
    2    9   13     -4.98      0.00
    3    9   13     -3.64      0.00
    4    9   13     -6.07      0.00
    5    9   13      0.73      0.00
    6    9   13     -9.54      0.00
    7    9   13      1.55      0.00
    8    9   13     -1.28      0.00
    1   10   13    -14.94      0.00
    2   10   13     -4.97      0.00
    3   10   13     -0.87      0.00
    4   10   13     -7.52      0.00
    5   10   13     -1.85      0.00
    6   10   13     -6.04      0.00
    7   10   13      2.56      0.00
    8   10   13     27.17      0.00
    9   10   13     18.45      0.00
    0   11   13      5.91      0.00
    1   11   13      4.41      0.00
    2   11   13     -7.82      0.00
    3   11   13     -4.62      0.00
    4   11   13     -3.59      0.00
    5   11   13     25.18      0.00
    6   11   13    -23.51      0.00
    7   11   13     15.73      0.00
    8   11   13      1.63      0.00
    9   11   13     -9.61      0.00
   10   11   13     12.43      0.00
    1   12   13      5.09      0.00
    2   12   13      1.92      0.00
    3   12   13    -11.19      0.00
    4   12   13     19.15      0.00
    6   12   13     42.87      0.00
    7   12   13      0.96      0.00
    8   12   13     10.68      0.00
    9   12   13     11.62      0.00
   10   12   13     11.57      0.00
    0   13   13     -3.02      0.00
    1   13   13    -12.46      0.00
    2   13   13     10.85      0.00
    3   13   13     -4.37      0.00
    4   13   13    -28.85      0.00
    5   13   13      1.77      0.00
    6   13   13     12.00      0.00
    7   13   13     -8.86      0.00
    8   13   13    -14.83      0.00
    9   13   13      6.26      0.00
   10   13   13     -4.68      0.00
    1   14   13    -10.54      0.00
    2   14   13      6.18      0.00
    3   14   13      5.60      0.00
    4   14   13      9.39      0.00
    5   14   13     11.22      0.00
    6   14   13     30.95      0.00
    7   14   13      4.66      0.00
    8   14   13     19.75      0.00
    9   14   13     -1.07      0.00
   10   14   13     -3.60      0.00
    0   15   13     -5.62      0.00
    1   15   13    -11.64      0.00
    2   15   13    -24.76      0.00
    3   15   13     46.89      0.00
    4   15   13     -0.87      0.00
    5   15   13     13.30      0.00
    6   15   13     -3.74      0.00
    7   15   13     22.61      0.00
    8   15   13      2.33      0.00
    9   15   13     -5.76      0.00
    1   16   13     -4.55      0.00
    2   16   13    -17.32      0.00
    3   16   13    -39.57      0.00
    4   16   13     -0.78      0.00
    5   16   13    -34.54      0.00
    6   16   13    -23.35      0.00
    7   16   13     -5.66      0.00
    8   16   13     13.12      0.00
    9   16   13     -5.65      0.00
    0   17   13     -5.59      0.00
    1   17   13    -17.19      0.00
    2   17   13      7.69      0.00
    3   17   13    -27.53      0.00
    4   17   13     -3.10      0.00
    5   17   13     41.47      0.00
    6   17   13    -19.82      0.00
    7   17   13      0.32      0.00
    8   17   13     19.36      0.00
    9   17   13     12.13      0.00
    1   18   13    -39.49      0.00
    2   18   13     11.84      0.00
    3   18   13     13.46      0.00
    4   18   13      1.95      0.00
    5   18   13    -27.74      0.00
    6   18   13     -4.71      0.00
    7   18   13      5.54      0.00
    8   18   13     39.54      0.00
    0   19   13    -26.53      0.00
    1   19   13    -22.87      0.00
    2   19   13    -20.40      0.00
    3   19   13      8.34      0.00
    4   19   13     24.54      0.00
    0    0   14     13.08      0.00
    1    1   14      7.19      0.00
    0    2   14    -15.47      0.00
    1    2   14      1.09      0.00
    2    2   14      7.00      0.00
    1    3   14     -8.62      0.00
    2    3   14     12.80      0.00
    3    3   14     -7.93      0.00
    0    4   14     -2.64      0.00
    1    4   14     -9.75      0.00
    2    4   14    -12.25      0.00
    3    4   14      3.08      0.00
    4    4   14     -6.62      0.00
    1    5   14     10.03      0.00
    2    5   14    -14.89      0.00
    3    5   14     -6.95      0.00
    4    5   14     -3.77      0.00
    5    5   14     -1.55      0.00
    0    6   14     -4.71      0.00
    1    6   14      1.76      0.00
    2    6   14      1.20      0.00
    3    6   14      0.00      0.00
    4    6   14     -4.00      0.00
    5    6   14      3.84      0.00
    6    6   14     14.14      0.00
    1    7   14     -1.06      0.00
    2    7   14     -4.82      0.00
    3    7   14     -5.35      0.00
    4    7   14      6.16      0.00
    5    7   14     -9.67      0.00
    6    7   14     -7.89      0.00
    7    7   14      0.29      0.00
    0    8   14      8.07      0.00
    1    8   14      1.29      0.00
    2    8   14      4.73      0.00
    3    8   14     -0.11      0.00
    4    8   14     13.03      0.00
    5    8   14     -6.52      0.00
    6    8   14      1.68      0.00
    7    8   14     10.08      0.00
    1    9   14     10.47      0.00
    2    9   14      2.96      0.00
    3    9   14      1.81      0.00
    4    9   14      7.73      0.00
    5    9   14     -3.39      0.00
    6    9   14     -0.92      0.00
    7    9   14     -2.50      0.00
    8    9   14     11.66      0.00
    9    9   14    -24.76      0.00
    0   10   14    -24.11      0.00
    1   10   14     13.55      0.00
    2   10   14    -17.85      0.00
    3   10   14     21.43      0.00
    4   10   14      2.01      0.00
    5   10   14      4.51      0.00
    6   10   14      3.41      0.00
    7   10   14    -12.28      0.00
    8   10   14    -11.85      0.00
    9   10   14     -3.48      0.00
   10   10   14    -12.79      0.00
    1   11   14      9.69      0.00
    2   11   14    -19.63      0.00
    3   11   14    -10.85      0.00
    4   11   14     25.74      0.00
    5   11   14     -3.74      0.00
    6   11   14    -10.02      0.00
    7   11   14      9.17      0.00
    8   11   14     -0.47      0.00
    9   11   14    -10.73      0.00
   10   11   14     -5.25      0.00
    0   12   14     -3.50      0.00
    1   12   14      0.13      0.00
    2   12   14     -0.31      0.00
    3   12   14     22.61      0.00
    5   12   14     26.19      0.00
    6   12   14    -19.65      0.00
    7   12   14     39.99      0.00
    8   12   14      2.87      0.00
    9   12   14    -14.79      0.00
   10   12   14     -1.58      0.00
   11   12   14      6.08      0.00
    1   13   14      5.30      0.00
    2   13   14      1.65      0.00
    3   13   14      7.80      0.00
    4   13   14    -13.64      0.00
    5   13   14    -15.15      0.00
    6   13   14      9.98      0.00
    7   13   14    -19.48      0.00
    8   13   14     26.36      0.00
    9   13   14     19.57      0.00
   10   13   14      0.65      0.00
   11   13   14    -11.79      0.00
    0   14   14      1.79      0.00
    1   14   14      4.66      0.00
    2   14   14      9.39      0.00
    3   14   14    -20.08      0.00
    4   14   14     16.55      0.00
    5   14   14     26.57      0.00
    6   14   14      3.05      0.00
    7   14   14     -6.29      0.00
    8   14   14     -7.26      0.00
    9   14   14      5.49      0.00
   10   14   14    -20.83      0.00
   11   14   14     17.14      0.00
    1   15   14     29.96      0.00
    2   15   14     65.50      0.00
    3   15   14     23.63      0.00
    4   15   14    -25.38      0.00
    5   15   14      1.43      0.00
    6   15   14     16.99      0.00
    7   15   14     -7.04      0.00
    8   15   14    -11.74      0.00
    0   16   14      8.53      0.00
    1   16   14    -19.94      0.00
    2   16   14      0.06      0.00
    3   16   14     61.35      0.00
    4   16   14     12.23      0.00
    5   16   14    -11.64      0.00
    6   16   14    -15.29      0.00
    7   16   14     20.48      0.00
    8   16   14     39.05      0.00
    9   16   14     31.47      0.00
    1   17   14     -9.20      0.00
    2   17   14     -6.62      0.00
    3   17   14    -10.67      0.00
    4   17   14    -15.76      0.00
    5   17   14      2.10      0.00
    6   17   14     29.92      0.00
    7   17   14    -11.02      0.00
    8   17   14     -6.81      0.00
    9   17   14    -15.07      0.00
    0   18   14     23.80      0.00
    1   18   14     -4.16      0.00
    2   18   14    -30.66      0.00
    3   18   14    -26.25      0.00
    4   18   14     17.05      0.00
    5   18   14      2.04      0.00
    6   18   14     36.28      0.00
    7   18   14    -21.65      0.00
    8   18   14    -29.51      0.00
    1   19   14    -19.39      0.00
    2   19   14     -6.96      0.00
    3   19   14     25.19      0.00
    0    1   15    -22.71      0.00
    1    2   15      8.86      0.00
    0    3   15      2.42      0.00
    1    3   15      8.66      0.00
    2    3   15     24.92      0.00
    1    4   15     -1.14      0.00
    2    4   15      3.39      0.00
    3    4   15      1.69      0.00
    0    5   15     17.82      0.00
    1    5   15      9.03      0.00
    2    5   15     -7.60      0.00
    3    5   15      9.17      0.00
    4    5   15     10.93      0.00
    1    6   15      4.12      0.00
    2    6   15      6.37      0.00
    3    6   15     -2.13      0.00
    4    6   15     -4.02      0.00
    5    6   15      2.50      0.00
    0    7   15     -1.42      0.00
    1    7   15     10.68      0.00
    2    7   15      3.02      0.00
    3    7   15      6.45      0.00
    4    7   15     -3.13      0.00
    5    7   15    -11.55      0.00
    6    7   15     10.19      0.00
    1    8   15     10.49      0.00
    2    8   15     -5.31      0.00
    3    8   15     -4.55      0.00
    4    8   15      3.60      0.00
    5    8   15      6.96      0.00
    6    8   15     15.15      0.00
    0    9   15     10.30      0.00
    1    9   15     -1.46      0.00
    2    9   15      8.08      0.00
    3    9   15    -10.01      0.00
    4    9   15      3.98      0.00
    5    9   15      1.64      0.00
    6    9   15      9.16      0.00
    7    9   15     -8.10      0.00
    8    9   15     -8.40      0.00
    1   10   15      6.15      0.00
    2   10   15      7.44      0.00
    3   10   15     31.36      0.00
    4   10   15      0.25      0.00
    5   10   15     17.82      0.00
    6   10   15     -6.93      0.00
    7   10   15      6.06      0.00
    8   10   15     -7.01      0.00
    9   10   15      5.68      0.00
    0   11   15     12.68      0.00
    1   11   15      9.09      0.00
    2   11   15     10.93      0.00
    3   11   15    -16.29      0.00
    4   11   15     -6.19      0.00
    5   11   15    -18.80      0.00
    6   11   15      0.21      0.00
    7   11   15     -6.01      0.00
    8   11   15      8.53      0.00
    9   11   15     -7.29      0.00
   10   11   15     -9.63      0.00
    1   12   15     -3.71      0.00
    2   12   15      6.12      0.00
    4   12   15     -1.46      0.00
    5   12   15     -9.08      0.00
    6   12   15      6.23      0.00
    7   12   15     23.38      0.00
    8   12   15     13.06      0.00
    9   12   15    -20.08      0.00
   10   12   15     17.06      0.00
   11   12   15    -26.65      0.00
    0   13   15     22.66      0.00
    1   13   15    -10.13      0.00
    2   13   15     23.41      0.00
    3   13   15     24.41      0.00
    4   13   15     -3.72      0.00
    5   13   15    -25.03      0.00
    6   13   15      8.68      0.00
    7   13   15    -35.36      0.00
    8   13   15      6.86      0.00
    9   13   15    -10.09      0.00
   10   13   15     -2.29      0.00
   11   13   15     44.61      0.00
    1   14   15      2.22      0.00
    2   14   15     -4.41      0.00
    3   14   15      3.54      0.00
    4   14   15     19.38      0.00
    5   14   15    -16.35      0.00
    6   14   15     20.91      0.00
    7   14   15     14.07      0.00
    8   14   15     -0.56      0.00
    9   14   15    -17.27      0.00
   10   14   15     -6.60      0.00
   11   14   15     24.86      0.00
    0   15   15     -4.21      0.00
    1   15   15     14.08      0.00
    2   15   15    -18.86      0.00
    3   15   15    -26.94      0.00
    4   15   15      9.07      0.00
    5   15   15     -7.12      0.00
    6   15   15     -3.85      0.00
    7   15   15     -4.88      0.00
   10   15   15    -17.37      0.00
   11   15   15    -33.99      0.00
    1   16   15     12.73      0.00
    2   16   15     -2.54      0.00
    3   16   15    -23.38      0.00
    4   16   15     21.42      0.00
    5   16   15     14.33      0.00
    6   16   15   -116.76      0.00
    7   16   15    -17.57      0.00
    8   16   15      8.72      0.00
    0   17   15     20.37      0.00
    1   17   15     99.15      0.00
    2   17   15    169.62      0.00
    3   17   15    -19.13      0.00
    4   17   15    -30.01      0.00
    5   17   15     -2.88      0.00
    6   17   15    -23.92      0.00
    7   17   15      6.01      0.00
    8   17   15    -13.64      0.00
    1   18   15      4.56      0.00
    2   18   15    -28.06      0.00
    3   18   15    -28.69      0.00
    4   18   15    -17.67      0.00
    5   18   15     -1.89      0.00
    6   18   15     -7.11      0.00
    7   18   15    -13.04      0.00
    8   18   15     49.03      0.00
    1    1   16     19.56      0.00
    0    2   16     -9.66      0.00
    1    2   16     -1.68      0.00
    2    2   16     -6.77      0.00
    1    3   16      2.02      0.00
    2    3   16      2.79      0.00
    3    3   16      5.76      0.00
    0    4   16     -1.54      0.00
    1    4   16     -2.77      0.00
    2    4   16     -1.62      0.00
    3    4   16      9.55      0.00
    4    4   16     28.74      0.00
    1    5   16      9.34      0.00
    2    5   16      0.22      0.00
    3    5   16     -7.92      0.00
    4    5   16      8.59      0.00
    5    5   16     20.07      0.00
    0    6   16     -9.46      0.00
    1    6   16     -4.31      0.00
    2    6   16      2.25      0.00
    3    6   16      0.61      0.00
    4    6   16     -3.88      0.00
    5    6   16     12.38      0.00
    6    6   16    -12.97      0.00
    1    7   16     -2.30      0.00
    2    7   16     -2.35      0.00
    3    7   16     18.35      0.00
    4    7   16     -4.30      0.00
    5    7   16     -2.66      0.00
    6    7   16     30.48      0.00
    0    8   16      0.97      0.00
    1    8   16     15.36      0.00
    2    8   16      5.03      0.00
    3    8   16    -13.67      0.00
    4    8   16     15.43      0.00
    5    8   16      1.27      0.00
    7    8   16     11.62      0.00
    8    8   16    -21.14      0.00
    1    9   16      7.92      0.00
    2    9   16     -4.89      0.00
    3    9   16      4.83      0.00
    4    9   16    -20.04      0.00
    5    9   16    -12.50      0.00
    6    9   16     -8.18      0.00
    7    9   16     20.03      0.00
    8    9   16      2.83      0.00
    9    9   16     -5.07      0.00
    0   10   16    -18.44      0.00
    1   10   16     15.69      0.00
    2   10   16     -0.16      0.00
    3   10   16     -8.24      0.00
    4   10   16     22.82      0.00
    5   10   16     -2.22      0.00
    6   10   16      4.40      0.00
    7   10   16     -1.32      0.00
    8   10   16     12.41      0.00
    9   10   16      7.88      0.00
   10   10   16     20.23      0.00
    1   11   16      4.97      0.00
    2   11   16    -33.88      0.00
    3   11   16     21.89      0.00
    4   11   16    -25.48      0.00
    5   11   16     -6.33      0.00
    6   11   16     -9.71      0.00
    7   11   16    -14.26      0.00
    8   11   16     -2.89      0.00
    9   11   16      8.82      0.00
   10   11   16    -11.52      0.00
   11   11   16      3.08      0.00
    0   12   16    -30.01      0.00
    1   12   16     -2.11      0.00
    2   12   16      4.73      0.00
    3   12   16     29.27      0.00
    4   12   16      8.67      0.00
    5   12   16     15.96      0.00
    6   12   16     26.40      0.00
    7   12   16     22.09      0.00
    8   12   16    -29.11      0.00
    9   12   16    -32.82      0.00
   10   12   16    -12.88      0.00
   11   12   16     20.24      0.00
    1   13   16     11.07      0.00
    2   13   16    -16.87      0.00
    3   13   16     13.55      0.00
    4   13   16    -19.20      0.00
    5   13   16    -17.64      0.00
    6   13   16    -65.68      0.00
    7   13   16     16.64      0.00
    8   13   16     10.23      0.00
    9   13   16      0.68      0.00
   10   13   16      5.50      0.00
   11   13   16    -32.73      0.00
    0   14   16     24.09      0.00
    1   14   16    -14.09      0.00
    2   14   16     -9.75      0.00
    3   14   16    -50.65      0.00
    4   14   16    -17.45      0.00
    5   14   16      2.76      0.00
    6   14   16     10.33      0.00
    7   14   16     15.89      0.00
    8   14   16      7.87      0.00
    9   14   16      5.13      0.00
   10   14   16    -16.10      0.00
   11   14   16    -19.11      0.00
    1   15   16      1.44      0.00
    2   15   16     -0.64      0.00
    3   15   16     -5.38      0.00
    4   15   16    -30.09      0.00
    5   15   16     36.25      0.00
    6   15   16     17.89      0.00
    8   15   16    -16.99      0.00
    9   15   16    -23.91      0.00
   10   15   16     -7.62      0.00
   11   15   16     11.16      0.00
    0   16   16    -19.62      0.00
    1   16   16     -8.60      0.00
    2   16   16     -1.64      0.00
    3   16   16     46.50      0.00
    4   16   16      9.78      0.00
    6   16   16     -1.26      0.00
    7   16   16    -35.76      0.00
    1   17   16    -37.40      0.00
    2   17   16    -47.56      0.00
    3   17   16    -12.62      0.00
    4   17   16     39.96      0.00
    5   17   16      0.93      0.00
    6   17   16    -23.03      0.00
    7   17   16     29.85      0.00
    0   18   16     13.68      0.00
    1   18   16      1.40      0.00
    2   18   16    -33.61      0.00
    3   18   16     14.42      0.00
    4   18   16     23.06      0.00
    5   18   16    -19.05      0.00
    6   18   16     -0.94      0.00
    7   18   16      0.82      0.00
    0    1   17    -16.95      0.00
    1    2   17      4.46      0.00
    0    3   17      4.38      0.00
    1    3   17     14.18      0.00
    2    3   17      6.80      0.00
    1    4   17      3.05      0.00
    2    4   17    -18.19      0.00
    3    4   17    -12.86      0.00
    0    5   17     -4.41      0.00
    1    5   17     -1.17      0.00
    2    5   17     -1.42      0.00
    3    5   17    -13.07      0.00
    4    5   17     18.52      0.00
    1    6   17    -12.98      0.00
    2    6   17      5.13      0.00
    3    6   17     -2.39      0.00
    4    6   17     16.27      0.00
    5    6   17     -0.76      0.00
    0    7   17     14.18      0.00
    1    7   17     -2.84      0.00
    2    7   17    -11.98      0.00
    3    7   17     -4.67      0.00
    4    7   17      6.11      0.00
    5    7   17    -12.47      0.00
    1    8   17      0.95      0.00
    2    8   17      1.75      0.00
    3    8   17    -19.51      0.00
    4    8   17     -3.62      0.00
    6    8   17    -11.43      0.00
    7    8   17     23.93      0.00
    0    9   17    -11.40      0.00
    1    9   17     -0.31      0.00
    2    9   17    -12.46      0.00
    3    9   17      5.24      0.00
    4    9   17    -55.64      0.00
    5    9   17     14.64      0.00
    6    9   17      4.91      0.00
    7    9   17     15.86      0.00
    8    9   17     -1.85      0.00
    1   10   17      5.05      0.00
    2   10   17    -16.66      0.00
    3   10   17    -11.02      0.00
    4   10   17      7.26      0.00
    5   10   17    -21.19      0.00
    6   10   17    -22.81      0.00
    7   10   17      0.75      0.00
    8   10   17    -12.47      0.00
    9   10   17    -10.68      0.00
    1   11   17     -1.73      0.00
    2   11   17     -5.68      0.00
    3   11   17     -7.03      0.00
    4   11   17     22.14      0.00
    5   11   17     11.65      0.00
    6   11   17      1.61      0.00
    7   11   17    -19.32      0.00
    8   11   17     11.20      0.00
    9   11   17    -19.78      0.00
   10   11   17     15.69      0.00
    1   12   17      3.74      0.00
    2   12   17     10.02      0.00
    3   12   17    -19.62      0.00
    4   12   17     -2.67      0.00
    5   12   17    -14.77      0.00
    6   12   17     12.11      0.00
    7   12   17    -57.96      0.00
    8   12   17    -28.33      0.00
    9   12   17      0.25      0.00
   10   12   17      7.09      0.00
   11   12   17     -6.23      0.00
    0   13   17     33.62      0.00
    1   13   17     -4.63      0.00
    2   13   17    -19.78      0.00
    3   13   17      2.42      0.00
    4   13   17      0.42      0.00
    5   13   17    -73.08      0.00
    6   13   17      2.46      0.00
    7   13   17    -23.91      0.00
    8   13   17     40.19      0.00
    9   13   17     -8.04      0.00
   10   13   17     63.87      0.00
   11   13   17    -29.41      0.00
    1   14   17    -40.73      0.00
    2   14   17     -4.12      0.00
    3   14   17     -5.15      0.00
    4   14   17     15.18      0.00
    5   14   17     -7.50      0.00
    6   14   17     15.76      0.00
    7   14   17      3.99      0.00
    8   14   17      3.75      0.00
    9   14   17      4.51      0.00
   10   14   17      4.26      0.00
   11   14   17     -7.18      0.00
    0   15   17     -8.13      0.00
    1   15   17    -12.27      0.00
    2   15   17    -17.17      0.00
    3   15   17     11.79      0.00
    4   15   17     28.62      0.00
    5   15   17    -13.32      0.00
    6   15   17     -6.17      0.00
    7   15   17     24.22      0.00
    8   15   17     23.76      0.00
    9   15   17    -17.23      0.00
   10   15   17    -11.67      0.00
   11   15   17     -7.23      0.00
    1   16   17    -12.35      0.00
    2   16   17    -23.02      0.00
    3   16   17    -30.75      0.00
    4   16   17    -59.43      0.00
    5   16   17     13.90      0.00
    6   16   17    -14.29      0.00
    0   17   17     33.34      0.00
    1   17   17    -16.84      0.00
    2   17   17    -13.26      0.00
    3   17   17     -3.31      0.00
    4   17   17     23.30      0.00
    5   17   17     -9.36      0.00
    6   17   17    -23.51      0.00
    1   18   17    -26.49      0.00
    2   18   17    -34.48      0.00
    3   18   17     -6.30      0.00
    4   18   17    -12.66      0.00
    5   18   17     -0.90      0.00
    6   18   17     38.61      0.00
    1    1   18    -17.03      0.00
    0    2   18    -30.36      0.00
    1    2   18     -2.26      0.00
    2    2   18      7.73      0.00
    1    3   18      4.59      0.00
    2    3   18      8.67      0.00
    3    3   18    -22.97      0.00
    0    4   18     -8.48      0.00
    1    4   18    -12.80      0.00
    2    4   18     -7.48      0.00
    3    4   18     -8.57      0.00
    4    4   18     -5.19      0.00
    1    5   18     -3.60      0.00
    2    5   18     -3.18      0.00
    3    5   18     -1.14      0.00
    4    5   18      7.90      0.00
    5    5   18      1.85      0.00
    0    6   18    -20.11      0.00
    1    6   18     -0.74      0.00
    2    6   18     12.94      0.00
    3    6   18     -9.87      0.00
    4    6   18    -27.10      0.00
    5    6   18    -17.73      0.00
    1    7   18     -5.16      0.00
    2    7   18      0.54      0.00
    3    7   18      0.70      0.00
    4    7   18      1.60      0.00
    6    7   18      5.96      0.00
    7    7   18     -6.11      0.00
    0    8   18    -15.24      0.00
    1    8   18     -8.89      0.00
    2    8   18      4.09      0.00
    3    8   18      7.21      0.00
    5    8   18     20.54      0.00
    6    8   18     -1.05      0.00
    7    8   18     -5.10      0.00
    8    8   18      1.79      0.00
    1    9   18     -2.23      0.00
    2    9   18     -1.46      0.00
    3    9   18     10.21      0.00
    4    9   18     21.74      0.00
    5    9   18    -25.41      0.00
    6    9   18      6.45      0.00
    7    9   18     -9.61      0.00
    8    9   18      5.10      0.00
    9    9   18    -17.22      0.00
    0   10   18      6.93      0.00
    1   10   18      5.20      0.00
    2   10   18    -11.35      0.00
    3   10   18     30.72      0.00
    4   10   18     -1.12      0.00
    5   10   18     10.13      0.00
    6   10   18     23.94      0.00
    7   10   18    -17.78      0.00
    8   10   18    -15.68      0.00
    9   10   18     35.51      0.00
   10   10   18    -18.22      0.00
    1   11   18     -1.12      0.00
    2   11   18     -3.19      0.00
    3   11   18     -3.59      0.00
    4   11   18     15.26      0.00
    5   11   18     -2.23      0.00
    6   11   18    -32.72      0.00
    7   11   18     -1.73      0.00
    8   11   18     26.53      0.00
    9   11   18     -6.15      0.00
   10   11   18      1.82      0.00
   11   11   18     -7.95      0.00
    0   12   18      8.27      0.00
    1   12   18      7.94      0.00
    2   12   18    -11.13      0.00
    3   12   18     14.43      0.00
    4   12   18     -0.56      0.00
    5   12   18     10.26      0.00
    6   12   18     10.24      0.00
    7   12   18     11.01      0.00
    8   12   18      3.14      0.00
    9   12   18      4.82      0.00
   10   12   18     12.47      0.00
   11   12   18     -5.03      0.00
   12   12   18    -14.99      0.00
    1   13   18      4.56      0.00
    2   13   18    -20.58      0.00
    3   13   18      2.44      0.00
    4   13   18     -3.56      0.00
    5   13   18     12.81      0.00
    6   13   18     11.88      0.00
    7   13   18     18.60      0.00
    8   13   18     -8.93      0.00
    9   13   18     -9.44      0.00
   10   13   18    -35.00      0.00
   11   13   18    -14.18      0.00
   12   13   18     37.49      0.00
    0   14   18     -7.65      0.00
    1   14   18     -0.65      0.00
    2   14   18     12.36      0.00
    3   14   18      1.43      0.00
    4   14   18      7.95      0.00
    5   14   18     29.00      0.00
    6   14   18    -11.13      0.00
    7   14   18     32.63      0.00
    8   14   18    -47.59      0.00
    9   14   18     12.44      0.00
   10   14   18      7.36      0.00
   11   14   18      7.91      0.00
    1   15   18     -0.50      0.00
    2   15   18     -9.81      0.00
    3   15   18    -25.96      0.00
    4   15   18     18.11      0.00
    5   15   18     37.84      0.00
    6   15   18    -17.86      0.00
    7   15   18      0.62      0.00
    8   15   18      5.44      0.00
    9   15   18     -9.69      0.00
   10   15   18      7.58      0.00
   11   15   18     13.94      0.00
    0   16   18   -108.87      0.00
    1   16   18    111.87      0.00
    2   16   18    111.29      0.00
    3   16   18      5.09      0.00
    4   16   18    -25.31      0.00
    1   17   18     30.54      0.00
    2   17   18    -16.01      0.00
    3   17   18    -44.99      0.00
    4   17   18     13.58      0.00
    5   17   18     -4.43      0.00
    0   18   18     11.17      0.00
    1   18   18    -23.23      0.00
    2   18   18    -11.18      0.00
    3   18   18     -4.86      0.00
    4   18   18     -0.31      0.00
    5   18   18     19.47      0.00
    0    1   19     -8.85      0.00
    1    2   19      2.32      0.00
    0    3   19     12.37      0.00
    1    3   19     -0.20      0.00
    2    3   19     -2.57      0.00
    1    4   19      6.49      0.00
    2    4   19      4.80      0.00
    3    4   19      2.36      0.00
    0    5   19    -13.32      0.00
    1    5   19      6.72      0.00
    2    5   19      0.90      0.00
    3    5   19     -3.65      0.00
    4    5   19    -16.90      0.00
    1    6   19      1.89      0.00
    2    6   19     -6.02      0.00
    3    6   19     -2.54      0.00
    4    6   19     21.13      0.00
    0    7   19      6.08      0.00
    1    7   19     -8.25      0.00
    2    7   19     -6.33      0.00
    3    7   19      6.48      0.00
    5    7   19      8.61      0.00
    6    7   19    -14.36      0.00
    1    8   19     10.65      0.00
    2    8   19     10.19      0.00
    3    8   19      4.47      0.00
    4    8   19    -47.31      0.00
    5    8   19     12.89      0.00
    6    8   19    -16.00      0.00
    7    8   19     -6.27      0.00
    0    9   19      6.70      0.00
    1    9   19     -4.35      0.00
    2    9   19     -0.28      0.00
    3    9   19     10.45      0.00
    4    9   19      6.31      0.00
    5    9   19     11.37      0.00
    6    9   19     17.46      0.00
    7    9   19      5.53      0.00
    8    9   19     -8.25      0.00
    1   10   19      6.63      0.00
    2   10   19    -13.23      0.00
    3   10   19     10.34      0.00
    4   10   19     -4.94      0.00
    5   10   19     -3.88      0.00
    6   10   19    -12.86      0.00
    7   10   19    -12.40      0.00
    8   10   19     13.99      0.00
    9   10   19     15.31      0.00
    0   11   19      8.67      0.00
    1   11   19      6.33      0.00
    2   11   19    -11.77      0.00
    3   11   19     -0.20      0.00
    4   11   19      6.53      0.00
    5   11   19    -13.81      0.00
    6   11   19     25.90      0.00
    7   11   19     42.75      0.00
    8   11   19    -11.47      0.00
    9   11   19     11.08      0.00
   10   11   19      2.38      0.00
    1   12   19     -3.09      0.00
    2   12   19      8.97      0.00
    3   12   19    -10.15      0.00
    4   12   19     15.99      0.00
    5   12   19    -52.57      0.00
    6   12   19     12.93      0.00
    7   12   19     26.97      0.00
    8   12   19     56.51      0.00
    9   12   19    -16.82      0.00
   10   12   19     49.96      0.00
   11   12   19    -12.50      0.00
    0   13   19     -6.15      0.00
    1   13   19     45.07      0.00
    2   13   19     24.42      0.00
    3   13   19      7.24      0.00
    4   13   19     -1.97      0.00
    5   13   19     12.07      0.00
    6   13   19     33.43      0.00
    7   13   19      5.75      0.00
    8   13   19      7.72      0.00
    9   13   19     -6.60      0.00
   10   13   19     12.87      0.00
   11   13   19     19.19      0.00
   12   13   19      4.15      0.00
    1   14   19    -16.52      0.00
    2   14   19      8.78      0.00
    3   14   19      5.58      0.00
    4   14   19      1.97      0.00
    5   14   19     62.72      0.00
    6   14   19     18.81      0.00
    7   14   19   -120.02      0.00
    8   14   19     26.66      0.00
    9   14   19      8.85      0.00
   10   14   19     14.31      0.00
   11   14   19    -21.66      0.00
    0   15   19     30.35      0.00
    1   15   19    -17.68      0.00
    2   15   19    -15.25      0.00
    3   15   19     37.86      0.00
    4   15   19      5.45      0.00
    5   15   19     -1.13      0.00
    6   15   19     -5.68      0.00
    7   15   19     16.04      0.00
    8   15   19     27.58      0.00
    9   15   19      4.08      0.00
   10   15   19      7.61      0.00
    1   16   19     21.28      0.00
    2   16   19    -20.91      0.00
    3   16   19     11.12      0.00
    0   17   19      2.80      0.00
    1   17   19     -2.20      0.00
    2   17   19    -20.52      0.00
    3   17   19     19.40      0.00
    1   18   19     -5.00      0.00
    2   18   19     -7.10      0.00
    3   18   19     25.89      0.00
    1    1   20    -18.10      0.00
    0    2   20      5.34      0.00
    1    2   20      7.58      0.00
    2    2   20      9.53      0.00
    1    3   20     -5.10      0.00
    2    3   20     17.67      0.00
    3    3   20      8.84      0.00
    0    4   20      2.62      0.00
    1    4   20      8.07      0.00
    2    4   20      8.06      0.00
    3    4   20    -22.28      0.00
    4    4   20     -5.12      0.00
    1    5   20      2.65      0.00
    2    5   20     -5.27      0.00
    3    5   20      0.59      0.00
    4    5   20     14.87      0.00
    0    6   20    -11.23      0.00
    1    6   20      2.86      0.00
    2    6   20     16.92      0.00
    3    6   20     14.65      0.00
    5    6   20     -0.69      0.00
    6    6   20     12.22      0.00
    1    7   20     23.80      0.00
    2    7   20     10.03      0.00
    3    7   20     11.00      0.00
    4    7   20     -5.00      0.00
    5    7   20     20.59      0.00
    6    7   20    -17.60      0.00
    7    7   20     -5.35      0.00
    0    8   20      6.20      0.00
    1    8   20      2.42      0.00
    2    8   20    -33.83      0.00
    3    8   20      6.77      0.00
    4    8   20     11.80      0.00
    5    8   20    -14.09      0.00
    6    8   20     20.65      0.00
    7    8   20     -6.74      0.00
    8    8   20    -29.81      0.00
    1    9   20    -13.31      0.00
    2    9   20     -2.78      0.00
    3    9   20      0.98      0.00
    4    9   20     -0.22      0.00
    5    9   20     -8.92      0.00
    6    9   20     13.88      0.00
    7    9   20     -8.56      0.00
    8    9   20     -3.23      0.00
    9    9   20     21.39      0.00
    0   10   20    -15.05      0.00
    1   10   20     13.22      0.00
    2   10   20     13.68      0.00
    3   10   20    -23.26      0.00
    4   10   20      4.65      0.00
    5   10   20      9.58      0.00
    6   10   20    -15.58      0.00
    7   10   20    -11.22      0.00
    8   10   20     24.80      0.00
    9   10   20      1.30      0.00
   10   10   20     15.76      0.00
    1   11   20     -2.09      0.00
    2   11   20      5.34      0.00
    3   11   20     -2.15      0.00
    4   11   20    -12.18      0.00
    5   11   20     14.77      0.00
    6   11   20     17.65      0.00
    7   11   20    -33.26      0.00
    8   11   20      3.56      0.00
    9   11   20      2.94      0.00
   10   11   20     -5.70      0.00
   11   11   20    -43.57      0.00
    0   12   20     11.53      0.00
    1   12   20     -3.85      0.00
    2   12   20    -24.35      0.00
    3   12   20      7.53      0.00
    4   12   20     30.78      0.00
    5   12   20     -9.32      0.00
    6   12   20      5.02      0.00
    7   12   20     45.23      0.00
    8   12   20    -13.89      0.00
    9   12   20    -18.78      0.00
   10   12   20      9.80      0.00
   11   12   20    -42.77      0.00
   12   12   20    -20.23      0.00
    1   13   20     -2.88      0.00
    2   13   20      1.30      0.00
    3   13   20    -12.14      0.00
    4   13   20      9.54      0.00
    5   13   20     -8.95      0.00
    6   13   20     36.30      0.00
    7   13   20     19.00      0.00
    8   13   20   -102.81      0.00
    9   13   20     -0.43      0.00
   10   13   20     17.66      0.00
   11   13   20     -7.87      0.00
    0   14   20     27.82      0.00
    1   14   20    -19.33      0.00
    2   14   20     14.31      0.00
    3   14   20     17.42      0.00
    4   14   20    -21.85      0.00
    5   14   20      5.79      0.00
    6   14   20   -132.06      0.00
    7   14   20      3.13      0.00
    8   14   20     39.82      0.00
    9   14   20      5.25      0.00
   10   14   20     13.64      0.00
    1   15   20     28.46      0.00
    2   15   20    -12.06      0.00
    3   15   20    -11.91      0.00
    4   15   20    -17.06      0.00
    5   15   20     -0.27      0.00
    6   15   20     18.47      0.00
    7   15   20     29.17      0.00
    8   15   20     23.38      0.00
    9   15   20      3.06      0.00
    0   16   20      2.57      0.00
    1   16   20     22.28      0.00
    2   16   20    -11.17      0.00
    1   17   20    -28.96      0.00
    2   17   20      1.88      0.00
    2   18   20     -7.15      0.00
    0    1   21      4.77      0.00
    1    2   21      5.48      0.00
    0    3   21     -6.38      0.00
    1    3   21     -5.47      0.00
    2    3   21     10.51      0.00
    1    4   21     12.46      0.00
    2    4   21      5.42      0.00
    3    4   21     -3.86      0.00
    0    5   21    -21.57      0.00
    1    5   21      3.13      0.00
    2    5   21     15.35      0.00
    3    5   21      7.78      0.00
    4    5   21     22.55      0.00
    1    6   21      5.33      0.00
    2    6   21      7.61      0.00
    3    6   21      7.16      0.00
    4    6   21     11.61      0.00
    5    6   21     21.48      0.00
    0    7   21     21.30      0.00
    1    7   21    -24.77      0.00
    2    7   21     -7.70      0.00
    3    7   21     19.02      0.00
    4    7   21     14.19      0.00
    5    7   21     -6.21      0.00
    6    7   21      4.46      0.00
    1    8   21      7.61      0.00
    2    8   21    -34.37      0.00
    3    8   21     -9.33      0.00
    4    8   21     -0.70      0.00
    5    8   21     -0.44      0.00
    6    8   21    -13.68      0.00
    7    8   21     22.96      0.00
    0    9   21     -6.65      0.00
    1    9   21     -7.71      0.00
    2    9   21      5.84      0.00
    3    9   21     14.76      0.00
    4    9   21     -6.48      0.00
    5    9   21     21.10      0.00
    6    9   21     -2.19      0.00
    7    9   21     23.62      0.00
    8    9   21      3.08      0.00
    1   10   21      4.16      0.00
    2   10   21     -5.52      0.00
    3   10   21     -3.83      0.00
    4   10   21      7.26      0.00
    5   10   21     -0.37      0.00
    6   10   21    -29.91      0.00
    7   10   21      9.59      0.00
    8   10   21     -3.41      0.00
    9   10   21     34.23      0.00
    0   11   21     10.38      0.00
    1   11   21     -0.09      0.00
    2   11   21    -10.66      0.00
    3   11   21      0.32      0.00
    4   11   21     38.61      0.00
    5   11   21    -24.53      0.00
    6   11   21    -30.51      0.00
    7   11   21     13.34      0.00
    8   11   21     24.54      0.00
    9   11   21    -45.91      0.00
   10   11   21     23.54      0.00
    1   12   21      0.09      0.00
    2   12   21     -3.71      0.00
    3   12   21     -2.90      0.00
    4   12   21    -23.65      0.00
    5   12   21     -2.46      0.00
    6   12   21     -4.34      0.00
    7   12   21     27.42      0.00
    8   12   21      6.66      0.00
    9   12   21     13.74      0.00
   10   12   21    -14.39      0.00
   11   12   21     -5.64      0.00
    0   13   21     -9.48      0.00
    1   13   21    -10.41      0.00
    2   13   21     25.03      0.00
    3   13   21      6.29      0.00
    4   13   21      1.81      0.00
    5   13   21     34.18      0.00
    6   13   21     43.61      0.00
    7   13   21   -199.27      0.00
    8   13   21    -10.66      0.00
    9   13   21     20.40      0.00
   10   13   21     -8.86      0.00
    1   14   21    -12.20      0.00
    2   14   21    -12.16      0.00
    3   14   21      2.16      0.00
    4   14   21     -4.60      0.00
    5   14   21     -6.05      0.00
    6   14   21    -28.58      0.00
    7   14   21     29.28      0.00
    8   14   21      1.49      0.00
    9   14   21     24.77      0.00
   10   14   21     -5.11      0.00
    2   15   21      2.21      0.00
    3   15   21      6.71      0.00
    4   15   21    -23.34      0.00
    5   15   21     -4.68      0.00
    6   15   21     13.16      0.00
    7   15   21     41.78      0.00
    8   15   21      4.12      0.00
    9   15   21    -14.64      0.00
    1   16   21      9.49      0.00
    0   17   21    -13.11      0.00
    1   17   21     48.91      0.00
    1    1   22    -10.75      0.00
    0    2   22      4.02      0.00
    1    2   22     16.92      0.00
    2    2   22      2.86      0.00
    1    3   22     -6.75      0.00
    2    3   22      4.25      0.00
    3    3   22      5.01      0.00
    0    4   22    -16.99      0.00
    1    4   22     -6.56      0.00
    2    4   22     -5.98      0.00
    3    4   22     -3.32      0.00
    4    4   22     -9.11      0.00
    1    5   22      0.23      0.00
    2    5   22     -1.82      0.00
    3    5   22      6.33      0.00
    4    5   22    -28.65      0.00
    5    5   22      1.90      0.00
    0    6   22     -0.85      0.00
    1    6   22     -8.74      0.00
    2    6   22      4.73      0.00
    3    6   22    -16.10      0.00
    4    6   22    -32.71      0.00
    5    6   22     -6.66      0.00
    6    6   22     12.09      0.00
    1    7   22      0.78      0.00
    2    7   22    -12.07      0.00
    3    7   22      9.04      0.00
    4    7   22     -9.00      0.00
    5    7   22    -74.04      0.00
    6    7   22     17.20      0.00
    7    7   22     17.92      0.00
    0    8   22     -1.92      0.00
    1    8   22     -1.89      0.00
    2    8   22     -7.64      0.00
    3    8   22     10.56      0.00
    4    8   22     -9.36      0.00
    5    8   22     -0.94      0.00
    6    8   22      1.49      0.00
    7    8   22     -3.37      0.00
    8    8   22    -41.54      0.00
    1    9   22     15.95      0.00
    2    9   22      7.50      0.00
    3    9   22      5.09      0.00
    4    9   22     -9.36      0.00
    5    9   22     -2.33      0.00
    6    9   22    -10.89      0.00
    7    9   22     -6.40      0.00
    8    9   22     -3.16      0.00
    9    9   22     15.25      0.00
    0   10   22     -6.03      0.00
    1   10   22      7.93      0.00
    2   10   22      5.95      0.00
    3   10   22      6.44      0.00
    4   10   22     -1.04      0.00
    5   10   22     10.42      0.00
    6   10   22     -6.74      0.00
    7   10   22      3.27      0.00
    8   10   22     10.64      0.00
    9   10   22    -26.96      0.00
   10   10   22    -56.70      0.00
    1   11   22      1.84      0.00
    2   11   22      3.99      0.00
    3   11   22      4.14      0.00
    4   11   22    -10.76      0.00
    5   11   22      0.43      0.00
    6   11   22    -20.57      0.00
    7   11   22     18.35      0.00
    8   11   22    -18.50      0.00
    9   11   22    -90.81      0.00
   10   11   22     23.58      0.00
   11   11   22     17.64      0.00
    0   12   22     40.90      0.00
    1   12   22    -11.18      0.00
    2   12   22      0.20      0.00
    3   12   22    -14.65      0.00
    4   12   22     -7.48      0.00
    5   12   22      1.70      0.00
    6   12   22    -12.24      0.00
    7   12   22     37.57      0.00
    8   12   22      5.89      0.00
    9   12   22     13.90      0.00
   10   12   22     -2.51      0.00
   11   12   22      7.88      0.00
    1   13   22    -16.42      0.00
    2   13   22     -9.07      0.00
    3   13   22      3.05      0.00
    4   13   22     -7.32      0.00
    5   13   22     13.26      0.00
    6   13   22    -30.20      0.00
    7   13   22     -0.17      0.00
    8   13   22     15.38      0.00
    9   13   22     -1.09      0.00
   10   13   22     -7.88      0.00
    1   14   22     -0.26      0.00
    2   14   22     16.51      0.00
    3   14   22    -24.69      0.00
    4   14   22    -41.77      0.00
    5   14   22    -27.16      0.00
    6   14   22    -17.41      0.00
    7   14   22     41.04      0.00
    8   14   22     -7.91      0.00
    9   14   22      6.18      0.00
    1   15   22     10.02      0.00
    2   15   22    -17.38      0.00
    3   15   22    -34.42      0.00
    4   15   22    -17.48      0.00
    5   15   22     23.99      0.00
    6   15   22      8.35      0.00
    7   15   22     22.87      0.00
    8   15   22      0.30      0.00
    0   16   22     48.75      0.00
    6   16   22     15.78      0.00
    0    1   23    -33.90      0.00
    1    2   23     -3.85      0.00
    0    3   23     -0.71      0.00
    1    3   23     -3.61      0.00
    2    3   23    -15.10      0.00
    1    4   23     -9.01      0.00
    2    4   23     -4.50      0.00
    3    4   23    -22.62      0.00
    0    5   23     -4.12      0.00
    1    5   23     -6.62      0.00
    2    5   23      1.93      0.00
    3    5   23     -6.13      0.00
    4    5   23      4.80      0.00
    1    6   23    -40.55      0.00
    2    6   23     22.96      0.00
    3    6   23     -0.59      0.00
    4    6   23    -14.46      0.00
    5    6   23     -2.20      0.00
    0    7   23     11.52      0.00
    1    7   23      9.97      0.00
    2    7   23    -10.67      0.00
    3    7   23     13.37      0.00
    4    7   23     14.25      0.00
    5    7   23     10.42      0.00
    6    7   23     13.06      0.00
    1    8   23    -12.94      0.00
    2    8   23      3.85      0.00
    3    8   23      7.99      0.00
    4    8   23    -15.07      0.00
    5    8   23     16.38      0.00
    6    8   23     -5.81      0.00
    7    8   23    -34.65      0.00
    0    9   23    -25.58      0.00
    1    9   23     -2.56      0.00
    2    9   23      0.67      0.00
    3    9   23     -2.54      0.00
    4    9   23      8.50      0.00
    5    9   23     -8.52      0.00
    6    9   23    -12.88      0.00
    7    9   23     -3.44      0.00
    8    9   23      4.60      0.00
    1   10   23     -0.37      0.00
    2   10   23     -6.83      0.00
    3   10   23     14.13      0.00
    4   10   23    -22.39      0.00
    5   10   23    -12.55      0.00
    6   10   23     31.57      0.00
    7   10   23     -6.09      0.00
    8   10   23     -2.32      0.00
    9   10   23     19.94      0.00
    0   11   23     16.05      0.00
    1   11   23     -2.34      0.00
    2   11   23    -24.04      0.00
    3   11   23     19.44      0.00
    4   11   23     -3.32      0.00
    5   11   23    -21.36      0.00
    6   11   23     -4.15      0.00
    7   11   23     -7.82      0.00
    8   11   23   -121.23      0.00
    9   11   23      3.08      0.00
   10   11   23     20.28      0.00
    1   12   23      3.90      0.00
    2   12   23    -20.28      0.00
    3   12   23     16.56      0.00
    4   12   23     -9.43      0.00
    5   12   23     -5.26      0.00
    6   12   23     19.47      0.00
    7   12   23    -14.36      0.00
    8   12   23      6.42      0.00
    9   12   23     24.77      0.00
   10   12   23     16.70      0.00
    0   13   23      0.68      0.00
    1   13   23      2.97      0.00
    2   13   23    -19.79      0.00
    3   13   23      5.61      0.00
    4   13   23     56.89      0.00
    5   13   23      2.32      0.00
    6   13   23     -9.78      0.00
    7   13   23      2.10      0.00
    8   13   23    -18.88      0.00
    9   13   23      8.87      0.00
    2   14   23     36.05      0.00
    3   14   23     -1.45      0.00
    4   14   23    -11.09      0.00
    5   14   23     10.12      0.00
    6   14   23     16.98      0.00
    7   14   23     27.14      0.00
    8   14   23      1.27      0.00
    2   15   23     24.87      0.00
    3   15   23     14.79      0.00
    4   15   23     25.85      0.00
    5   15   23     12.27      0.00
    6   15   23    -25.81      0.00
    7   15   23     16.79      0.00
    5   16   23      0.14      0.00
    0    2   24     20.24      0.00
    1    2   24    -16.11      0.00
    2    2   24     -7.36      0.00
    1    3   24     22.63      0.00
    2    3   24    -16.20      0.00
    3    3   24     -5.35      0.00
    0    4   24    -14.16      0.00
    1    4   24    -15.47      0.00
    2    4   24     -7.12      0.00
    3    4   24     12.00      0.00
    4    4   24     -7.87      0.00
    1    5   24     -6.63      0.00
    2    5   24     14.02      0.00
    3    5   24     11.24      0.00
    4    5   24      6.03      0.00
    5    5   24      5.57      0.00
    0    6   24     12.74      0.00
    1    6   24     13.17      0.00
    2    6   24     -5.28      0.00
    3    6   24     -8.90      0.00
    4    6   24     -5.38      0.00
    5    6   24    -11.23      0.00
    6    6   24     27.11      0.00
    1    7   24     -1.41      0.00
    2    7   24     -0.84      0.00
    3    7   24    -15.71      0.00
    4    7   24     22.22      0.00
    5    7   24     -4.28      0.00
    6    7   24     -7.16      0.00
    7    7   24     16.97      0.00
    0    8   24     -7.66      0.00
    1    8   24     -0.36      0.00
    2    8   24     -0.16      0.00
    3    8   24     23.06      0.00
    4    8   24     16.49      0.00
    5    8   24      1.35      0.00
    6    8   24      7.84      0.00
    7    8   24      1.84      0.00
    8    8   24     14.47      0.00
    1    9   24     12.89      0.00
    2    9   24      3.34      0.00
    3    9   24     -8.97      0.00
    4    9   24     12.52      0.00
    5    9   24      3.64      0.00
    6    9   24     12.79      0.00
    7    9   24      7.50      0.00
    8    9   24     -6.45      0.00
    9    9   24     19.73      0.00
    0   10   24      4.20      0.00
    1   10   24      6.97      0.00
    2   10   24     -5.23      0.00
    3   10   24     22.79      0.00
    4   10   24     -3.46      0.00
    5   10   24      8.25      0.00
    6   10   24      2.84      0.00
    7   10   24     -4.29      0.00
    8   10   24     37.94      0.00
    9   10   24      5.36      0.00
   10   10   24    -12.78      0.00
    1   11   24    -13.19      0.00
    2   11   24     -4.21      0.00
    3   11   24    -26.91      0.00
    4   11   24      9.83      0.00
    5   11   24     -4.93      0.00
    6   11   24     -2.47      0.00
    7   11   24    128.58      0.00
    8   11   24      1.49      0.00
    9   11   24     -0.06      0.00
   10   11   24      3.92      0.00
    0   12   24      4.30      0.00
    1   12   24     -6.99      0.00
    2   12   24    -20.38      0.00
    3   12   24    -18.93      0.00
    4   12   24    -30.50      0.00
    5   12   24    118.82      0.00
    6   12   24     -7.41      0.00
    7   12   24      4.55      0.00
    8   12   24     19.72      0.00
    9   12   24     26.92      0.00
    1   13   24    -41.93      0.00
    2   13   24     34.88      0.00
    3   13   24     -5.46      0.00
    4   13   24     -8.02      0.00
    5   13   24      2.13      0.00
    6   13   24    -20.66      0.00
    7   13   24     -0.03      0.00
    8   13   24     18.16      0.00
    2   14   24     30.66      0.00
    3   14   24     15.19      0.00
    4   14   24    -10.40      0.00
    5   14   24     18.88      0.00
    6   14   24     22.69      0.00
    7   14   24     34.88      0.00
    2   15   24      1.67      0.00
    3   15   24    -18.72      0.00
    4   15   24     18.02      0.00
    5   15   24     -4.74      0.00
    1    2   25     -2.46      0.00
    1    3   25    -10.05      0.00
    2    3   25     12.12      0.00
    1    4   25      0.71      0.00
    2    4   25      5.17      0.00
    3    4   25     -1.15      0.00
    0    5   25     89.92      0.00
    1    5   25     -3.19      0.00
    2    5   25     11.25      0.00
    3    5   25      0.30      0.00
    4    5   25      6.64      0.00
    1    6   25      0.28      0.00
    2    6   25    -10.23      0.00
    3    6   25      0.17      0.00
    4    6   25     -5.85      0.00
    5    6   25      6.05      0.00
    0    7   25     30.53      0.00
    1    7   25     12.72      0.00
    2    7   25    -19.20      0.00
    3    7   25    -12.27      0.00
    4    7   25     -7.68      0.00
    5    7   25      6.47      0.00
    6    7   25    -10.41      0.00
    1    8   25     23.61      0.00
    2    8   25     14.46      0.00
    3    8   25    -16.29      0.00
    4    8   25    -31.55      0.00
    5    8   25     -6.42      0.00
    6    8   25      7.37      0.00
    7    8   25     -5.08      0.00
    0    9   25     -9.38      0.00
    1    9   25      2.23      0.00
    2    9   25     -5.42      0.00
    3    9   25    -19.93      0.00
    4    9   25      1.62      0.00
    5    9   25      4.32      0.00
    6    9   25     -7.30      0.00
    7    9   25     10.99      0.00
    8    9   25      9.28      0.00
    1   10   25    -10.91      0.00
    2   10   25      4.35      0.00
    3   10   25     23.28      0.00
    4   10   25    -12.52      0.00
    5   10   25    -17.03      0.00
    6   10   25     21.92      0.00
    7   10   25    -24.64      0.00
    8   10   25    -13.94      0.00
    9   10   25    -10.45      0.00
    0   11   25      4.56      0.00
    1   11   25      6.67      0.00
    2   11   25     10.74      0.00
    3   11   25     14.12      0.00
    4   11   25     -5.44      0.00
    5   11   25    -28.80      0.00
    6   11   25    -28.87      0.00
    7   11   25    -17.49      0.00
    8   11   25     -0.80      0.00
    9   11   25     -5.63      0.00
    1   12   25     12.55      0.00
    2   12   25     -6.09      0.00
    3   12   25     72.44      0.00
    4   12   25     -7.64      0.00
    5   12   25    -13.83      0.00
    6   12   25     17.71      0.00
    7   12   25    -11.62      0.00
    8   12   25     -6.20      0.00
    0   13   25    -16.03      0.00
    1   13   25     -6.06      0.00
    2   13   25      9.10      0.00
    3   13   25      9.74      0.00
    4   13   25      7.39      0.00
    5   13   25    -27.97      0.00
    6   13   25    -10.94      0.00
    7   13   25      8.77      0.00
    2   14   25     -2.42      0.00
    3   14   25    -30.02      0.00
    4   14   25     18.80      0.00
    5   14   25    -11.16      0.00
    2   15   25     -6.41      0.00
    3   15   25     -1.52      0.00
    4   15   25    -30.13      0.00
    0    2   26    -27.83      0.00
    1    2   26     -0.31      0.00
    2    2   26      4.15      0.00
    1    3   26     11.88      0.00
    2    3   26      2.50      0.00
    3    3   26      5.70      0.00
    0    4   26     -0.58      0.00
    1    4   26    -12.78      0.00
    2    4   26      3.99      0.00
    3    4   26      3.05      0.00
    4    4   26    -25.23      0.00
    1    5   26    -13.12      0.00
    2    5   26      3.38      0.00
    3    5   26     12.23      0.00
    4    5   26      5.94      0.00
    5    5   26     -3.05      0.00
    0    6   26     -2.66      0.00
    1    6   26     -6.34      0.00
    2    6   26      9.59      0.00
    3    6   26     -4.51      0.00
    4    6   26      4.33      0.00
    5    6   26    -12.77      0.00
    6    6   26     -5.07      0.00
    1    7   26      8.77      0.00
    2    7   26      9.68      0.00
    3    7   26     20.44      0.00
    4    7   26     16.73      0.00
    5    7   26      6.77      0.00
    6    7   26     18.38      0.00
    7    7   26      3.34      0.00
    0    8   26    -18.14      0.00
    1    8   26    -10.87      0.00
    2    8   26     10.83      0.00
    3    8   26    -11.80      0.00
    4    8   26     11.67      0.00
    5    8   26      2.76      0.00
    6    8   26    -12.29      0.00
    7    8   26     -5.57      0.00
    1    9   26     -5.07      0.00
    2    9   26     -1.59      0.00
    3    9   26     15.11      0.00
    4    9   26    -19.61      0.00
    5    9   26    -10.17      0.00
    6    9   26      9.50      0.00
    7    9   26      1.72      0.00
    8    9   26     -2.48      0.00
    9    9   26    -40.20      0.00
    0   10   26      6.57      0.00
    1   10   26     18.97      0.00
    2   10   26     21.34      0.00
    3   10   26    -27.20      0.00
    4   10   26      9.23      0.00
    5   10   26    -18.07      0.00
    6   10   26     53.67      0.00
    7   10   26     -1.16      0.00
    8   10   26    -26.96      0.00
    9   10   26     10.26      0.00
    1   11   26    -11.23      0.00
    2   11   26      1.98      0.00
    3   11   26    -19.18      0.00
    4   11   26      5.06      0.00
    5   11   26      1.59      0.00
    6   11   26    -20.78      0.00
    7   11   26     10.30      0.00
    8   11   26     -4.80      0.00
    0   12   26     21.00      0.00
    1   12   26    -30.81      0.00
    2   12   26     15.46      0.00
    3   12   26      9.70      0.00
    4   12   26    -28.30      0.00
    5   12   26     -2.82      0.00
    6   12   26    -16.42      0.00
    7   12   26    -10.23      0.00
    1   13   26      5.06      0.00
    2   13   26     23.70      0.00
    3   13   26      2.19      0.00
    4   13   26    -16.85      0.00
    5   13   26    -12.87      0.00
    3   14   26     -7.44      0.00
    4   14   26     31.30      0.00
    1    2   27    -19.06      0.00
    0    3   27     -0.20      0.00
    1    3   27     -1.64      0.00
    2    3   27    -11.24      0.00
    1    4   27    -13.39      0.00
    2    4   27     11.92      0.00
    3    4   27      8.62      0.00
    0    5   27     11.66      0.00
    1    5   27      7.17      0.00
    2    5   27     -8.28      0.00
    3    5   27     -3.59      0.00
    4    5   27     14.82      0.00
    1    6   27    -21.47      0.00
    2    6   27    -23.82      0.00
    3    6   27      9.82      0.00
    4    6   27      2.31      0.00
    5    6   27      1.20      0.00
    0    7   27    -23.30      0.00
    1    7   27     10.08      0.00
    2    7   27    -15.11      0.00
    3    7   27     -1.21      0.00
    4    7   27     10.25      0.00
    5    7   27     14.97      0.00
    6    7   27    -29.86      0.00
    1    8   27      8.28      0.00
    2    8   27     12.01      0.00
    3    8   27     14.76      0.00
    4    8   27    -18.39      0.00
    5    8   27      0.22      0.00
    6    8   27      4.57      0.00
    7    8   27      3.41      0.00
    0    9   27     -6.89      0.00
    1    9   27     -5.35      0.00
    2    9   27     -0.30      0.00
    3    9   27     -6.34      0.00
    4    9   27     -7.40      0.00
    5    9   27    -11.29      0.00
    6    9   27     70.51      0.00
    7    9   27    -10.94      0.00
    8    9   27     -2.67      0.00
    1   10   27      0.23      0.00
    2   10   27    -25.45      0.00
    3   10   27    -18.89      0.00
    4   10   27     63.14      0.00
    5   10   27     -2.34      0.00
    6   10   27      2.55      0.00
    7   10   27    -14.93      0.00
    8   10   27    -16.90      0.00
    0   11   27      1.88      0.00
    1   11   27     -8.17      0.00
    2   11   27    -11.18      0.00
    3   11   27     14.10      0.00
    4   11   27     10.95      0.00
    5   11   27    -15.47      0.00
    6   11   27     -7.37      0.00
    7   11   27    -16.01      0.00
    1   12   27      1.83      0.00
    2   12   27     13.85      0.00
    3   12   27    -22.50      0.00
    4   12   27    -19.36      0.00
    5   12   27     17.97      0.00
    1   13   27     -5.00      0.00
    2   13   27    -21.83      0.00
    3   13   27    -34.67      0.00
    4   13   27     -2.20      0.00
    1   14   27     -4.97      0.00
    2   14   27      5.48      0.00
    1    2   28      5.12      0.00
    2    2   28    -17.37      0.00
    1    3   28     -3.11      0.00
    2    3   28      5.42      0.00
    3    3   28     -7.20      0.00
    0    4   28    -17.10      0.00
    1    4   28     14.45      0.00
    2    4   28      1.18      0.00
    3    4   28     -1.98      0.00
    4    4   28     -4.84      0.00
    1    5   28    -27.28      0.00
    2    5   28     26.40      0.00
    3    5   28      3.70      0.00
    4    5   28    -11.57      0.00
    5    5   28     13.40      0.00
    0    6   28     16.54      0.00
    1    6   28      8.10      0.00
    2    6   28     -5.46      0.00
    3    6   28     -2.02      0.00
    4    6   28    -26.74      0.00
    5    6   28     11.86      0.00
    6    6   28    -22.39      0.00
    1    7   28      1.86      0.00
    2    7   28    -16.35      0.00
    3    7   28     28.13      0.00
    4    7   28     -9.51      0.00
    5    7   28    -10.68      0.00
    6    7   28      0.07      0.00
    7    7   28     56.05      0.00
    0    8   28     -5.17      0.00
    1    8   28    -17.33      0.00
    2    8   28    -15.93      0.00
    3    8   28    -10.42      0.00
    4    8   28     -9.95      0.00
    5    8   28     -6.15      0.00
    6    8   28     17.44      0.00
    7    8   28      1.48      0.00
    8    8   28     26.92      0.00
    1    9   28     -5.31      0.00
    2    9   28     -0.90      0.00
    3    9   28    -17.88      0.00
    4    9   28    103.04      0.00
    5    9   28    -38.00      0.00
    6    9   28      3.59      0.00
    7    9   28     -3.39      0.00
    8    9   28      7.30      0.00
    0   10   28     39.06      0.00
    1   10   28      3.49      0.00
    2   10   28     -7.14      0.00
    3   10   28    -15.35      0.00
    4   10   28     12.93      0.00
    5   10   28    -16.67      0.00
    6   10   28    -15.67      0.00
    7   10   28     -8.95      0.00
    1   11   28      6.28      0.00
    2   11   28      6.73      0.00
    3   11   28      0.24      0.00
    4   11   28     -2.09      0.00
    5   11   28     -8.30      0.00
    1   12   28      3.77      0.00
    2   12   28      5.64      0.00
    3   12   28     -6.67      0.00
    4   12   28    -16.41      0.00
    1   13   28      5.08      0.00
    2   13   28     -4.31      0.00
    1   14   28     -6.20      0.00
    0    3   29     -0.15      0.00
    1    3   29    -24.32      0.00
    2    3   29     14.85      0.00
    1    4   29     15.97      0.00
    2    4   29    -15.65      0.00
    3    4   29      1.32      0.00
    0    5   29     25.21      0.00
    1    5   29      1.42      0.00
    2    5   29    -12.25      0.00
    3    5   29     17.31      0.00
    4    5   29     -6.46      0.00
    1    6   29     22.40      0.00
    2    6   29      6.99      0.00
    3    6   29    -17.87      0.00
    4    6   29     16.92      0.00
    5    6   29      5.18      0.00
    0    7   29      4.55      0.00
    1    7   29     -3.14      0.00
    2    7   29      4.03      0.00
    3    7   29    -10.41      0.00
    4    7   29    -13.40      0.00
    5    7   29      5.00      0.00
    6    7   29    -15.43      0.00
    1    8   29    -15.84      0.00
    2    8   29     25.25      0.00
    3    8   29    -37.19      0.00
    4    8   29    -39.60      0.00
    5    8   29    -17.43      0.00
    6    8   29     -2.67      0.00
    7    8   29     -5.48      0.00
    0    9   29     -9.80      0.00
    2    9   29     -8.49      0.00
    3    9   29     -1.74      0.00
    4    9   29     14.19      0.00
    5    9   29    -35.17      0.00
    6    9   29     -1.25      0.00
    7    9   29    -13.83      0.00
    1   10   29      5.81      0.00
    2   10   29      6.53      0.00
    3   10   29     18.40      0.00
    4   10   29      0.33      0.00
    5   10   29      0.45      0.00
    6   10   29     18.58      0.00
    1   11   29     27.12      0.00
    2   11   29     -3.97      0.00
    3   11   29    -27.12      0.00
    4   11   29     14.57      0.00
    1   12   29      8.61      0.00
    2   12   29      9.28      0.00
    3   12   29     -5.58      0.00
    1   13   29    -10.39      0.00
    1    3   30    -10.44      0.00
    2    3   30     -2.13      0.00
    3    3   30    -16.92      0.00
    0    4   30     -2.99      0.00
    1    4   30      6.36      0.00
    2    4   30      8.75      0.00
    3    4   30     16.42      0.00
    4    4   30     11.86      0.00
    1    5   30    -24.27      0.00
    2    5   30    -11.93      0.00
    3    5   30    -13.09      0.00
    4    5   30    -14.38      0.00
    5    5   30      4.60      0.00
    0    6   30     40.79      0.00
    1    6   30    -18.30      0.00
    2    6   30      2.17      0.00
    3    6   30     14.04      0.00
    4    6   30     -4.90      0.00
    5    6   30      8.18      0.00
    6    6   30     19.74      0.00
    1    7   30     14.48      0.00
    2    7   30      4.25      0.00
    3    7   30     57.13      0.00
    4    7   30     12.95      0.00
    5    7   30     12.89      0.00
    6    7   30    -14.21      0.00
    7    7   30      8.11      0.00
    0    8   30      0.21      0.00
    1    8   30     12.07      0.00
    2    8   30      6.20      0.00
    3    8   30     -3.76      0.00
    4    8   30     10.83      0.00
    5    8   30    -25.76      0.00
    6    8   30     -6.79      0.00
    1    9   30      8.72      0.00
    2    9   30    -15.40      0.00
    3    9   30      8.92      0.00
    4    9   30     35.10      0.00
    5    9   30      4.95      0.00
    1   10   30     -0.44      0.00
    2   10   30      0.89      0.00
    3   10   30    -14.12      0.00
    4   10   30      8.53      0.00
    1   11   30     19.84      0.00
    2   11   30     11.23      0.00
    3   11   30     13.71      0.00
    1   12   30      9.37      0.00
    2   12   30      7.01      0.00
    0    3   31      3.16      0.00
    1    3   31     -7.72      0.00
    2    3   31     -0.50      0.00
    1    4   31     20.25      0.00
    2    4   31     -0.15      0.00
    3    4   31     18.61      0.00
    0    5   31    -12.38      0.00
    1    5   31     11.45      0.00
    2    5   31      7.00      0.00
    3    5   31    -86.06      0.00
    4    5   31      1.47      0.00
    1    6   31    -77.37      0.00
    2    6   31     16.57      0.00
    3    6   31      2.71      0.00
    4    6   31      5.21      0.00
    5    6   31      8.77      0.00
    0    7   31      1.56      0.00
    1    7   31      2.24      0.00
    2    7   31      1.28      0.00
    3    7   31      2.03      0.00
    4    7   31    -17.76      0.00
    5    7   31     11.17      0.00
    6    7   31     11.20      0.00
    1    8   31     11.66      0.00
    2    8   31    -21.18      0.00
    3    8   31     -3.47      0.00
    4    8   31     24.17      0.00
    5    8   31      1.27      0.00
    1    9   31      4.45      0.00
    2    9   31      0.13      0.00
    3    9   31     12.68      0.00
    4    9   31     -0.28      0.00
    1   10   31     11.19      0.00
    2   10   31    -20.83      0.00
    3   10   31    -18.89      0.00
    1   11   31    -12.46      0.00
    2   11   31    -41.11      0.00
    0    4   32     22.84      0.00
    1    4   32      4.59      0.00
    2    4   32     29.13      0.00
    3    4   32     19.63      0.00
    4    4   32    -24.79      0.00
    1    5   32      8.86      0.00
    2    5   32     -2.67      0.00
    3    5   32    -10.49      0.00
    4    5   32     12.12      0.00
    5    5   32    -28.23      0.00
    1    6   32     -4.56      0.00
    2    6   32     10.93      0.00
    3    6   32     31.24      0.00
    4    6   32      1.61      0.00
    5    6   32     -0.89      0.00
    6    6   32     18.52      0.00
    1    7   32     26.84      0.00
    2    7   32     10.16      0.00
    3    7   32      3.36      0.00
    4    7   32     -8.70      0.00
    5    7   32      6.10      0.00
    1    8   32     -1.44      0.00
    2    8   32    -17.17      0.00
    3    8   32    -22.36      0.00
    4    8   32     -8.15      0.00
    1    9   32    -11.71      0.00
    2    9   32     -4.55      0.00
    3    9   32     -4.16      0.00
    1   10   32     -8.65      0.00
    2   10   32     25.16      0.00
    1    4   33     -4.81      0.00
    2    4   33     18.47      0.00
    3    4   33      6.82      0.00
    1    5   33      5.75      0.00
    2    5   33     -2.93      0.00
    3    5   33    -22.82      0.00
    4    5   33     12.28      0.00
    1    6   33    -12.33      0.00
    2    6   33     -3.51      0.00
    3    6   33      7.56      0.00
    4    6   33      9.83      0.00
    1    7   33     -9.15      0.00
    2    7   33      2.47      0.00
    3    7   33      2.66      0.00
    1    8   33    -24.91      0.00
    2    8   33     -8.10      0.00
    3    8   33      3.39      0.00
    1    5   34      4.68      0.00
    2    5   34      6.03      0.00
    3    5   34     22.57      0.00
    1    6   34      3.86      0.00
    2    6   34    -15.01      0.00
    3    6   34     -6.01      0.00
    1    7   34      0.95      0.00
    2    7   34      4.34      0.00
    1    5   35      4.33      0.00
    1    1    0    -31.26      0.00
    2    2    0    257.81      0.00
    3    3    0    153.81      0.00
    3    4    0     26.35      0.00
    4    4    0     80.53      0.00
    4    5    0     45.12      0.00
    5    5    0     -5.48      0.00
    5    6    0     33.08      0.00
    6    6    0    -41.55      0.00
    5    7    0    -50.92      0.00
    6    7    0    -41.49      0.00
    7    7    0     11.13      0.00
    6    8    0     -8.28      0.00
    7    8    0      0.96      0.00
    8    8    0    -23.51      0.00
    6    9    0     17.60      0.00
    7    9    0     12.58      0.00
    8    9    0    -24.74      0.00
    9    9    0      9.09      0.00
    6   10    0     55.26      0.00
    7   10    0     13.97      0.00
    8   10    0     -4.42      0.00
    9   10    0    -25.92      0.00
   10   10    0     21.45      0.00
    7   11    0     -4.49      0.00
    8   11    0     45.03      0.00
    9   11    0      6.67      0.00
   10   11    0     -5.33      0.00
   11   11    0    -20.67      0.00
    7   12    0    -11.85      0.00
    8   12    0     25.92      0.00
    9   12    0    -29.75      0.00
   10   12    0     -5.74      0.00
   11   12    0     14.42      0.00
   12   12    0     -0.66      0.00
    6   13    0    -56.18      0.00
    7   13    0     40.31      0.00
    8   13    0     15.94      0.00
    9   13    0     51.47      0.00
   10   13    0     -1.28      0.00
   11   13    0     11.03      0.00
   12   13    0     22.99      0.00
   13   13    0    -50.75      0.00
    0   14    0     59.34      0.00
    1   14    0    -13.50      0.00
    7   14    0      0.04      0.00
    8   14    0      2.81      0.00
    9   14    0    -29.88      0.00
   10   14    0     -2.53      0.00
   11   14    0     -4.20      0.00
   12   14    0     -1.29      0.00
   13   14    0     -3.49      0.00
   14   14    0    -19.82      0.00
    7   15    0     23.83      0.00
    8   15    0    -24.40      0.00
    9   15    0      3.85      0.00
   10   15    0     19.88      0.00
   11   15    0     11.55      0.00
   12   15    0     69.06      0.00
   13   15    0     30.41      0.00
   14   15    0     22.17      0.00
   15   15    0    -22.36      0.00
    8   16    0     47.45      0.00
    9   16    0      4.12      0.00
   10   16    0     43.05      0.00
   11   16    0     17.57      0.00
   12   16    0    -10.91      0.00
   13   16    0      0.34      0.00
   14   16    0     -4.71      0.00
    8   17    0     13.54      0.00
    9   17    0    -14.48      0.00
   10   17    0    -17.21      0.00
   11   17    0    -10.27      0.00
   12   17    0    -39.14      0.00
   13   17    0      8.00      0.00
    8   18    0      4.99      0.00
    9   18    0    -22.03      0.00
   10   18    0      9.13      0.00
   11   18    0      6.28      0.00
   12   18    0     -5.98      0.00
    7   19    0    -25.17      0.00
    8   19    0    -75.30      0.00
    9   19    0     48.55      0.00
   10   19    0      2.19      0.00
    7   20    0     39.15      0.00
    8   20    0     22.38      0.00
    1   21    0    -20.70      0.00
    2   21    0    -76.94      0.00
    3   21    0    -42.74      0.00
    4   21    0     36.58      0.00
    5   21    0    -15.10      0.00
    6   21    0    -38.06      0.00
    0    1    1   -456.91      0.00
    4    5    1    -57.67      0.00
    5    6    1     41.34      0.00
    5    7    1     31.19      0.00
    6    7    1    -16.32      0.00
    6    8    1    -23.69      0.00
    7    8    1     -6.76      0.00
    6    9    1     12.54      0.00
    7    9    1    -12.64      0.00
    8    9    1      7.74      0.00
    7   10    1     -5.64      0.00
    8   10    1     -4.33      0.00
    9   10    1     -5.35      0.00
    7   11    1    -34.05      0.00
    8   11    1    -20.54      0.00
    9   11    1    -28.22      0.00
   10   11    1     23.60      0.00
    7   12    1     29.03      0.00
    8   12    1     40.31      0.00
    9   12    1    -32.35      0.00
   10   12    1      9.67      0.00
   11   12    1      0.38      0.00
    7   13    1     12.09      0.00
    8   13    1    -20.45      0.00
    9   13    1    -26.19      0.00
   10   13    1     -2.15      0.00
   11   13    1     11.40      0.00
   12   13    1      0.77      0.00
    8   14    1      3.31      0.00
    9   14    1      3.58      0.00
   10   14    1    -33.14      0.00
   11   14    1     -2.07      0.00
   12   14    1      1.85      0.00
   13   14    1     33.19      0.00
    8   15    1     12.93      0.00
    9   15    1     31.04      0.00
   10   15    1      5.53      0.00
   11   15    1    -41.04      0.00
   12   15    1     -3.03      0.00
   13   15    1    -23.14      0.00
   14   15    1     -1.54      0.00
    8   16    1    -22.44      0.00
    9   16    1     -1.48      0.00
   10   16    1     12.65      0.00
   11   16    1     -1.23      0.00
   12   16    1    -15.32      0.00
   13   16    1     -6.84      0.00
   14   16    1      1.58      0.00
    8   17    1    -23.42      0.00
    9   17    1     12.04      0.00
   10   17    1      2.63      0.00
   11   17    1     34.21      0.00
   12   17    1      5.11      0.00
   13   17    1     -5.63      0.00
    8   18    1     -5.48      0.00
    9   18    1      4.58      0.00
   10   18    1     11.91      0.00
   11   18    1     -9.36      0.00
   12   18    1     21.34      0.00
    8   19    1    -24.91      0.00
    9   19    1     15.66      0.00
   10   19    1      3.24      0.00
    8   20    1     -6.14      0.00
    0   21    1    -17.11      0.00
    1   21    1     -0.60      0.00
    2   21    1    -22.10      0.00
    3   21    1    -20.46      0.00
    4   21    1     41.38      0.00
    5   21    1     14.85      0.00
    6   21    1      3.85      0.00
    0    0    2     74.45      0.00
    4    4    2    -20.23      0.00
    4    5    2      6.37      0.00
    5    5    2    -36.38      0.00
    5    6    2     28.13      0.00
    6    6    2     -4.30      0.00
    6    7    2      4.34      0.00
    7    7    2    -16.41      0.00
    6    8    2     24.90      0.00
    7    8    2      9.91      0.00
    8    8    2     -0.12      0.00
    7    9    2     18.71      0.00
    8    9    2     28.22      0.00
    9    9    2    -20.97      0.00
    7   10    2    -13.50      0.00
    8   10    2      2.03      0.00
    9   10    2    -10.23      0.00
   10   10    2    -15.18      0.00
    7   11    2     -7.97      0.00
    8   11    2    -10.96      0.00
    9   11    2      9.20      0.00
   10   11    2    -14.02      0.00
   11   11    2     18.84      0.00
    8   12    2    -12.65      0.00
    9   12    2      0.34      0.00
   10   12    2      9.44      0.00
   11   12    2     -7.74      0.00
   12   12    2      5.28      0.00
    7   13    2      5.56      0.00
    8   13    2     60.76      0.00
    9   13    2     -3.43      0.00
   10   13    2     20.52      0.00
   11   13    2     -1.56      0.00
   12   13    2    -15.10      0.00
   13   13    2     -5.87      0.00
    8   14    2     -5.71      0.00
    9   14    2    -17.18      0.00
   10   14    2    -35.63      0.00
   11   14    2      1.01      0.00
   12   14    2      3.94      0.00
   13   14    2    -16.13      0.00
   14   14    2     -0.28      0.00
    8   15    2    -15.74      0.00
    9   15    2      0.26      0.00
   10   15    2     36.88      0.00
   11   15    2    -11.48      0.00
   12   15    2      8.08      0.00
   13   15    2      3.89      0.00
   14   15    2      8.17      0.00
   15   15    2    -11.15      0.00
    8   16    2    -21.70      0.00
    9   16    2     11.10      0.00
   10   16    2     -3.57      0.00
   11   16    2    -38.91      0.00
   12   16    2     -5.07      0.00
   13   16    2     -0.61      0.00
   14   16    2      0.64      0.00
    8   17    2     42.53      0.00
    9   17    2     -2.60      0.00
   10   17    2    -33.48      0.00
   11   17    2      7.88      0.00
   12   17    2      7.50      0.00
   13   17    2     20.97      0.00
    8   18    2    -25.76      0.00
    9   18    2     -5.86      0.00
   10   18    2     15.20      0.00
   11   18    2    -17.70      0.00
   12   18    2      5.65      0.00
    1   19    2     45.06      0.00
    8   19    2     29.76      0.00
    9   19    2    -15.83      0.00
   10   19    2    -11.21      0.00
    7   20    2    -34.20      0.00
    8   20    2     48.65      0.00
    4   21    2    -24.26      0.00
    5   21    2    -18.22      0.00
    6   21    2      4.56      0.00
    6    7    3      1.87      0.00
    7    8    3      0.49      0.00
    7    9    3      4.07      0.00
    8    9    3    -22.09      0.00
    7   10    3     -8.96      0.00
    8   10    3    -15.38      0.00
    9   10    3     -1.99      0.00
    8   11    3      1.79      0.00
    9   11    3      8.29      0.00
   10   11    3     -7.18      0.00
    8   12    3     30.97      0.00
    9   12    3    -22.08      0.00
   10   12    3    -19.13      0.00
   11   12    3    -17.04      0.00
    8   13    3    -22.80      0.00
    9   13    3     -0.81      0.00
   10   13    3     34.38      0.00
   11   13    3     23.61      0.00
   12   13    3     -8.34      0.00
    8   14    3    -12.31      0.00
    9   14    3     -2.15      0.00
   10   14    3      7.18      0.00
   11   14    3    -22.28      0.00
   12   14    3    -17.46      0.00
   13   14    3    -16.14      0.00
    8   15    3    -14.36      0.00
    9   15    3      6.35      0.00
   10   15    3     11.48      0.00
   11   15    3     12.93      0.00
   12   15    3    -36.82      0.00
   13   15    3     -7.43      0.00
   14   15    3     16.24      0.00
    8   16    3    -14.71      0.00
    9   16    3      9.91      0.00
   10   16    3    -12.90      0.00
   11   16    3     16.57      0.00
   12   16    3     39.48      0.00
   13   16    3     -9.34      0.00
   14   16    3      9.69      0.00
    8   17    3    -31.14      0.00
    9   17    3      4.67      0.00
   10   17    3    -12.53      0.00
   11   17    3     11.49      0.00
   12   17    3     -2.28      0.00
   13   17    3    -15.74      0.00
    8   18    3    -39.83      0.00
    9   18    3    -20.76      0.00
   10   18    3      7.66      0.00
   11   18    3    -18.43      0.00
   12   18    3     -9.57      0.00
    0   19    3     69.32      0.00
    7   19    3    -32.57      0.00
    8   19    3      1.34      0.00
    9   19    3     21.32      0.00
   10   19    3    -18.13      0.00
    7   20    3     18.14      0.00
    8   20    3     16.01      0.00
    5   21    3    -10.25      0.00
    6    6    4     22.30      0.00
    7    7    4    -29.95      0.00
    7    8    4      1.45      0.00
    8    8    4     25.70      0.00
    7    9    4      2.61      0.00
    8    9    4     40.85      0.00
    9    9    4     18.62      0.00
    8   10    4    -18.64      0.00
    9   10    4     17.01      0.00
   10   10    4     49.84      0.00
    8   11    4      8.60      0.00
    9   11    4    -19.14      0.00
   10   11    4     -1.02      0.00
   11   11    4     -6.44      0.00
    8   12    4     22.01      0.00
    9   12    4     -2.21      0.00
   10   12    4    -27.11      0.00
   11   12    4     33.40      0.00
   12   12    4    -10.84      0.00
    8   13    4      5.73      0.00
    9   13    4     18.69      0.00
   10   13    4     -4.81      0.00
   11   13    4     24.55      0.00
   12   13    4     15.44      0.00
   13   13    4     -8.52      0.00
    7   14    4      0.22      0.00
    9   14    4    -21.31      0.00
   10   14    4     14.79      0.00
   11   14    4      1.48      0.00
   12   14    4     13.77      0.00
   13   14    4    -11.38      0.00
   14   14    4    -12.88      0.00
    8   15    4    -46.74      0.00
    9   15    4     10.24      0.00
   10   15    4      1.78      0.00
   11   15    4     11.77      0.00
   12   15    4     34.16      0.00
   13   15    4      1.61      0.00
   14   15    4     10.32      0.00
   15   15    4      2.68      0.00
    8   16    4     -4.19      0.00
    9   16    4     15.00      0.00
   10   16    4    -18.80      0.00
   11   16    4    -11.54      0.00
   12   16    4     22.12      0.00
   13   16    4     10.35      0.00
   14   16    4    -35.83      0.00
    7   17    4     18.32      0.00
    8   17    4     13.64      0.00
    9   17    4     11.79      0.00
   10   17    4      0.68      0.00
   11   17    4    -28.48      0.00
   12   17    4     -3.83      0.00
   13   17    4      5.29      0.00
    7   18    4      1.40      0.00
    8   18    4     -2.55      0.00
    9   18    4    -10.62      0.00
   10   18    4     10.38      0.00
   11   18    4     -9.19      0.00
   12   18    4     -2.78      0.00
    7   19    4    -37.38      0.00
    8   19    4    -13.20      0.00
    9   19    4     -0.57      0.00
   10   19    4     15.59      0.00
    6   20    4    -26.97      0.00
    7   20    4    -30.51      0.00
    8   20    4     -4.61      0.00
    5   21    4    -24.96      0.00
    8    9    5      8.99      0.00
    8   10    5    -10.32      0.00
    9   10    5      7.77      0.00
    8   11    5     21.99      0.00
    9   11    5     -3.45      0.00
   10   11    5     27.34      0.00
    9   12    5      9.82      0.00
   10   12    5      2.32      0.00
   11   12    5     -5.25      0.00
    8   13    5     -3.30      0.00
    9   13    5    -29.25      0.00
   10   13    5     -3.59      0.00
   11   13    5     16.27      0.00
   12   13    5     24.25      0.00
    8   14    5    -14.40      0.00
    9   14    5    -17.65      0.00
   10   14    5      6.36      0.00
   11   14    5     23.63      0.00
   12   14    5      1.37      0.00
   13   14    5      3.95      0.00
    8   15    5     18.90      0.00
    9   15    5     11.96      0.00
   10   15    5     -0.62      0.00
   11   15    5    -38.02      0.00
   12   15    5     -5.21      0.00
   13   15    5    -19.92      0.00
   14   15    5     -3.78      0.00
    8   16    5     -7.39      0.00
    9   16    5      0.34      0.00
   10   16    5    -30.81      0.00
   11   16    5     -1.74      0.00
   12   16    5     -3.25      0.00
   13   16    5     24.57      0.00
   14   16    5      1.87      0.00
    8   17    5    -33.37      0.00
    9   17    5    -10.00      0.00
   10   17    5     16.57      0.00
   11   17    5      3.64      0.00
   12   17    5     25.41      0.00
   13   17    5      8.78      0.00
    6   18    5     71.61      0.00
    8   18    5     14.00      0.00
    9   18    5     21.61      0.00
   10   18    5      5.97      0.00
   11   18    5    -19.85      0.00
   12   18    5      3.76      0.00
    7   19    5      2.51      0.00
    8   19    5     -1.17      0.00
    9   19    5     -3.95      0.00
   10   19    5     -8.39      0.00
    5   20    5      7.47      0.00
    6   20    5    -18.76      0.00
    7   20    5     18.01      0.00
    8   20    5    -26.82      0.00
    4   21    5     -7.08      0.00
    5   21    5     -0.42      0.00
    8    8    6      1.31      0.00
    8    9    6    -16.72      0.00
    9    9    6     30.81      0.00
    9   10    6     10.70      0.00
   10   10    6      5.37      0.00
    9   11    6     -5.52      0.00
   10   11    6     13.15      0.00
   11   11    6    -48.71      0.00
    9   12    6     -8.36      0.00
   10   12    6     10.69      0.00
   11   12    6     15.54      0.00
   12   12    6    -41.94      0.00
    8   13    6    -12.95      0.00
    9   13    6     14.91      0.00
   10   13    6     -4.41      0.00
   11   13    6     19.54      0.00
   12   13    6    -29.59      0.00
   13   13    6     -9.16      0.00
    8   14    6    -23.18      0.00
    9   14    6     11.92      0.00
   10   14    6    -34.07      0.00
   11   14    6    -19.10      0.00
   12   14    6    -16.40      0.00
   13   14    6    -21.58      0.00
   14   14    6     19.96      0.00
    8   15    6     -9.30      0.00
    9   15    6    -18.56      0.00
   10   15    6    -13.68      0.00
   11   15    6      0.48      0.00
   12   15    6     20.56      0.00
   13   15    6    -17.63      0.00
   14   15    6     10.82      0.00
   15   15    6      6.31      0.00
    8   16    6    -10.09      0.00
    9   16    6     33.58      0.00
   10   16    6     -5.93      0.00
   11   16    6     -6.98      0.00
   12   16    6     -3.76      0.00
   13   16    6     -2.08      0.00
   14   16    6     24.96      0.00
    8   17    6      0.66      0.00
    9   17    6     17.08      0.00
   10   17    6    -11.91      0.00
   11   17    6      3.89      0.00
   12   17    6      6.33      0.00
   13   17    6     -9.20      0.00
    8   18    6     11.91      0.00
    9   18    6     22.79      0.00
   10   18    6     35.39      0.00
   11   18    6    -17.58      0.00
    8   19    6     13.12      0.00
    9   19    6     -2.49      0.00
   10   19    6      0.73      0.00
    5   20    6      8.52      0.00
    6   20    6     37.99      0.00
    7   20    6     11.88      0.00
    8   20    6      5.26      0.00
    3   21    6    -26.45      0.00
    4   21    6     38.40      0.00
    9   10    7    -21.29      0.00
    9   11    7    -26.56      0.00
   10   11    7    -11.67      0.00
    9   12    7    -17.24      0.00
   10   12    7     -8.91      0.00
   11   12    7    -11.58      0.00
    8   13    7    -22.73      0.00
    9   13    7     -1.04      0.00
   10   13    7      8.47      0.00
   11   13    7     -0.22      0.00
   12   13    7     -7.29      0.00
    8   14    7     16.92      0.00
    9   14    7    -12.17      0.00
   10   14    7     24.93      0.00
   11   14    7      6.92      0.00
   12   14    7      2.40      0.00
   13   14    7     19.16      0.00
    8   15    7     11.17      0.00
    9   15    7     53.51      0.00
   10   15    7      5.16      0.00
   11   15    7     -0.43      0.00
   12   15    7     16.30      0.00
   13   15    7      7.34      0.00
   14   15    7    -32.62      0.00
    8   16    7     -8.66      0.00
    9   16    7    -27.35      0.00
   10   16    7     36.89      0.00
   11   16    7     -2.24      0.00
   12   16    7      1.57      0.00
   13   16    7     -3.72      0.00
   14   16    7     -4.71      0.00
    8   17    7     18.74      0.00
    9   17    7     -1.93      0.00
   10   17    7     12.00      0.00
   11   17    7      0.80      0.00
   12   17    7    -38.74      0.00
   13   17    7     14.26      0.00
    8   18    7    -20.63      0.00
    9   18    7      8.28      0.00
   10   18    7    -10.68      0.00
   11   18    7      3.50      0.00
    8   19    7    -17.23      0.00
    9   19    7      3.02      0.00
   10   19    7     12.67      0.00
    4   20    7     20.54      0.00
    5   20    7    -23.77      0.00
    6   20    7      0.11      0.00
    7   20    7      7.27      0.00
    2   21    7    -16.88      0.00
    3   21    7    -16.55      0.00
    4   21    7    -24.64      0.00
    9    9    8     -3.82      0.00
    9   10    8      7.48      0.00
   10   10    8    -42.05      0.00
    9   11    8      0.96      0.00
   10   11    8    -12.22      0.00
   11   11    8    -17.95      0.00
    9   12    8     -9.01      0.00
   10   12    8      0.97      0.00
   11   12    8    -16.66      0.00
   12   12    8     36.00      0.00
   10   13    8     31.61      0.00
   11   13    8     27.24      0.00
   12   13    8    -22.97      0.00
   13   13    8     26.20      0.00
    9   14    8     52.35      0.00
   10   14    8      7.13      0.00
   11   14    8     -0.91      0.00
   12   14    8    -10.62      0.00
   13   14    8    -13.97      0.00
   14   14    8     46.34      0.00
    9   15    8     27.61      0.00
   10   15    8    -33.95      0.00
   11   15    8    -18.70      0.00
   12   15    8      0.05      0.00
   13   15    8    -16.93      0.00
   14   15    8    -21.70      0.00
   15   15    8     18.06      0.00
    9   16    8    -25.71      0.00
   10   16    8     13.85      0.00
   11   16    8     16.82      0.00
   12   16    8     17.33      0.00
   13   16    8    -27.84      0.00
   14   16    8     -8.89      0.00
    8   17    8     -6.45      0.00
    9   17    8     -3.71      0.00
   10   17    8     19.63      0.00
   11   17    8    -20.76      0.00
   12   17    8     -0.80      0.00
    8   18    8     23.68      0.00
    9   18    8     -7.70      0.00
   10   18    8     -8.33      0.00
   11   18    8     -6.64      0.00
    7   19    8    -52.47      0.00
    8   19    8    -14.00      0.00
    9   19    8     -8.54      0.00
    3   20    8     35.63      0.00
    4   20    8    -38.86      0.00
    5   20    8    -61.10      0.00
    6   20    8     47.85      0.00
    7   20    8     15.06      0.00
    2   21    8     15.22      0.00
    3   21    8    -15.51      0.00
    9   10    9     23.61      0.00
    9   11    9      0.97      0.00
   10   11    9     20.55      0.00
   10   12    9     -5.69      0.00
   11   12    9     10.08      0.00
   10   13    9     19.41      0.00
   11   13    9     11.84      0.00
   12   13    9    -17.96      0.00
    9   14    9    -12.97      0.00
   10   14    9    -18.74      0.00
   11   14    9     -1.92      0.00
   12   14    9    -13.55      0.00
   13   14    9      2.40      0.00
    9   15    9    -10.17      0.00
   10   15    9      0.95      0.00
   11   15    9      7.69      0.00
   12   15    9    -18.43      0.00
   13   15    9     24.71      0.00
   14   15    9    -21.31      0.00
    9   16    9     -0.89      0.00
   10   16    9    -25.34      0.00
   11   16    9      9.47      0.00
   12   16    9     29.06      0.00
   13   16    9     17.37      0.00
    9   17    9      3.31      0.00
   10   17    9      0.82      0.00
   11   17    9    -15.07      0.00
   12   17    9      6.85      0.00
    9   18    9    -44.00      0.00
   10   18    9     31.44      0.00
   11   18    9      1.97      0.00
    7   19    9    -21.91      0.00
    8   19    9    -30.12      0.00
    9   19    9     21.15      0.00
    3   20    9    -10.73      0.00
    4   20    9     15.36      0.00
    5   20    9     42.66      0.00
    6   20    9     28.56      0.00
    7   20    9      2.59      0.00
    0   21    9    -26.50      0.00
    1   21    9     34.23      0.00
    2   21    9     -0.93      0.00
    3   21    9      5.47      0.00
    9   10   10     14.38      0.00
   10   10   10      7.44      0.00
    8   11   10     -4.33      0.00
   10   11   10     11.57      0.00
   11   11   10      1.58      0.00
   10   12   10     10.30      0.00
   11   12   10      7.15      0.00
   12   12   10    -18.54      0.00
   10   13   10    -40.75      0.00
   11   13   10    -14.49      0.00
   12   13   10     -2.18      0.00
   13   13   10    -13.99      0.00
    9   14   10     11.33      0.00
   10   14   10     -6.15      0.00
   11   14   10    -10.11      0.00
   12   14   10    -10.75      0.00
   13   14   10     41.68      0.00
   14   14   10     29.76      0.00
    9   15   10     11.21      0.00
   10   15   10     -7.96      0.00
   11   15   10    -10.35      0.00
   12   15   10    -14.81      0.00
   13   15   10     -6.55      0.00
   14   15   10     20.97      0.00
    9   16   10    -24.91      0.00
   10   16   10     -6.54      0.00
   11   16   10     -7.28      0.00
   12   16   10    -12.29      0.00
   13   16   10    -43.60      0.00
    9   17   10    -19.40      0.00
   10   17   10      8.39      0.00
   11   17   10    -21.09      0.00
   12   17   10      6.61      0.00
    9   18   10    -10.51      0.00
   10   18   10     13.19      0.00
    7   19   10     61.73      0.00
    8   19   10     10.39      0.00
    9   19   10    -11.93      0.00
    0   20   10     27.88      0.00
    1   20   10    -20.75      0.00
    3   20   10     -5.79      0.00
    4   20   10     21.37      0.00
    5   20   10     20.57      0.00
    6   20   10    -13.60      0.00
    1   21   10    -15.52      0.00
   11   12   11     16.87      0.00
   11   13   11     14.12      0.00
   12   13   11     -7.39      0.00
   11   14   11     -1.97      0.00
   12   14   11     -7.82      0.00
   13   14   11     -2.14      0.00
    9   15   11     38.37      0.00
   10   15   11     20.14      0.00
   11   15   11     -3.76      0.00
   12   15   11    -14.26      0.00
   13   15   11     13.03      0.00
   14   15   11      5.78      0.00
    9   16   11    -13.77      0.00
   10   16   11     24.52      0.00
   11   16   11     19.24      0.00
   12   16   11     -2.18      0.00
   13   16   11     26.75      0.00
    9   17   11    -12.67      0.00
   10   17   11      9.83      0.00
   11   17   11     16.05      0.00
   12   17   11     14.84      0.00
    9   18   11     -8.90      0.00
   10   18   11      3.23      0.00
    6   19   11     -1.71      0.00
    7   19   11     -2.86      0.00
    8   19   11     20.65      0.00
    1   20   11    -25.37      0.00
    2   20   11    -22.54      0.00
    3   20   11     39.41      0.00
    4   20   11     -6.53      0.00
    5   20   11    -22.18      0.00
    6   20   11     20.28      0.00
   11   11   12     -6.86      0.00
    6   12   12    -11.95      0.00
   11   12   12     38.08      0.00
   12   12   12      1.93      0.00
   11   13   12     -3.32      0.00
   12   13   12     -0.76      0.00
   13   13   12      2.60      0.00
   11   14   12     18.45      0.00
   12   14   12     18.35      0.00
   13   14   12     25.23      0.00
   14   14   12    -10.93      0.00
   10   15   12     -2.68      0.00
   11   15   12     16.67      0.00
   12   15   12     22.71      0.00
   13   15   12      6.38      0.00
   14   15   12      2.89      0.00
    8   16   12    -11.24      0.00
   10   16   12     29.58      0.00
   11   16   12     10.97      0.00
   12   16   12     -8.52      0.00
   13   16   12    -21.20      0.00
   10   17   12     -0.06      0.00
   11   17   12      4.97      0.00
    9   18   12    -39.41      0.00
   10   18   12    -10.89      0.00
    6   19   12    -18.90      0.00
    7   19   12      3.19      0.00
    8   19   12      8.56      0.00
    0   20   12     22.51      0.00
    1   20   12     30.21      0.00
    2   20   12     17.51      0.00
    3   20   12     12.09      0.00
    4   20   12    -11.26      0.00
    5   20   12      5.87      0.00
    5   12   13     15.18      0.00
   11   12   13     24.50      0.00
   11   13   13    -32.61      0.00
   12   13   13    -35.30      0.00
   11   14   13     15.88      0.00
   12   14   13    -18.17      0.00
   13   14   13     25.16      0.00
   10   15   13      4.65      0.00
   11   15   13      2.31      0.00
   12   15   13     -8.76      0.00
   13   15   13    -10.65      0.00
   10   16   13    -24.86      0.00
   11   16   13     -2.61      0.00
   12   16   13     -3.59      0.00
   10   17   13    -25.26      0.00
   11   17   13    -15.16      0.00
    9   18   13    -17.60      0.00
    5   19   13    -13.75      0.00
    6   19   13    -12.71      0.00
    7   19   13     -9.06      0.00
    1   20   13      1.11      0.00
    2   20   13     14.43      0.00
    3   20   13    -19.80      0.00
    4   20   13     -1.05      0.00
    8    8   14    -11.22      0.00
   11   11   14     23.36      0.00
    4   12   14     14.78      0.00
   12   12   14     25.11      0.00
   12   13   14    -43.48      0.00
   13   13   14     20.06      0.00
   12   14   14      9.96      0.00
   13   14   14      2.91      0.00
   14   14   14    -27.15      0.00
    9   15   14    -21.38      0.00
   10   15   14     44.08      0.00
   11   15   14      7.61      0.00
   12   15   14     10.15      0.00
   13   15   14    -15.34      0.00
   10   16   14     -1.97      0.00
   11   16   14     -2.60      0.00
   12   16   14    -24.71      0.00
   10   17   14     -7.12      0.00
   11   17   14     18.05      0.00
    9   18   14    -16.13      0.00
    4   19   14     24.08      0.00
    5   19   14     -5.92      0.00
    6   19   14     -9.34      0.00
    7   19   14      3.45      0.00
    0   20   14      7.98      0.00
    1   20   14     -4.73      0.00
    2   20   14     -8.52      0.00
    3   20   14      5.84      0.00
    7    8   15     -5.83      0.00
    3   12   15    -16.63      0.00
   12   13   15     -3.57      0.00
   12   14   15      7.24      0.00
   13   14   15      0.32      0.00
    8   15   15     -8.43      0.00
    9   15   15    -23.79      0.00
   12   15   15     23.10      0.00
   13   15   15     19.74      0.00
    9   16   15     14.22      0.00
   10   16   15    -13.82      0.00
   11   16   15      0.96      0.00
   12   16   15      3.53      0.00
    9   17   15    -25.48      0.00
   10   17   15     20.99      0.00
    0   19   15      0.96      0.00
    1   19   15    -12.16      0.00
    2   19   15      8.99      0.00
    3   19   15     32.71      0.00
    4   19   15     12.84      0.00
    5   19   15    -12.79      0.00
    6   19   15      9.49      0.00
    0    0   16     91.18      0.00
    7    7   16      1.25      0.00
    6    8   16     24.67      0.00
   12   12   16     59.84      0.00
   12   13   16     -7.80      0.00
   13   13   16    -12.66      0.00
   12   14   16     -8.49      0.00
   13   14   16     12.04      0.00
    7   15   16     19.48      0.00
   12   15   16      0.94      0.00
    5   16   16     47.78      0.00
    8   16   16     16.42      0.00
    9   16   16      8.76      0.00
   10   16   16     -1.95      0.00
   11   16   16     -1.45      0.00
    8   17   16     -0.90      0.00
    9   17   16      3.73      0.00
   10   17   16      2.04      0.00
    8   18   16      7.12      0.00
    1   19   16      3.95      0.00
    2   19   16     21.97      0.00
    3   19   16     21.72      0.00
    4   19   16    -15.06      0.00
    5   19   16     16.27      0.00
    6    7   17    -23.93      0.00
    5    8   17    -19.86      0.00
    0   11   17    -11.54      0.00
   12   13   17      1.76      0.00
   12   14   17    -32.30      0.00
   13   14   17    -16.92      0.00
   12   15   17    -23.47      0.00
    7   16   17    -29.77      0.00
    8   16   17      4.01      0.00
    9   16   17     22.27      0.00
   10   16   17     22.03      0.00
   11   16   17    -24.00      0.00
    7   17   17     27.86      0.00
    8   17   17     -6.39      0.00
    9   17   17    -12.35      0.00
    7   18   17      0.87      0.00
    0   19   17     13.84      0.00
    1   19   17     11.87      0.00
    2   19   17     18.19      0.00
    3   19   17      5.79      0.00
    4   19   17    -11.24      0.00
    0    0   18     55.05      0.00
    6    6   18    -11.19      0.00
    5    7   18     24.57      0.00
    4    8   18      3.59      0.00
   13   13   18     -6.16      0.00
   12   14   18     51.14      0.00
   13   14   18      1.73      0.00
    5   16   18      9.37      0.00
    6   16   18    -39.51      0.00
    7   16   18    -18.59      0.00
    8   16   18      8.72      0.00
    9   16   18    -12.51      0.00
   10   16   18      3.86      0.00
    6   17   18     24.89      0.00
    7   17   18     26.61      0.00
    8   17   18     12.47      0.00
    6   18   18    -19.27      0.00
    1   19   18    -17.70      0.00
    2   19   18      5.72      0.00
    5    6   19    -13.07      0.00
    4    7   19     14.36      0.00
   12   14   19      1.04      0.00
   11   15   19      4.19      0.00
    4   16   19    -31.22      0.00
    5   16   19    -34.52      0.00
    6   16   19     31.96      0.00
    7   16   19     48.01      0.00
    8   16   19    -25.68      0.00
    9   16   19    -22.86      0.00
    4   17   19     10.95      0.00
    5   17   19     22.49      0.00
    6   17   19      9.49      0.00
    7   17   19    -22.69      0.00
    4   18   19     12.98      0.00
    5   18   19     -9.76      0.00
    0    0   20     43.95      0.00
    5    5   20     14.74      0.00
    4    6   20    -21.57      0.00
   12   13   20     -5.18      0.00
   13   13   20     10.67      0.00
   11   14   20     15.15      0.00
   10   15   20     -4.80      0.00
    3   16   20     -6.06      0.00
    4   16   20     29.06      0.00
    5   16   20    -11.07      0.00
    6   16   20     17.73      0.00
    7   16   20    -34.68      0.00
    8   16   20    -58.57      0.00
    9   16   20      9.30      0.00
    3   17   20    -29.37      0.00
    4   17   20     17.34      0.00
    5   17   20      2.24      0.00
    6   17   20      1.08      0.00
    7   17   20      4.89      0.00
    0   18   20     28.05      0.00
    1   18   20     -3.11      0.00
    3   18   20      8.00      0.00
   11   13   21     -9.73      0.00
   12   13   21      5.24      0.00
   11   14   21     10.91      0.00
    0   15   21    -64.77      0.00
    1   15   21     -0.86      0.00
    2   16   21    -17.82      0.00
    3   16   21     -4.99      0.00
    4   16   21     -7.01      0.00
    5   16   21     31.11      0.00
    6   16   21    -29.65      0.00
    7   16   21     -7.12      0.00
    8   16   21      2.67      0.00
    2   17   21      1.88      0.00
    3   17   21      7.95      0.00
    4   17   21      3.55      0.00
    5   17   21     -0.29      0.00
    0    0   22     84.38      0.00
   12   12   22     26.75      0.00
   11   13   22     -2.24      0.00
    0   14   22    -11.61      0.00
   10   14   22     -7.18      0.00
    9   15   22      7.47      0.00
    1   16   22    -18.88      0.00
    2   16   22    -10.48      0.00
    3   16   22    -25.35      0.00
    4   16   22      5.56      0.00
    5   16   22     -0.25      0.00
    7   16   22    -21.40      0.00
    1   17   22    -24.57      0.00
    2   17   22    -13.40      0.00
    3   17   22     19.54      0.00
    4   17   22     -5.82      0.00
   11   12   23    -22.94      0.00
   10   13   23    -30.40      0.00
   11   13   23     12.39      0.00
    1   14   23     27.99      0.00
    9   14   23    -26.48      0.00
    0   15   23      2.76      0.00
    1   15   23      2.53      0.00
    8   15   23     -8.09      0.00
    1   16   23     -6.26      0.00
    2   16   23     -3.67      0.00
    3   16   23     26.37      0.00
    4   16   23     17.55      0.00
    6   16   23     -2.07      0.00
    0   17   23     20.32      0.00
    1   17   23      2.11      0.00
    2   17   23    -25.31      0.00
    0    0   24    -41.89      0.00
    1    1   24     14.13      0.00
   11   11   24     25.25      0.00
   10   12   24     34.46      0.00
   11   12   24      4.17      0.00
    9   13   24      5.02      0.00
   10   13   24    -19.17      0.00
    0   14   24    -31.77      0.00
    1   14   24     -2.78      0.00
    8   14   24     -9.18      0.00
    9   14   24      1.54      0.00
    1   15   24    -11.87      0.00
    6   15   24     -8.39      0.00
    7   15   24    -14.88      0.00
    0   16   24      3.97      0.00
    1   16   24      8.99      0.00
    2   16   24      9.18      0.00
    3   16   24     -2.15      0.00
    4   16   24    -18.58      0.00
    0    1   25    -14.83      0.00
    0    3   25     20.93      0.00
   10   11   25      5.18      0.00
    9   12   25     20.34      0.00
   10   12   25    -30.18      0.00
    8   13   25     -1.44      0.00
    9   13   25      8.45      0.00
    1   14   25     18.18      0.00
    6   14   25    -53.04      0.00
    7   14   25     21.29      0.00
    8   14   25     -7.98      0.00
    0   15   25      3.59      0.00
    1   15   25      5.05      0.00
    5   15   25      8.91      0.00
    1   16   25     -9.50      0.00
    2   16   25     -1.42      0.00
    0    0   26    -50.54      0.00
    1    1   26     49.27      0.00
    8    8   26    -23.88      0.00
   10   10   26    -24.48      0.00
    9   11   26      9.74      0.00
   10   11   26    -41.10      0.00
   11   11   26    -32.40      0.00
    8   12   26    -35.86      0.00
    9   12   26     -5.65      0.00
    6   13   26    -19.64      0.00
    7   13   26      5.75      0.00
    8   13   26      7.35      0.00
    0   14   26     30.87      0.00
    1   14   26     -7.69      0.00
    2   14   26     -7.64      0.00
    5   14   26      2.06      0.00
    6   14   26      5.85      0.00
    1   15   26      2.57      0.00
    2   15   26    -17.13      0.00
    3   15   26     -7.05      0.00
    4   15   26      1.72      0.00
    0    1   27     14.77      0.00
    9   10   27     -4.64      0.00
    8   11   27     39.00      0.00
    9   11   27     20.64      0.00
   10   11   27      3.27      0.00
    6   12   27     21.74      0.00
    7   12   27      9.63      0.00
    8   12   27     13.95      0.00
    0   13   27    -16.12      0.00
    5   13   27     10.05      0.00
    6   13   27      7.44      0.00
    7   13   27     26.99      0.00
    3   14   27      9.19      0.00
    4   14   27    -23.31      0.00
    5   14   27     32.11      0.00
    0    0   28     -6.78      0.00
    1    1   28     32.75      0.00
    0    2   28    -21.79      0.00
    9    9   28    -31.86      0.00
    8   10   28     10.51      0.00
    9   10   28     10.73      0.00
   10   10   28      2.89      0.00
    6   11   28     -2.97      0.00
    7   11   28    -31.98      0.00
    8   11   28      3.83      0.00
    9   11   28     20.92      0.00
    0   12   28    -16.98      0.00
    5   12   28    -12.16      0.00
    6   12   28     -0.12      0.00
    7   12   28     12.84      0.00
    3   13   28     -3.62      0.00
    4   13   28     17.21      0.00
    5   13   28      1.78      0.00
    6   13   28     15.00      0.00
    0   14   28    -24.03      0.00
    2   14   28      5.51      0.00
    3   14   28    -14.08      0.00
    0    1   29    -34.64      0.00
    1    2   29     26.63      0.00
    1    9   29      3.53      0.00
    8    9   29     21.73      0.00
    7   10   29    -37.37      0.00
    8   10   29     21.99      0.00
    9   10   29      0.97      0.00
    0   11   29    -30.46      0.00
    5   11   29     -8.52      0.00
    6   11   29     10.74      0.00
    7   11   29    -13.33      0.00
    8   11   29      5.27      0.00
    4   12   29     12.67      0.00
    5   12   29     29.00      0.00
    6   12   29    -16.86      0.00
    0   13   29     11.77      0.00
    2   13   29     19.35      0.00
    3   13   29     17.27      0.00
    4   13   29      8.19      0.00
    0    0   30     76.90      0.00
    1    1   30      2.10      0.00
    0    2   30    -11.78      0.00
    1    2   30     -0.04      0.00
    2    2   30    -32.55      0.00
    7    8   30      3.46      0.00
    8    8   30     -6.68      0.00
    6    9   30     36.29      0.00
    7    9   30    -14.50      0.00
    8    9   30      4.09      0.00
    9    9   30     11.93      0.00
    0   10   30      0.84      0.00
    5   10   30    -11.30      0.00
    6   10   30     30.98      0.00
    7   10   30     13.34      0.00
    8   10   30     -4.04      0.00
    4   11   30     15.50      0.00
    5   11   30     -5.16      0.00
    6   11   30     -3.62      0.00
    0   12   30    -24.58      0.00
    3   12   30     -3.87      0.00
    4   12   30    -25.29      0.00
    0    1   31    -33.91      0.00
    1    2   31      4.97      0.00
    6    8   31    -27.42      0.00
    7    8   31      1.30      0.00
    0    9   31      1.91      0.00
    5    9   31    -11.38      0.00
    6    9   31    -27.41      0.00
    7    9   31      0.90      0.00
    4   10   31    -14.00      0.00
    5   10   31      8.23      0.00
    6   10   31     17.20      0.00
    0   11   31      3.38      0.00
    3   11   31    -11.72      0.00
    4   11   31     18.49      0.00
    0    0   32     28.81      0.00
    1    1   32      5.43      0.00
    0    2   32     10.45      0.00
    1    2   32      0.72      0.00
    2    2   32     10.28      0.00
    1    3   32    -12.04      0.00
    2    3   32      7.56      0.00
    3    3   32    -26.00      0.00
    0    6   32     35.86      0.00
    6    7   32      5.68      0.00
    7    7   32     -1.04      0.00
    0    8   32    -22.25      0.00
    5    8   32     -8.88      0.00
    6    8   32     -9.94      0.00
    7    8   32     -9.56      0.00
    4    9   32     11.05      0.00
    5    9   32     13.28      0.00
    6    9   32     -1.21      0.00
    0   10   32    -28.79      0.00
    3   10   32     10.07      0.00
    4   10   32    -21.94      0.00
    0    1   33     22.43      0.00
    1    2   33     -9.29      0.00
    0    3   33     20.86      0.00
    1    3   33      3.93      0.00
    2    3   33     11.09      0.00
    0    5   33    -15.29      0.00
    5    6   33    -15.90      0.00
    0    7   33     37.48      0.00
    4    7   33     -8.10      0.00
    5    7   33     -1.23      0.00
    6    7   33     -0.64      0.00
    4    8   33      4.67      0.00
    5    8   33     18.96      0.00
    0    9   33     -5.54      0.00
    1    9   33     36.91      0.00
    2    9   33      7.40      0.00
    3    9   33     14.67      0.00
    4    9   33     -8.05      0.00
    0    0   34     12.33      0.00
    1    1   34      5.51      0.00
    0    2   34     13.84      0.00
    1    2   34    -22.23      0.00
    2    2   34     11.25      0.00
    1    3   34    -31.45      0.00
    2    3   34      4.11      0.00
    3    3   34    -15.82      0.00
    0    4   34      5.46      0.00
    1    4   34     -2.55      0.00
    2    4   34     -6.74      0.00
    3    4   34      3.48      0.00
    4    4   34      9.06      0.00
    4    5   34      1.80      0.00
    5    5   34     -6.03      0.00
    0    6   34    -19.98      0.00
    4    6   34     -1.30      0.00
    5    6   34     13.89      0.00
    6    6   34      8.96      0.00
    3    7   34     -8.52      0.00
    4    7   34     -6.80      0.00
    5    7   34     -3.53      0.00
    0    8   34      8.52      0.00
    1    8   34      0.66      0.00
    2    8   34     12.35      0.00
    3    8   34    -12.86      0.00
    0    1   35    -30.14      0.00
    1    2   35    -11.21      0.00
    0    3   35     -0.44      0.00
    1    3   35      6.60      0.00
    2    3   35      1.35      0.00
    1    4   35     -7.01      0.00
    2    4   35      3.08      0.00
    3    4   35    -13.60      0.00
    0    5   35      6.34      0.00
    2    5   35     -5.29      0.00
    3    5   35     -9.82      0.00
    4    5   35    -18.77      0.00
    1    6   35     -1.63      0.00
    2    6   35    -19.45      0.00
    3    6   35      1.76      0.00
    0    7   35      3.29      0.00
    1    7   35      8.29      0.00
    0    0    0      0.00      0.00
# SQUEEZE RESULTS (Version =  70515)
# Note: Data are Listed for all Voids in the P1 Unit Cell
# i.e. Centre of Gravity, Solvent Accessible Volume,
# Recovered number of Electrons in the Void and
# Details about the Squeezed Material
loop_
  _platon_squeeze_void_nr
  _platon_squeeze_void_average_x
  _platon_squeeze_void_average_y
  _platon_squeeze_void_average_z
  _platon_squeeze_void_volume
  _platon_squeeze_void_count_electrons
  _platon_squeeze_void_content
   1 -0.010  0.410 -0.004      8533      3952 ' '
# Missing Reflections Below sin(th)/lambda = 0.25
loop_
  _platon_missing_refln_index_h
  _platon_missing_refln_index_k
  _platon_missing_refln_index_l
  _platon_missing_refln_theta
    1    1    0     1.444
    2    2    0     2.888
    3    3    0     4.335
    3    4    0     5.110
    4    4    0     5.784
    4    5    0     6.550
    5    5    0     7.237
    5    6    0     7.998
    6    6    0     8.694
    5    7    0     8.815
    6    7    0     9.453
    0    1    1     1.185
    4    5    1     6.578
    5    6    1     8.021
    5    7    1     8.836
    6    7    1     9.473
    0    0    2     1.205
    4    4    2     5.909
    4    5    2     6.661
    5    5    2     7.337
    5    6    2     8.089
    6    6    2     8.779
    6    7    2     9.531
    6    7    3     9.628
    6    6    4     9.027
    0    0   16     9.683
_platon_squeeze_void_probe_radius                  1.20
_platon_squeeze_details
)
TITL g2yy_3xnewP 4/m n cl1  R = 0.34
CELL   19.3348   19.3348   32.7680     90.00     90.00     90.00
SPGR P4/mnc
# Solvent Accessible Volume =    8610.7
# Electrons Found in S.A.V. =    3851.5
# Note: Atoms in Void as Cxxx and Qxxx all others
C101 0.500 0.498 0.305 !       6.59 eA-3
C102 0.791 0.091 0.101 !       3.82 eA-3
C103 0.265 0.906 0.092 !       3.82 eA-3
C104 0.482 0.452 0.310 !       3.75 eA-3
C105 0.652 0.156-0.003 !       3.74 eA-3
Q106 0.339 0.407 0.381 !       3.72 eA-3
C107 0.089 0.189 0.218 !       3.65 eA-3
C108 0.653 0.156 0.248 !       3.53 eA-3
C109 0.674 0.266 0.264 !       3.51 eA-3
C110 0.211 0.326 0.281 !       3.46 eA-3
C111 0.720 0.236 0.151 !       3.44 eA-3
C112 0.213 0.344 0.002 !       3.43 eA-3
C113 0.762 0.219 0.503 !       3.41 eA-3
C114 0.790 0.140 0.085 !       3.34 eA-3
C115 0.353 0.031-0.001 !       3.28 eA-3
C116 0.071 0.565 0.444 !       3.24 eA-3
C117 0.188 0.501 0.189 !       3.15 eA-3
Q118 0.531 0.200 0.437 !       3.11 eA-3
C119 1.000 0.998 0.336 !       3.10 eA-3
C120 0.843 0.125 0.189 !       3.10 eA-3
C121 0.291 0.906 0.055 !       3.10 eA-3
Q122 0.683 0.734 0.312 !       3.08 eA-3
Q123 0.783 0.328 0.503 !       3.01 eA-3
C124 0.703 0.720 0.134 !       3.01 eA-3
C125 0.768 0.499 0.201 !       3.01 eA-3
C126 0.279 0.359 0.390 !       3.00 eA-3
C127 0.124 0.251 0.215 !       2.97 eA-3
C128 0.783 0.733 0.389 !       2.95 eA-3
C129 0.490 0.795 0.174 !       2.92 eA-3
C130 1.001 0.938 0.276 !       2.92 eA-3
C131 0.898 0.610 0.479 !       2.91 eA-3
C132 0.123 0.140 0.238 !       2.87 eA-3
C133 0.838 0.783 0.439 !       2.86 eA-3
C134 1.000 1.000 0.375 !       2.84 eA-3
C135 0.637 0.753 0.080 !       2.83 eA-3
C136 0.177 0.283 0.422 !       2.83 eA-3
C137 0.440 0.769 0.144 !       2.81 eA-3
C138 0.629 0.155 0.462 !       2.78 eA-3
C139 0.128 0.859 0.359 !       2.76 eA-3
C140 0.371 0.875 0.431 !       2.76 eA-3
C141 0.323 0.109-0.001 !       2.76 eA-3
C142 0.549 0.607 0.233 !       2.75 eA-3
C143 0.403 0.937 0.046 !       2.73 eA-3
Q144 0.641 0.094 0.275 !       2.72 eA-3
C145 0.243 0.812 0.142 !       2.71 eA-3
C146 0.598 0.172 0.003 !       2.69 eA-3
Q147 0.213 0.203 0.001 !       2.69 eA-3
C148 0.207 0.125 0.498 !       2.69 eA-3
C149 0.748 0.674 0.129 !       2.68 eA-3
C150 0.810 0.313 0.032 !       2.67 eA-3
Q151 0.185 0.781 0.235 !       2.67 eA-3
C152 0.719 0.627 0.304 !       2.67 eA-3
C153 0.798 0.733 0.456 !       2.66 eA-3
C154 0.298 0.764 0.950 !       2.66 eA-3
C155 0.490 0.031 0.031 !       2.64 eA-3
C156 0.309 1.000 0.350 !       2.64 eA-3
C157 0.508 0.546 0.188 !       2.62 eA-3
Q158 0.532 0.202 0.472 !       2.62 eA-3
C159 0.852 0.572 0.452 !       2.61 eA-3
C160 1.000 0.996 0.242 !       2.61 eA-3
C161 0.792 0.702 0.296 !       2.60 eA-3
C162 0.264 0.217 0.388 !       2.58 eA-3
C163 0.732 0.673 0.155 !       2.58 eA-3
C164 0.594 0.063 0.063 !       2.57 eA-3
C165 0.845 0.718 0.280 !       2.57 eA-3
C166 0.035 0.230 0.330 !       2.57 eA-3
Q167 0.567 0.247 0.274 !       2.56 eA-3
C168 0.260 0.233 0.043 !       2.55 eA-3
Q169 0.579 0.422 0.502 !       2.53 eA-3
C170 0.801 0.779 0.107 !       2.52 eA-3
Q171 0.685 0.108 0.219 !       2.51 eA-3
C172 0.681 0.312 0.325 !       2.50 eA-3
C173 0.606 0.184 0.194 !       2.50 eA-3
C174 0.219 0.706 0.015 !       2.50 eA-3
Q175 0.828 0.082 0.179 !       2.50 eA-3
C176 0.066 0.372 0.376 !       2.49 eA-3
Q177 0.531 0.621 0.483 !       2.49 eA-3
C178 0.987 0.405 0.454 !       2.48 eA-3
C179 0.543 0.173 0.210 !       2.46 eA-3
C180 0.713 0.486 0.196 !       2.46 eA-3
C181 0.158 0.593 0.072 !       2.46 eA-3
C182 0.039 0.437 0.440 !       2.46 eA-3
Q183 0.471 0.219 0.494 !       2.46 eA-3
C184 0.760 0.219 0.174 !       2.46 eA-3
C185 0.607 0.155 0.099 !       2.46 eA-3
C186 0.861 0.251 0.476 !       2.45 eA-3
C187 0.064 0.989 0.211 !       2.44 eA-3
C188 0.108 0.331 0.359 !       2.44 eA-3
C189 0.631 0.966 0.053 !       2.43 eA-3
C190 0.414 0.077 0.413 !       2.41 eA-3
C191 0.962 0.295 0.334 !       2.41 eA-3
C192 0.057 0.281 0.305 !       2.41 eA-3
C193 0.781 0.640 0.156 !       2.41 eA-3
Q194 0.643 0.047 0.263 !       2.41 eA-3
Q195 0.039 0.171 0.242 !       2.40 eA-3
C196 0.841 0.812 0.223 !       2.40 eA-3
C197 0.734 0.495 0.023 !       2.40 eA-3
C198 0.139 0.453 0.001 !       2.40 eA-3
C199 0.788 0.673 0.374 !       2.39 eA-3
)
;
_shelx_shelxl_version_number     2014/7
_olex2_submission_special_instructions 'No special instructions were received'
loop_
_space_group_symop_operation_xyz
'x, y, z'
'-x, -y, z'
'-y, x, z'
'y, -x, z'
'-x+1/2, y+1/2, -z+1/2'
'x+1/2, -y+1/2, -z+1/2'
'y+1/2, x+1/2, -z+1/2'
'-y+1/2, -x+1/2, -z+1/2'
'-x, -y, -z'
'x, y, -z'
'y, -x, -z'
'-y, x, -z'
'x-1/2, -y-1/2, z-1/2'
'-x-1/2, y-1/2, z-1/2'
'-y-1/2, -x-1/2, z-1/2'
'y-1/2, x-1/2, z-1/2'
loop_
_atom_site_label
_atom_site_type_symbol
_atom_site_fract_x
_atom_site_fract_y
_atom_site_fract_z
_atom_site_U_iso_or_equiv
_atom_site_adp_type
_atom_site_occupancy
_atom_site_site_symmetry_order
_atom_site_calc_flag
_atom_site_refinement_flags_posn
_atom_site_refinement_flags_adp
_atom_site_refinement_flags_occupancy
_atom_site_disorder_assembly
_atom_site_disorder_group
Zr1 Zr 0.1216(2) 0.0459(2) 0.0000 0.0090(15) Uiso 1 2 d S TU P . .
Zr2 Zr 0.0000 0.0000 0.07467(14) 0.0023(17) Uiso 1 4 d S TU P . .
O5 O -0.0263(8) 0.0927(8) 0.1109(4) 0.057(5) Uiso 1 1 d . U . . .
O2 O 0.1703(9) 0.0647(9) -0.0624(5) 0.084(6) Uiso 1 1 d . U . . .
O4 O 0.0387(8) 0.0845(8) 0.0360(5) 0.074(6) Uiso 1 1 d . U . . .
O3 O 0.1580(14) 0.1477(14) 0.0000 0.095(9) Uiso 1 2 d S TU P . .
O1 O 0.2270(15) -0.0212(16) 0.0000 0.122(11) Uiso 1 2 d S TU P . .
C11 C -0.0245(11) 0.4164(9) 0.2226(6) 0.072(8) Uiso 1 1 d D U . . .
C3 C -0.0446(9) 0.1904(15) 0.1719(8) 0.109(10) Uiso 1 1 d D U . . .
H3 H -0.0295 0.1467 0.1798 0.131 Uiso 1 1 calc R . . . .
C12 C -0.02755(19) 0.47245(19) 0.2500 0.089(12) Uiso 1 2 d DS TU P . .
C1 C -0.0575(9) 0.1452(14) 0.1020(8) 0.081(8) Uiso 1 1 d D U . . .
C4 C -0.0494(9) 0.2443(14) 0.1998(9) 0.125(10) Uiso 1 1 d D U . . .
H4 H -0.0337 0.2367 0.2263 0.149 Uiso 1 1 calc R . . . .
C8 C -0.0781(10) 0.3674(13) 0.2215(7) 0.087(8) Uiso 1 1 d D U . . .
C13 C 0.0377(11) 0.4119(12) 0.1938(7) 0.105(11) Uiso 1 1 d D U . . .
H13A H 0.0220 0.4010 0.1668 0.157 Uiso 1 1 calc GR . . . .
H13B H 0.0685 0.3763 0.2032 0.157 Uiso 1 1 calc GR . . . .
H13C H 0.0615 0.4554 0.1935 0.157 Uiso 1 1 calc GR . . . .
C2 C -0.0634(7) 0.2046(14) 0.1317(8) 0.103(9) Uiso 1 1 d D U . . .
C5 C -0.0766(12) 0.3093(14) 0.1903(7) 0.102(9) Uiso 1 1 d D U . . .
C7 C -0.0864(12) 0.2706(14) 0.1218(9) 0.133(11) Uiso 1 1 d D U . . .
H7 H -0.0985 0.2794 0.0948 0.160 Uiso 1 1 calc R . . . .
C9 C -0.1318(12) 0.3682(12) 0.2500 0.076(11) Uiso 1 2 d DS TU P . .
C6 C -0.0925(12) 0.3243(15) 0.1499(8) 0.123(10) Uiso 1 1 d D U . . .
H6 H -0.1065 0.3683 0.1420 0.147 Uiso 1 1 calc R . . . .
C10 C -0.1861(12) 0.3139(12) 0.2500 0.101(14) Uiso 1 2 d DS TU P . .
H10A H -0.1772 0.2816 0.2284 0.151 Uiso 0.5 1 calc R . . A -1
H10B H -0.1857 0.2901 0.2757 0.151 Uiso 0.5 1 calc R . . A -1
H10C H -0.2305 0.3349 0.2459 0.151 Uiso 0.5 1 calc R . . A -1
loop_
_atom_type_symbol
_atom_type_description
_atom_type_scat_dispersion_real
_atom_type_scat_dispersion_imag
_atom_type_scat_source
C C 0.0030 0.0010 'International Tables Vol C Tables 4.2.6.8 and 6.1.1.4'
H H 0.0000 0.0000 'International Tables Vol C Tables 4.2.6.8 and 6.1.1.4'
O O 0.0110 0.0060 'International Tables Vol C Tables 4.2.6.8 and 6.1.1.4'
Zr Zr -11.6050 0.5510 'International Tables Vol C Tables 4.2.6.8 and 6.1.1.4'
loop_
_geom_angle_atom_site_label_1
_geom_angle_atom_site_label_2
_geom_angle_atom_site_label_3
_geom_angle
_geom_angle_site_symmetry_1
_geom_angle_site_symmetry_3
Zr1 Zr1 Zr1 90.0 3 11
Zr2 Zr1 Zr1 59.56(4) . 3
Zr2 Zr1 Zr1 59.56(4) . 11
Zr2 Zr1 Zr1 59.56(4) 9 11
Zr2 Zr1 Zr1 59.56(4) 9 3
Zr2 Zr1 Zr2 88.46(14) 9 .
O2 Zr1 Zr1 108.3(5) . 11
O2 Zr1 Zr1 108.3(5) 10 11
O2 Zr1 Zr1 108.1(5) 10 3
O2 Zr1 Zr1 108.1(5) . 3
O2 Zr1 Zr2 72.0(5) . 9
O2 Zr1 Zr2 160.5(5) . .
O2 Zr1 Zr2 72.0(5) 10 .
O2 Zr1 Zr2 160.5(5) 10 9
O2 Zr1 O2 127.5(9) 10 .
O2 Zr1 O1 74.8(5) 10 .
O2 Zr1 O1 74.8(5) . .
O4 Zr1 Zr1 33.7(4) 10 3
O4 Zr1 Zr1 33.7(4) . 3
O4 Zr1 Zr1 90.5(4) 4 3
O4 Zr1 Zr1 33.4(4) 4 11
O4 Zr1 Zr1 33.4(4) 11 11
O4 Zr1 Zr1 90.5(4) 11 3
O4 Zr1 Zr1 90.5(4) . 11
O4 Zr1 Zr1 90.5(4) 10 11
O4 Zr1 Zr2 88.3(5) 10 .
O4 Zr1 Zr2 88.3(5) . 9
O4 Zr1 Zr2 36.6(4) 4 .
O4 Zr1 Zr2 36.5(4) 10 9
O4 Zr1 Zr2 88.0(4) 11 .
O4 Zr1 Zr2 88.0(4) 4 9
O4 Zr1 Zr2 36.5(4) . .
O4 Zr1 Zr2 36.6(4) 11 9
O4 Zr1 O2 138.9(6) 10 10
O4 Zr1 O2 138.9(7) 11 10
O4 Zr1 O2 138.9(7) 4 .
O4 Zr1 O2 76.0(6) 10 .
O4 Zr1 O2 76.5(6) 4 10
O4 Zr1 O2 76.0(6) . 10
O4 Zr1 O2 138.9(6) . .
O4 Zr1 O2 76.5(6) 11 .
O4 Zr1 O4 66.8(8) 11 4
O4 Zr1 O4 73.1(8) . 4
O4 Zr1 O4 108.7(9) 10 4
O4 Zr1 O4 67.4(8) 10 .
O4 Zr1 O4 73.1(8) 10 11
O4 Zr1 O4 108.7(9) . 11
O4 Zr1 O1 145.5(4) . .
O4 Zr1 O1 82.6(7) 11 .
O4 Zr1 O1 82.6(7) 4 .
O4 Zr1 O1 145.5(4) 10 .
O3 Zr1 Zr1 175.4(8) . 11
O3 Zr1 Zr1 85.4(8) . 3
O3 Zr1 Zr2 117.6(5) . 9
O3 Zr1 Zr2 117.6(5) . .
O3 Zr1 O2 73.2(5) . .
O3 Zr1 O2 73.2(5) . 10
O3 Zr1 O4 85.6(8) . .
O3 Zr1 O4 146.4(4) . 4
O3 Zr1 O4 85.6(8) . 10
O3 Zr1 O4 146.4(4) . 11
O3 Zr1 O1 102.9(10) . .
O1 Zr1 Zr1 81.8(7) . 11
O1 Zr1 Zr1 171.8(7) . 3
O1 Zr1 Zr2 115.4(5) . .
O1 Zr1 Zr2 115.4(5) . 9
Zr1 Zr2 Zr1 60.89(8) 9 11
Zr1 Zr2 Zr1 91.54(14) . 9
Zr1 Zr2 Zr1 60.89(8) . 3
Zr1 Zr2 Zr1 60.89(8) 9 3
Zr1 Zr2 Zr1 60.89(8) . 11
Zr1 Zr2 Zr1 91.54(14) 11 3
O5 Zr2 Zr1 108.9(4) 2 9
O5 Zr2 Zr1 115.2(4) 4 3
O5 Zr2 Zr1 167.7(4) . 11
O5 Zr2 Zr1 167.7(4) 4 9
O5 Zr2 Zr1 76.9(4) 2 11
O5 Zr2 Zr1 76.9(4) . 3
O5 Zr2 Zr1 108.9(4) . .
O5 Zr2 Zr1 115.2(4) . 9
O5 Zr2 Zr1 115.2(4) 3 11
O5 Zr2 Zr1 108.9(4) 3 3
O5 Zr2 Zr1 76.9(4) 3 9
O5 Zr2 Zr1 167.7(4) 3 .
O5 Zr2 Zr1 108.9(4) 4 11
O5 Zr2 Zr1 76.9(4) 4 .
O5 Zr2 Zr1 115.2(4) 2 .
O5 Zr2 Zr1 167.7(4) 2 3
O5 Zr2 O5 114.9(8) 4 3
O5 Zr2 O5 73.2(4) 3 .
O5 Zr2 O5 114.9(8) 2 .
O5 Zr2 O5 73.2(4) 3 2
O5 Zr2 O5 73.2(4) 4 .
O5 Zr2 O5 73.2(4) 4 2
O4 Zr2 Zr1 90.8(4) . 9
O4 Zr2 Zr1 35.1(4) 3 3
O4 Zr2 Zr1 35.1(4) 2 9
O4 Zr2 Zr1 90.6(4) 2 3
O4 Zr2 Zr1 35.5(4) . 3
O4 Zr2 Zr1 90.6(4) 4 9
O4 Zr2 Zr1 90.8(4) 2 .
O4 Zr2 Zr1 90.5(4) 3 .
O4 Zr2 Zr1 35.1(4) . .
O4 Zr2 Zr1 90.8(4) 4 3
O4 Zr2 Zr1 90.6(4) . 11
O4 Zr2 Zr1 35.5(4) 2 11
O4 Zr2 Zr1 90.8(4) 3 11
O4 Zr2 Zr1 35.5(4) 3 9
O4 Zr2 Zr1 35.5(4) 4 .
O4 Zr2 Zr1 35.1(4) 4 11
O4 Zr2 O5 82.1(6) 4 2
O4 Zr2 O5 139.2(5) . 3
O4 Zr2 O5 146.5(6) 3 4
O4 Zr2 O5 146.5(6) 2 .
O4 Zr2 O5 139.2(5) 2 4
O4 Zr2 O5 82.1(6) 2 3
O4 Zr2 O5 77.6(5) . .
O4 Zr2 O5 146.5(6) . 2
O4 Zr2 O5 82.1(6) . 4
O4 Zr2 O5 139.2(5) 4 .
O4 Zr2 O5 77.6(5) 2 2
O4 Zr2 O5 139.2(5) 3 2
O4 Zr2 O5 77.6(5) 4 4
O4 Zr2 O5 146.5(6) 4 3
O4 Zr2 O5 82.1(6) 3 .
O4 Zr2 O5 77.6(5) 3 3
O4 Zr2 O4 70.6(4) 2 3
O4 Zr2 O4 109.6(9) 3 4
O4 Zr2 O4 70.6(4) 2 4
O4 Zr2 O4 70.6(4) 3 .
O4 Zr2 O4 109.6(9) 2 .
O4 Zr2 O4 70.6(4) 4 .
C1 O5 Zr2 131.5(17) . .
C1 O2 Zr1 132.5(16) 11 .
Zr1 O4 Zr1 112.9(7) . 3
Zr1 O4 Zr2 108.4(7) . .
Zr1 O4 Zr2 107.9(7) 3 .
C12 C11 C13 118.0(14) . .
C8 C11 C12 120.2(18) . .
C8 C11 C13 121.7(14) . .
C4 C3 H3 121.4 . .
C4 C3 C2 117(3) . .
C2 C3 H3 121.4 . .
C11 C12 C11 118.2(17) 7_455 .
C11 C12 C12 120.9(9) 7_455 8
C11 C12 C12 120.9(9) . 8
O5 C1 O2 124(2) . 12
O5 C1 C2 121(2) . .
O2 C1 C2 109(2) 12 .
C3 C4 H4 118.2 . .
C3 C4 C5 124(3) . .
C5 C4 H4 118.2 . .
C11 C8 C5 120.1(16) . .
C9 C8 C11 122(3) . .
C9 C8 C5 118.3(18) . .
C11 C13 H13A 109.5 . .
C11 C13 H13B 109.5 . .
C11 C13 H13C 109.5 . .
H13A C13 H13B 109.5 . .
H13A C13 H13C 109.5 . .
H13B C13 H13C 109.5 . .
C3 C2 C1 116(3) . .
C7 C2 C3 119(3) . .
C7 C2 C1 125(3) . .
C4 C5 C8 122(2) . .
C6 C5 C4 119(3) . .
C6 C5 C8 119(3) . .
C2 C7 H7 118.1 . .
C2 C7 C6 124(3) . .
C6 C7 H7 118.1 . .
C8 C9 C8 118(3) 7_455 .
C8 C9 C10 121.1(16) . .
C8 C9 C10 121.1(16) 7_455 .
C5 C6 C7 117(3) . .
C5 C6 H6 121.4 . .
C7 C6 H6 121.4 . .
C9 C10 H10A 109.5 . .
C9 C10 H10B 109.5 . .
C9 C10 H10C 109.5 . .
H10A C10 H10B 109.5 . .
H10A C10 H10C 109.5 . .
H10B C10 H10C 109.5 . .
loop_
_geom_bond_atom_site_label_1
_geom_bond_atom_site_label_2
_geom_bond_distance
_geom_bond_site_symmetry_2
Zr1 Zr1 3.555(6) 11
Zr1 Zr1 3.554(6) 3
Zr1 Zr2 3.508(4) 9
Zr1 Zr2 3.508(4) .
Zr1 O2 2.281(17) 10
Zr1 O2 2.281(17) .
Zr1 O4 2.141(16) 4
Zr1 O4 2.141(16) 11
Zr1 O4 2.125(16) 10
Zr1 O4 2.125(16) .
Zr1 O3 2.09(3) .
Zr1 O1 2.42(3) .
Zr2 Zr1 3.508(4) 9
Zr2 Zr1 3.508(4) 3
Zr2 Zr1 3.508(4) 11
Zr2 O5 2.209(16) .
Zr2 O5 2.209(16) 2
Zr2 O5 2.209(16) 4
Zr2 O5 2.209(16) 3
Zr2 O4 2.198(16) 4
Zr2 O4 2.198(16) 3
Zr2 O4 2.198(16) .
Zr2 O4 2.198(16) 2
O5 C1 1.22(3) .
O2 C1 1.39(3) 11
O4 Zr1 2.141(16) 3
C11 C12 1.410(9) .
C11 C8 1.406(10) .
C11 C13 1.528(10) .
C3 H3 0.9300 .
C3 C4 1.389(9) .
C3 C2 1.393(9) .
C12 C11 1.410(9) 7_455
C12 C12 1.507(10) 8
C1 O2 1.39(3) 12
C1 C2 1.510(18) .
C4 H4 0.9300 .
C4 C5 1.398(9) .
C8 C5 1.517(10) .
C8 C9 1.397(10) .
C13 H13A 0.9600 .
C13 H13B 0.9600 .
C13 H13C 0.9600 .
C2 C7 1.391(9) .
C5 C6 1.390(9) .
C7 H7 0.9300 .
C7 C6 1.393(9) .
C9 C8 1.397(10) 7_455
C9 C10 1.485(19) .
C6 H6 0.9300 .
C10 H10A 0.9600 .
C10 H10B 0.9600 .
C10 H10C 0.9600 .
loop_
_geom_torsion_atom_site_label_1
_geom_torsion_atom_site_label_2
_geom_torsion_atom_site_label_3
_geom_torsion_atom_site_label_4
_geom_torsion
_geom_torsion_site_symmetry_1
_geom_torsion_site_symmetry_4
Zr2 O5 C1 O2 -23(3) . 12
Zr2 O5 C1 C2 -174.5(8) . .
O5 C1 C2 C3 -13.3(15) . .
O5 C1 C2 C7 167.4(19) . .
O2 C1 C2 C3 -168.4(15) 12 .
O2 C1 C2 C7 12.3(15) 12 .
C11 C8 C5 C4 95(3) . .
C11 C8 C5 C6 -75(3) . .
C11 C8 C9 C8 3.5(18) . 7_455
C11 C8 C9 C10 -176.5(18) . .
C3 C4 C5 C8 -177.6(12) . .
C3 C4 C5 C6 -8(2) . .
C3 C2 C7 C6 0(2) . .
C12 C11 C8 C5 177(2) . .
C12 C11 C8 C9 -7(4) . .
C1 C2 C7 C6 178.9(14) . .
C4 C3 C2 C1 179.9(3) . .
C4 C3 C2 C7 -0.8(10) . .
C4 C5 C6 C7 6(3) . .
C8 C11 C12 C11 3.4(17) . 7_455
C8 C11 C12 C12 -176.6(17) . 8
C8 C5 C6 C7 176.2(18) . .
C13 C11 C12 C11 -178(3) . 7_455
C13 C11 C12 C12 2(3) . 8
C13 C11 C8 C5 -2(4) . .
C13 C11 C8 C9 174(2) . .
C2 C3 C4 C5 4.9(11) . .
C2 C7 C6 C5 -2(3) . .
C5 C8 C9 C8 180(3) . 7_455
C5 C8 C9 C10 0(3) . .
C9 C8 C5 C4 -82(3) . .
C9 C8 C5 C6 108(2) . .
