#------------------------------------------------------------------------------
#$Date: 2019-11-25 22:30:06 +0200 (Mon, 25 Nov 2019) $
#$Revision: 241967 $
#$URL: file:///home/coder/svn-repositories/cod/cif/4/13/18/4131834.cif $
#------------------------------------------------------------------------------
#
# This file is available in the Crystallography Open Database (COD),
# http://www.crystallography.net/
#
# All data on this site have been placed in the public domain by the
# contributors.
#
data_4131834
loop_
_publ_author_name
'Yan, Yong'
'O'Connor, Alice E'
'Kanthasamy, Gopikkaa'
'Atkinson, George'
'Allan, David R.'
'Blake, Alexander J.'
'Schr\"oder, Martin'
_publ_section_title
;
 Unusual and Tunable Negative Linear Compressibility in the Metal-Organic
 Framework MFM-133(M) (M = Zr, Hf).
;
_journal_issue                   11
_journal_name_full               'Journal of the American Chemical Society'
_journal_page_first              3952
_journal_page_last               3958
_journal_paper_doi               10.1021/jacs.7b11747
_journal_volume                  140
_journal_year                    2018
_chemical_formula_moiety         'C88 H72 Hf6 O32'
_chemical_formula_sum            'C88 H72 Hf6 O32'
_chemical_formula_weight         1378.20
_space_group_crystal_system      tetragonal
_space_group_IT_number           128
_space_group_name_Hall           '-P 4 2n'
_space_group_name_H-M_alt        'P 4/m n c'
_atom_sites_solution_hydrogens   geom
_audit_creation_date             2017-03-19
_audit_creation_method
;
Olex2 1.2
(compiled 2015.09.30 svn.r3233 for OlexSys, GUI svn.r5103)
;
_cell_angle_alpha                90
_cell_angle_beta                 90
_cell_angle_gamma                90
_cell_formula_units_Z            2
_cell_length_a                   19.4378(11)
_cell_length_b                   19.4378(11)
_cell_length_c                   32.104(2)
_cell_measurement_reflns_used    4385
_cell_measurement_temperature    293(2)
_cell_measurement_theta_max      13.6810
_cell_measurement_theta_min      1.9370
_cell_volume                     12129.8(12)
_computing_cell_refinement       'CrysAlisPro 1.171.38.41 (Rigaku OD, 2015)'
_computing_data_collection       'CrysAlisPro 1.171.38.41 (Rigaku OD, 2015)'
_computing_data_reduction        'CrysAlisPro 1.171.38.41 (Rigaku OD, 2015)'
_computing_molecular_graphics    'Olex2 (Dolomanov et al., 2009)'
_computing_publication_material  'Olex2 (Dolomanov et al., 2009)'
_computing_structure_refinement  'ShelXL (Sheldrick, 2015)'
_diffrn_ambient_temperature      293(2)
_diffrn_detector                 'CCD plate'
_diffrn_detector_area_resol_mean 16.1592
_diffrn_detector_type            Eos
_diffrn_measured_fraction_theta_full 0.930
_diffrn_measured_fraction_theta_max 0.930
_diffrn_measurement_details
;
List of Runs (angles in degrees, time in seconds):

  # Type    Start    End  Width  t~exp~   \w     \q     \k     \f   Frames
--------------------------------------------------------------------------
  1  \w      4.00  64.00   1.00  120.00    --   26.49   0.00 150.00   60
  2  \w     -5.00  44.00   1.00  120.00    --   26.49 -53.00  17.00   49
  3  \w    -49.00 -17.00   1.00  120.00    --   26.49 134.00 123.00   32
  4  \w    -30.00   8.00   1.00  120.00    --   26.49  39.00 -12.00   38
  5  \w    -25.00  16.00   1.00  120.00    --   26.49  13.00  -3.00   41
  6  \w     10.00  74.00   1.00  120.00    --   26.49 -97.00-143.00   64
  7  \w    -28.00 -16.00   1.00  120.00    --   26.49  97.00 -35.00   12
  8  \w    -57.00   1.00   1.00  120.00    --  -28.05  53.00 -17.00   58
  9  \w     -6.00  15.00   1.00  120.00    --  -28.05 -81.00  29.00   21
 10  \w      3.00  26.00   1.00  120.00    --  -28.05 -97.00  35.00   23
 11  \w    -21.00  13.00   1.00  120.00    --  -28.05 -53.00  17.00   34
 12  \w     -5.00  27.00   1.00  120.00    --  -28.05 -97.00-143.00   32
 13  \w    -20.00  10.00   1.00  120.00    --   26.49  81.00 151.00   30
 14  \w     -7.00  57.00   1.00  120.00    --   26.49 -37.00-180.00   64
 15  \w    -29.00 -16.00   1.00  120.00    --   26.49  97.00 -35.00   13
 16  \w     16.00  70.00   1.00  120.00    --   26.49-114.00  44.00   54
 17  \w    -52.00   6.00   1.00  120.00    --  -28.05  39.00 167.00   58
 18  \w    -24.00  29.00   1.00  120.00    --  -28.05 -39.00  12.00   53
 19  \w    -28.00  25.00   1.00  120.00    --  -28.05 -39.00-167.00   53
 20  \w     14.00  37.00   1.00  120.00    --  -28.05-114.00  44.00   23
;
_diffrn_measurement_device       'four-circle diffractometer'
_diffrn_measurement_device_type  'SuperNova, Single source at offset, Eos'
_diffrn_measurement_method       '\w scans'
_diffrn_orient_matrix_type
'CrysAlisPro convention (1999,Acta A55,543-557)'
_diffrn_orient_matrix_UB_11      -0.0017462000
_diffrn_orient_matrix_UB_12      0.0316400000
_diffrn_orient_matrix_UB_13      0.0109170000
_diffrn_orient_matrix_UB_21      -0.0348578000
_diffrn_orient_matrix_UB_22      -0.0067365000
_diffrn_orient_matrix_UB_23      0.0051643000
_diffrn_orient_matrix_UB_31      0.0107300000
_diffrn_orient_matrix_UB_32      -0.0167951000
_diffrn_orient_matrix_UB_33      0.0185137000
_diffrn_radiation_monochromator  mirror
_diffrn_radiation_probe          x-ray
_diffrn_radiation_type           MoK\a
_diffrn_radiation_wavelength     0.71073
_diffrn_reflns_av_R_equivalents  0.4199
_diffrn_reflns_av_unetI/netI     0.1234
_diffrn_reflns_Laue_measured_fraction_full 0.930
_diffrn_reflns_Laue_measured_fraction_max 0.930
_diffrn_reflns_limit_h_max       12
_diffrn_reflns_limit_h_min       -12
_diffrn_reflns_limit_k_max       10
_diffrn_reflns_limit_k_min       -10
_diffrn_reflns_limit_l_max       21
_diffrn_reflns_limit_l_min       -20
_diffrn_reflns_number            24034
_diffrn_reflns_point_group_measured_fraction_full 0.930
_diffrn_reflns_point_group_measured_fraction_max 0.930
_diffrn_reflns_theta_full        13.727
_diffrn_reflns_theta_max         13.727
_diffrn_reflns_theta_min         1.951
_diffrn_source                   'micro-focus sealed X-ray tube'
_diffrn_source_type              'SuperNova (Mo) X-ray Source'
_exptl_absorpt_coefficient_mu    2.588
_exptl_absorpt_correction_T_max  0.844
_exptl_absorpt_correction_T_min  0.823
_exptl_absorpt_correction_type   gaussian
_exptl_absorpt_process_details
;
CrysAlisPro 1.171.38.41 (Rigaku Oxford Diffraction, 2015)
Numerical absorption correction based on gaussian integration over
			a multifaceted crystal model
Empirical absorption correction using spherical harmonics,
 implemented in SCALE3 ABSPACK scaling algorithm.
;
_exptl_crystal_density_diffrn    0.755
_exptl_crystal_description       tablet
_exptl_crystal_F_000             2616
_exptl_crystal_size_max          0.103
_exptl_crystal_size_mid          0.088
_exptl_crystal_size_min          0.052
_refine_diff_density_max         1.435
_refine_diff_density_min         -1.776
_refine_diff_density_rms         0.264
_refine_ls_extinction_method     none
_refine_ls_goodness_of_fit_ref   1.475
_refine_ls_hydrogen_treatment    constr
_refine_ls_matrix_type           full
_refine_ls_number_parameters     76
_refine_ls_number_reflns         916
_refine_ls_number_restraints     73
_refine_ls_restrained_S_all      6.965
_refine_ls_R_factor_all          0.165
_refine_ls_R_factor_gt           0.132
_refine_ls_shift/su_max          0.039
_refine_ls_shift/su_mean         0.006
_refine_ls_structure_factor_coef Fsqd
_refine_ls_weighting_details
'w=1/[\s^2^(Fo^2^)+(0.2000P)^2^] where P=(Fo^2^+2Fc^2^)/3'
_refine_ls_weighting_scheme      calc
_refine_ls_wR_factor_gt          0.3347
_refine_ls_wR_factor_ref         0.3654
_reflns_Friedel_coverage         0.000
_reflns_number_gt                718
_reflns_number_total             916
_reflns_threshold_expression     'I > 2\s(I)'
_cod_data_source_file            HfMOF_All.cif
_cod_data_source_block           hfmof_5.0kbar
_cod_original_cell_volume        12129.7(16)
_cod_database_code               4131834
_chemical_oxdiff_formula         'C88 H72 Hf6 O32'
_chemical_oxdiff_usercomment     'HFMOF at 5.0 kbar 18/12/2015'
_shelx_space_group_comment
;
The symmetry employed for this shelxl refinement is uniquely defined
by the following loop, which should always be used as a source of
symmetry information in preference to the above space-group names.
They are only intended as comments.
;
_reflns_odcompleteness_completeness 15.51
_reflns_odcompleteness_iscentric 1
_reflns_odcompleteness_theta     26.32
_olex2_refinement_description
;
1. Fixed Uiso
 At 1.2 times of:
  All C(H) groups
 At 1.5 times of:
  All C(H,H,H) groups
2. Restrained distances
 O13-C12
 1.41 with sigma of 0.01
 C12-O1
 1.41 with sigma of 0.01
 C6-C12 = C9-C3
 1.41 with sigma of 0.02
 C6-C12 = C9-C3
 1.41 with sigma of 0.01
 C9-C3 = C6-C12
 1.41 with sigma of 0.01
 Hf1-O13 = Hf2-O1
 2.11 with sigma of 0.02
 O1-C12 = O13-C12
 1.41 with sigma of 0.02
 C9-C15 = C9-C10
 1.41 with sigma of 0.02
 C10-C11 = C16-C17
 1.45 with sigma of 0.005
 C4-C5 = C7-C8
 1.39 with sigma of 0.01
 C6-C12 \\sim C9-C3
 with sigma of 0.01
 C9-C3 \\sim C6-C12
 with sigma of 0.01
 C11-C10 \\sim C16-C15 \\sim C17-C15
 with sigma of 0.01
 C9-C17 \\sim C15-C17 \\sim C9-C11 \\sim C11-C9D
 with sigma of 0.005
 C3-C7 \\sim C8-C6 \\sim C7-C5 \\sim C6-C4 \\sim C5-C3 \\sim C4-C8
 with sigma of 0.01
3. Restrained planarity
 C12, C6, C5, C4, C3, C9, C8, C7
 with sigma of 0.01
 C9, C3, C8, C7, C6, C12, C5, C4
 with sigma of 0.01
 C9, C3, C8, C4
 with sigma of 0.01
 C17, C15, C16, C10, C9, C11
 with sigma of 0.01
4. Rigid bond restraints
 C6, Hf2, Hf1, C8, C3, C5, C4, C7, C9, C10, C11, C12, C15, C16, C17, O1, O4,
 O13, O19, O20
 with sigma for 1-2 distances of 0.01 and sigma for 1-3 distances of 0.01
5. Uiso/Uaniso restraints and constraints
C6 \\sim Hf2 \\sim Hf1 \\sim C8 \\sim C3 \\sim C5 \\sim C4 \\sim C7 \\sim C9
\\sim C10 \\sim C11 \\sim C12 \\sim C15 \\sim C16 \\sim C17 \\sim O1 \\sim O4
\\sim O13 \\sim O19 \\sim O20: within 1.7A with sigma of 0.04 and sigma for
terminal atoms of 0.08
6. Others
 Fixed Sof: C15(0.5) C15D(0.00001) C9D(0.00001) C10(0.5) C11(0.5) H11A(0.5)
 H11B(0.5) H11C(0.5)
 Fixed Uiso: C15D(0.05) C9D(0.05)
7.a Aromatic/amide H refined with riding coordinates:
 C4(H4), C5(H5), C7(H7), C8(H8)
7.b Fitted hexagon refined as free rotating group:
 C9(C16,C15,C15D,C9D,C10)
7.c Idealised Me refined as rotating group:
 C11(H11A,H11B,H11C), C17(H,HA,HB)
;
_shelx_res_file
;
    hfmof@5.0kbar.res created by SHELXL-2014/7

TITL HFMOF@5 in P4/mnc
REM P4/mnc (#128 in standard setting)
CELL 0.71073 19.43782 19.43782 32.103795 90 90 90
ZERR 4 0.001091 0.001091 0.002326 0 0 0
LATT 1
SYMM -X,-Y,+Z
SYMM -Y,+X,+Z
SYMM +Y,-X,+Z
SYMM 0.5-X,0.5+Y,0.5-Z
SYMM 0.5+X,0.5-Y,0.5-Z
SYMM 0.5+Y,0.5+X,0.5-Z
SYMM 0.5-Y,0.5-X,0.5-Z
SFAC C H Hf O
UNIT 184 136 12 64
DFIX 1.41 0.01 O13 C12
DFIX 1.41 0.01 C12 O1
DFIX 1.41 C6 C12 C9 C3
DFIX 1.41 0.01 C6 C12 C9 C3
DFIX 1.41 0.01 C9 C3 C6 C12
DFIX 2.11 Hf1 O13 Hf2 O1
DFIX 1.41 O1 C12 O13 C12
DFIX 1.41 C9 C15 C9 C10
DFIX 1.45 0.005 C10 C11 C16 C17
DFIX 1.39 0.01 C4 C5 C7 C8
SADI 0.01 C6 C12 C9 C3
SADI 0.01 C9 C3 C6 C12
SADI 0.01 C11 C10 C16 C15 C17 C15
SADI 0.005 C9 C17 C15 C17 C9 C11 C11 C9D
SADI 0.01 C3 C7 C8 C6 C7 C5 C6 C4 C5 C3 C4 C8
FLAT 0.01 C12 C6 C5 C4 C3 C9 C8 C7
FLAT 0.01 C9 C3 C8 C7 C6 C12 C5 C4
FLAT 0.01 C9 C3 C8 C4
FLAT 0.01 C17 C15 C16 C10 C9 C11
DELU C6 Hf2 Hf1 C8 C3 C5 C4 C7 C9 C10 C11 C12 C15 C16 C17 O1 O4 O13 O19 O20
SIMU 0.04 0.08 1.7 C6 Hf2 Hf1 C8 C3 C5 C4 C7 C9 C10 C11 C12 C15 C16 C17 O1 =
 O4 O13 O19 O20

L.S. 6
PLAN  9
MPLA 6 C3 C4 C5 C6 C7 C8
MPLA 4 C9 C10 C15 C16
BIND C16 C17
BIND C10 C9D
CONN 1 0 C17
FREE C17 C15D
FREE C17 C15
CONN 0 C15D
CONN 0 C9D
BIND Hf1 Hf2
BOND
MORE -1
BOND $H
CONF
fmap 2
acta 52
OMIT -4 52
OMIT 1 3 5
OMIT 1 2 0
OMIT 1 2 6
OMIT 2 3 0
REM <olex2.extras>
REM <HklSrc "%.\\HFMOF@5.0kbar.hkl">
REM </olex2.extras>

WGHT    0.200000
FVAR       0.11956
HF1   3   -0.041018    0.121002    0.000000    10.50000    0.05635    0.04492 =
         0.01811    0.00000    0.00000    0.00196
HF2   3    0.000000    0.000000    0.076264    10.25000    0.04862    0.04862 =
         0.01328    0.00000    0.00000    0.00000
O1    4   -0.022929    0.091542    0.109993    11.00000    0.03265
O4    4   -0.075663    0.030731    0.039830    11.00000    0.09225
O13   4   -0.057973    0.169459    0.059246    11.00000    0.05861
O19   4   -0.146084    0.161360    0.000000    10.50000    0.08056
O20   4    0.015116    0.221738    0.000000    10.50000    0.08275
C3    1   -0.070154    0.313286    0.191319    11.00000    0.07919
C4    1   -0.088122    0.322786    0.150127    11.00000    0.09985
SPEC 0.3
AFIX  43
H4    2   -0.104228    0.365631    0.141692    11.00000   -1.20000
AFIX   0
C5    1   -0.082929    0.270481    0.120907    11.00000    0.07474
AFIX  43
H5    2   -0.095314    0.277976    0.093296    11.00000   -1.20000
AFIX   0
C6    1   -0.058181    0.204961    0.134131    11.00000    0.06479
C7    1   -0.040293    0.195471    0.175122    11.00000    0.07635
AFIX  43
H7    2   -0.024189    0.152617    0.183539    11.00000   -1.20000
AFIX   0
C8    1   -0.045484    0.247851    0.204426    11.00000    0.08525
AFIX  43
H8    2   -0.033090    0.240289    0.232028    11.00000   -1.20000
AFIX  66
C9    1   -0.076120    0.367747    0.220205    11.00000    0.03654
PART -2
C16   1   -0.021384    0.413640    0.222249    11.00000    0.02028
PART 0
C15   1   -0.021492    0.465891    0.251808    10.50000    0.02000
PART 3
C15D  1   -0.076337    0.472250    0.279324    10.00001   10.05000
C9D   1   -0.131074    0.426358    0.277280    10.00001   10.05000
PART 0
PART -1
C10   1   -0.130967    0.374106    0.247721    10.50000    0.04998
AFIX   0
C11   1   -0.187589    0.326669    0.245595    10.50000    0.09700
AFIX 137
H11A  2   -0.204683    0.324836    0.217563    10.50000   -1.50000
H11B  2   -0.223594    0.341742    0.263916    10.50000   -1.50000
H11C  2   -0.172303    0.281747    0.253888    10.50000   -1.50000
AFIX   0
PART 0
C12   1   -0.054787    0.155262    0.102156    11.00000    0.05769
PART -2
C17   1    0.034718    0.413593    0.197756    11.00000    0.08260
AFIX 137
H     2    0.067794    0.381505    0.208509    11.00000   -1.50000
HA    2    0.054473    0.458851    0.197270    11.00000   -1.50000
HB    2    0.021945    0.400391    0.169998    11.00000   -1.50000
AFIX   0
HKLF 4

REM  HFMOF@5 in P4/mnc
REM R1 =  0.1324 for     718 Fo > 4sig(Fo)  and  0.1647 for all     916 data
REM     76 parameters refined using     73 restraints

END

WGHT      0.2000      0.0000

REM Highest difference peak  1.435,  deepest hole -1.776,  1-sigma level  0.264
Q1    1   0.0000  0.0000  0.2140  10.25000  0.05    1.43
Q2    1   0.0263  0.0207  0.0590  11.00000  0.05    1.40
Q3    1  -0.1184  0.0643  0.0470  11.00000  0.05    1.21
Q4    1  -0.0447  0.0903  0.0000  10.50000  0.05    1.15
Q5    1  -0.0794  0.1575  0.0743  11.00000  0.05    1.12
Q6    1   0.0923  0.2308 -0.0742  11.00000  0.05    1.08
Q7    1  -0.1070  0.1311  0.0000  10.50000  0.05    1.08
Q8    1  -0.0195  0.1155  0.0000  10.50000  0.05    1.06
Q9    1   0.0109  0.2913  0.0000  10.50000  0.05    1.04
;
_shelx_res_checksum              2384
_shelx_hkl_file
;
   0   0   4 1418.88 438.810  16
   0   0   5-49.6168 230.313  16
   0   0   6 163.574 116.536  16
   0   0   7-98.6095 345.429  16
   0   0   8 616.810 299.318  16
   0   0   9-175.365 410.321  16
   0   0  10 3906.24 1158.67  16
   0   0  11 185.841 455.950  16
   0  -1   2 5.61630 12.9527  16
  -1   0   2 5.61901 22.6307  17
   1   0  -2 3.71755 24.9807  11
   0   1  -2 1.49734 7.76754   3
   1   0  -2 37.1131 32.3909   9
   0   1  -2 2.04253 14.9839  13
   1   0   2-1.16134 22.2966   6
   1   0   3 2495.59 463.071  16
   0  -1   3 6429.83 337.515  17
   1   0  -3 4738.69 500.905  18
   0   1  -3 5632.66 271.044  18
   1   0  -3 2937.65 395.622  11
   0  -1   3 6567.10 366.905   6
   0  -1   3 6633.89 429.553  16
  -1   0   3 7623.98 674.520  17
   0  -1   3 6013.68 320.732   2
   1   0   4 11.1021 48.9208   6
   0   1  -4-1.21954 6.99673  18
   0   1  -4 13.0851 32.1087   7
   0  -1   4 2.88081 10.9361   2
   0  -1   4-11.5704 11.7971  16
   0   1  -4 5.84495 14.0134  11
   0   1  -4-0.73457 9.53485  20
   0  -1   4-5.99593 19.8773  17
   0  -1   4-1.24401 14.7717   6
   1   0   4-13.5522 118.172  16
   0   1  -4-1.50718 55.0179  15
  -1   0   4-6.49854 9.30248  17
   1   0  -4-2.35614 10.2673  11
   0   1  -5 807.991 196.285   9
   0  -1   5 911.914 163.714   2
   1   0   5 16.5039 51.0673   6
   0   1  -5 724.557 156.191  11
   0   1  -5 823.315 152.174  18
   1   0   5 212.313 102.615  16
  -1   0   5 1077.96 346.120  17
   1   0  -5 167.474 106.588  11
   0  -1   5 866.449 228.898  16
   0   1  -5 687.809 182.410  10
   0  -1   5 1001.04 185.743  17
   0   1  -5 506.372 150.488  20
   0   1  -5 420.079 183.153  15
   0   1  -5 376.533 162.442   7
   0  -1   5 635.707 203.525   6
   1   0   6-41.2325 140.789  16
  -1   0   6-47.0621 199.033  17
   0   1  -6 13.3813 52.9395   9
   0   1  -6 9.29156 18.8951  18
   1   0   6-0.11198 13.2179   6
   0  -1   6-6.89001 20.0526   6
   0   1  -6-5.83077 17.5154  10
   0  -1   6 1.29377 56.3840  16
  -1   0   6-262.228 435.675  16
   0   1  -6-9.55792 32.5122  11
   0  -1   6 6.99325 31.7932   2
   0  -1   6 2.90257 14.3389  17
   0   1  -6 34.0458 72.3367  20
   0   1  -7 477.360 187.279  10
   0   1  -7 455.986 169.227   9
   0  -1   7 729.213 273.672  16
   0   1  -7 434.720 169.860  18
  -1   0   7 43.3068 387.439  16
   1   0   7 3.27744 87.6779   6
   0  -1   7 709.156 192.624   2
   0  -1   7 1021.63 268.299  17
   0   1  -7 420.363 162.772  11
   0  -1   7 92.4732 70.9056   6
   1   0   7 308.313 220.110  16
   0   1  -7 213.437 124.707  20
   0   1  -8-28.1310 85.7393  20
   0   1  -8-7.49171 64.1173   9
   1   0   8-30.2717 215.336  16
   0  -1   8 10.2043 65.6603  17
  -1   0   8-199.638 567.708  16
   0  -1   8 11.2394 1.76489   2
   0  -1   8 43.9714 111.096   6
   1   0   8-95.8321 147.616   6
   0   1  -8-85.9539 104.011  10
   0   1  -8-17.5457 16.5990  11
   0  -1   8 34.0250 57.9079  16
   0   1  -8-8.69578 63.9752  18
   0   1  -9 1330.78 399.275  10
   0  -1   9 4119.40 818.157  16
   0  -1   9 4618.03 603.346   2
   0   1  -9 1207.00 332.614  11
  -1   0   9 1518.63 548.366  16
   0   1  -9 1181.75 354.210   9
   0  -1   9 5955.74 879.813  17
   0   1  -9 639.953 251.578  20
   1   0   9 2146.52 734.420  16
   0   1 -10-232.133 184.578  20
   0  -1  10 19.0045 164.305  16
   0   1 -10-13.4546 49.4021  11
   0  -1  10-77.4970 221.776  17
  -1   0  10-224.915 452.873  16
   0   1 -10 7.00495 108.484  10
   1   0  10-80.9978 143.231  16
   0  -1  10-30.3997 29.8528   2
   0   1 -10-85.5718 162.993   9
   0  -1  10 1.88173 3.55116   6
   0  -1  11 7197.75 1253.54  16
   0  -1  11 7358.37 889.980   2
   1   0  11 3979.20 1135.39  16
   0  -1  11 9.89779 157.015   6
   0   1 -11 55.6009 283.220  20
   0   1 -11 651.883 267.664  10
   0   1 -11 957.591 355.671   9
   0   1 -11 832.375 297.662  11
   1   0  12 315.373 394.828  16
   0  -1  12-119.539 219.586   6
   0  -1  12 265.992 406.505  16
   0  -1  12 51.4695 203.175   2
   0   1 -12-314.227 386.724  10
   0  -1  13 6595.90 951.614   2
   0  -1  13 6078.80 1269.91  16
   0  -1  14 423.232 358.906   2
   0  -1  14 668.500 567.422  16
   0  -1  15 7694.40 1182.78   2
   0  -1  15 7020.18 1496.17  16
   0  -1  16 901.481 616.538  16
   0  -1  16 800.743 430.772   2
   0  -1  17 4384.94 949.298   2
   0  -1  17 3731.17 1212.71  16
   0  -1  18 921.005 669.503  16
   0  -1  18 285.657 328.979   2
   0  -1  19 1603.40 919.638  16
  -1   1  -1 1.88487 11.8085   3
   1   1  -1 1.22326 4.56128   1
   1  -1   1 0.43909 4.92068   8
  -1  -1   1 2.66714 27.7303   2
   1  -1   2 11779.3 536.108  16
   1  -1   2 9045.91 329.722   8
  -1   1  -2 9955.15 390.394  12
  -1   1  -2 11150.5 440.942   3
   1   1  -2 9470.89 440.891  18
   1   1  -2 10360.4 514.468   1
   1  -1   2 12030.4 455.988   6
  -1  -1   2 10642.0 565.101  17
  -1  -1   2 10775.2 484.087   2
  -1  -1   2 10127.3 436.375  16
  -1  -1   3-2.31863 6.16897   2
  -1   1  -3-1.96614 10.0056   4
   1  -1   3-4.07935 22.9479   6
  -1   1  -3-0.04615 10.2518  19
   1   1  -3-4.55947 0.72074   1
   1  -1   3-1.84844 6.32757   8
   1  -1   3-4.18785 17.2350  16
  -1  -1   3-3.35206 15.6390  16
   1   1  -3-4.65238 14.0488  18
  -1  -1   3 9.67850 26.8796  17
  -1   1  -4 212.023 80.8220  20
  -1   1  -4 405.311 167.917  15
   1   1  -4 300.405 88.2606  11
  -1   1  -4 132.489 82.2600   4
   1   1  -4 198.113 83.4059  20
   1  -1   4 310.470 70.2808   2
  -1  -1   4 98.8123 61.8722   6
   1   1  -4 257.063 70.8565   1
  -1   1  -4 245.404 82.5003  19
  -1  -1   4 266.035 83.7382   2
   1  -1   4 293.153 103.696   6
   1   1  -4 337.724 113.844  10
   1   1  -4 249.750 81.5138  18
  -1  -1   4 287.408 94.7159  17
   1  -1   4 281.335 75.9344  14
   1  -1   4 300.810 91.2503   8
  -1   1  -4 269.907 74.2096  11
  -1  -1   4 326.660 113.957  16
   1  -1   4 349.794 121.873  16
  -1   1  -5 11.8824 29.6234  20
   1  -1   5 6.42568 21.7731  17
   1   1  -5-10.9288 17.9246  18
   1   1  -5 15.8759 40.4096  20
   1  -1   5 0.07074 40.7271   8
  -1   1  -5 44.1587 72.3443   9
  -1  -1   5-2.52395 13.0799   2
   1   1  -5 2.59236 16.4140   1
   1  -1   5-3.67593 18.6228   6
  -1  -1   5-1.28054 35.2633  16
  -1   1  -5-6.20637 24.9637  10
   1   1  -5 11.1181 18.1684  11
   1  -1   5 11.6998 23.7317  14
   1   1  -5 52.5632 92.3713   9
   1  -1   5-5.43757 9.04858   2
  -1  -1   5-1.56741 9.44648  17
  -1   1  -5-2.45051 3.95736  11
  -1  -1   5 22.6111 30.9232   6
   1   1  -5-14.9566 25.5345  10
  -1   1  -5-3.87166 18.0182  18
  -1   1  -5-2.44652 17.4934   7
  -1   1  -5 44.9752 89.1716  15
   1  -1   5 3.58978 24.2821  16
   1  -1   6 403.669 189.816  16
   1  -1   6 16.6055 20.7538  14
  -1  -1   6 262.345 147.433  16
   1  -1   6 358.654 109.964   2
  -1   1  -6 185.043 85.4556  11
  -1   1  -6 194.750 109.515  20
  -1   1  -6 269.585 128.044  10
  -1   1  -6 71.2844 104.601   7
  -1   1  -6 304.503 118.880   9
   1   1  -6 291.708 145.356  10
   1  -1   6 279.002 115.002   8
   1   1  -6 125.137 97.8538  20
   1   1  -6 303.076 139.430   9
  -1   1  -6 116.474 80.4928  15
   1   1  -6 289.831 117.850  11
  -1  -1   6-9.85377 49.1151   6
  -1  -1   6 339.415 134.021  17
   1   1  -6 269.930 106.740  18
   1  -1   6 275.725 145.908   6
   1   1  -6 273.746 98.3434   1
  -1  -1   6 345.113 119.289   2
   1  -1   6 483.126 191.869  17
  -1   1  -7-10.6323 40.9522  20
   1  -1   7-32.1997 72.9090  16
  -1   1  -7-34.5803 84.3010  10
   1   1  -7-21.8661 50.8387  10
   1   1  -7 12.4054 28.5215  18
   1   1  -7-24.6237 76.8636  20
   1  -1   7 11.1630 62.2775   6
   1   1  -7-31.6511 70.1992   1
  -1  -1   7 24.8853 77.2714  16
   1   1  -7 22.0262 77.1069   9
   1  -1   7-53.5425 173.855  17
  -1  -1   7 23.1927 63.8409  17
  -1   1  -7-4.34579 17.6643  11
  -1  -1   7 1.77438 26.8833   6
   1   1  -7 7.00990 16.6002  11
  -1   1  -7-7.77832 52.1636   9
  -1  -1   7 19.7671 35.8441   2
   1  -1   7 5.04154 29.1842   2
   1   1  -8 858.335 231.608  11
  -1  -1   8 1532.68 317.698   2
  -1   1  -8 377.267 186.013  11
   1  -1   8 861.709 347.221   6
  -1   1  -8 553.462 197.843  10
   1   1  -8 481.023 211.499  10
   1   1  -8 250.653 111.879  20
  -1   1  -8 553.125 206.610   9
   1   1  -8 867.805 251.646  18
   1   1  -8 650.291 230.596   9
  -1  -1   8-41.4681 101.739   6
  -1  -1   8 1383.84 434.416  16
  -1   1  -8 414.764 194.124  20
  -1  -1   8 1776.21 372.427  17
   1  -1   8 1541.09 446.772  16
   1  -1   8 1503.63 300.325   2
  -1  -1   9-50.0481 166.576   6
   1   1  -9-41.2874 87.5821  11
   1  -1   9-3.34405 29.9399   2
  -1   1  -9-6.99579 96.6094  11
   1  -1   9 21.7187 116.509  16
  -1  -1   9-25.0146 93.1511  17
   1   1  -9-124.743 176.084  20
   1   1  -9-20.2434 32.4014   9
  -1   1  -9 72.8497 123.074  10
  -1  -1   9-12.9594 50.0396   2
  -1   1  -9 25.6274 68.2337  20
   1   1  -9 42.8016 107.621  10
   1  -1   9 11.2806 33.7621   6
  -1  -1   9 32.4147 89.5300  16
  -1   1  -9-2.17094 94.9116   9
   1   1  -9-25.8979 35.6681  18
   1  -1  10 1135.69 402.378   6
  -1   1 -10 715.152 268.210   9
   1   1 -10-35.8174 185.834  20
   1   1 -10 1049.58 315.728  11
  -1   1 -10 670.802 259.822  10
   1   1 -10 916.920 340.955  10
   1  -1  10 4201.23 618.412   2
  -1   1 -10 268.183 131.514  20
   1  -1  10 3763.49 815.431  16
  -1  -1  10 3557.60 840.885  16
   1   1 -10 826.934 330.782   9
  -1  -1  10 4890.00 786.559  17
  -1  -1  10 3503.42 590.014   2
  -1  -1  11-45.7531 50.7875  17
   1  -1  11 0.14263 78.3766   2
   1   1 -11 17.1259 87.5054   9
  -1   1 -11-384.918 245.403  20
  -1   1 -11-139.346 234.488  10
   1   1 -11-150.523 269.651  10
  -1  -1  11 38.2522 126.151   2
   1  -1  11 19.6050 107.438   6
   1  -1  11 60.4356 185.253  16
  -1   1 -11-76.4084 227.943   9
  -1  -1  11-19.7233 87.3230  16
   1   1 -11 57.3462 168.577  11
  -1  -1  12 5255.55 816.276   2
   1  -1  12 5739.38 832.201   2
   1   1 -12 516.292 239.531   9
  -1  -1  12 5324.86 1197.28  16
   1  -1  12 5033.28 1062.22  16
  -1   1 -12 46.4021 283.392  10
   1  -1  12 538.958 290.969   6
   1   1 -12 614.961 282.825  11
  -1  -1  12 6446.21 1039.35  17
   1  -1  13 15.4175 139.648   2
  -1  -1  13 567.371 627.638  16
  -1  -1  13 288.781 334.063   2
   1  -1  13 336.600 306.232  16
   1  -1  13-89.1995 159.495   6
   1  -1  14 4298.30 1039.98  16
   1  -1  14 4713.15 846.461   2
  -1  -1  14 3845.44 1120.73  16
  -1  -1  14 4463.67 827.952   2
   1  -1  15 142.046 206.174  16
   1  -1  15-71.9915 181.981   2
   1  -1  16 2791.60 929.773  16
  -1  -1  16 3464.08 1194.24  16
   1  -1  16 3871.81 856.468   2
  -1  -1  16 2997.79 768.981   2
   1  -1  17 99.3394 189.155   2
  -1  -1  17 579.438 412.870   2
   1  -1  17 15.3710 269.795  16
  -1  -1  18 1511.59 582.309   2
   1  -1  18 1121.18 677.284  16
  -1  -1  18 1692.63 939.466  16
   1  -1  18 1739.67 627.871   2
   1  -1  19 464.157 520.760  16
   2   0   0 7465.43 305.582  18
   2   0   0 7880.18 409.518  14
   2   0   0 6980.13 365.969   1
  -2   0   0 7673.91 383.940   4
  -2   0   0 7189.72 381.942  19
   2   0   0 7122.16 340.847   8
  -2   0   0 7803.25 399.765   5
  -2   0  -1 0.83676 12.1593  19
   2   0   1 0.63270 21.2633   8
  -2   0   1-3.93777 12.5154  19
   2   0  -1 1.48756 15.1768  11
  -2   0  -1-9.46990 30.5626   5
  -2   0  -1 2.28991 28.4077  15
   2   0   1-0.66284 9.23359   1
  -2   0  -1 0.45217 14.9844   4
   2   0  -1 7.22167 10.4000   1
   2   0  -1-1.45196 7.61018  18
  -2   0   1-4.81871 10.4727   5
   2   0  -1-3.55342 17.3220  14
  -2   0   1 0.00646 14.3651  17
   2   0   1 0.44761 19.5914  14
  -2   0   1 0.08352 3.84302   2
   2   0   1-2.69719 16.6142   6
  -2   0   1-2.60421 3.81122   4
   2   0  -1 2.09441 12.2884   8
   2   0   2 2086.01 333.948   1
   2   0  -2 1078.68 275.907   9
  -2   0  -2 587.031 157.298  20
  -2   0   2 2592.98 245.603   5
   2   0   2 2427.12 328.487  14
  -2   0  -2 2517.80 440.591  15
  -2   0   2 2741.29 322.241  17
  -2   0  -2 1639.58 303.552   4
   2   0  -2 2428.56 270.585   1
   2   0   2 2441.12 336.519   8
   0   2  -2 1913.26 288.159   3
   2   0  -2 2498.31 290.621  11
   2   0   2 2305.11 308.588   6
  -2   0  -2 2302.62 378.234   7
   2   0  -2 2455.14 273.128   8
   2   0  -2 2583.62 288.223  18
   0   2  -2 1329.41 374.377  13
   2   0  -2 2717.16 230.724  14
  -2   0   2 2529.78 262.542   2
  -2   0   2 2639.76 226.896  19
   2   0   2 2539.33 327.563  16
   2   0  -3-5.54612 32.6666  11
  -2   0   3-12.1596 45.6381   2
  -2   0   3-8.98246 31.3195  17
   0   2  -3 21.3763 33.9650  13
   2   0   3-8.83570 29.0262  16
   2   0  -3-3.13691 4.72918  14
   0   2  -3 13.2412 20.8908   3
   2   0   3-7.10823 31.7660   6
   2   0   3-7.59166 25.6929   8
  -2   0   3-7.98623 63.7692  19
   2   0  -3 0.48203 28.3400  18
   0   2  -3 9.12418 19.9985  12
   2   0  -3 1.10456 27.0930   1
   0  -2   3-5.07351 27.6868   6
   0  -2   3-1.86187 9.88714  16
   2   0   3 5.21144 34.0413  14
   0  -2   3-31.4616 106.248   2
  -2   0  -3-21.1060 97.6286  20
   0   2  -4 1053.12 159.360  12
  -2   0   4 1522.22 340.534  17
   2   0   4 693.644 235.820   6
   2   0  -4 1067.81 261.193   1
   0   2  -4 1258.47 203.543  18
   2   0   4 289.623 165.600  14
   2   0   4 867.552 298.483  16
   0   2  -4 1135.53 202.134  13
   0   2  -4 1241.43 195.903   3
   0  -2   4 1118.20 220.062  16
   0  -2   4 1312.83 252.324  17
   2   0  -4 915.128 240.967  18
  -2   0   4 1157.46 250.310   2
   2   0  -4 691.117 217.348  11
   0  -2   4 1233.65 179.974   6
   0  -2   4 1196.07 240.340   2
   0  -2   5 10.0782 25.5794  16
   0  -2   5 0.69685 18.5994   2
   2   0   5-5.34479 76.6990  16
   2   0  -5 12.4441 14.2014  18
  -2   0   5-8.97716 63.1122  17
   2   0   5 1.93121 65.4421   6
   0  -2   5 2.71768 10.2296   8
   0   2  -5 5.88288 21.9799  18
   0  -2   5 3.26321 18.0244  17
   2   0  -5 19.3532 22.8593  11
   2   0   5-18.8798 68.8034  14
   0  -2   5 3.63292 10.7118   6
  -2   0   6 567.510 255.751  17
   0   2  -6 326.401 87.7574  18
   0  -2   6 401.199 138.943   6
   2   0  -6 74.8592 92.0365  11
   0  -2   6 367.854 112.717  17
   2   0   6 116.591 125.493   6
   0  -2   6 328.300 131.836  16
   2   0   6 289.179 213.102  16
   0  -2   6 334.394 67.5950   8
   0  -2   6 388.638 119.435   2
   0   2  -6 343.946 109.696  11
   0   2  -7 10.2157 32.2409  11
   2   0   7-29.6784 86.5981  16
   0  -2   7-1.34922 39.7773   6
   0   2  -7 10.9047 25.7825  18
   0  -2   7-9.07369 13.1372   8
   0  -2   7 13.6115 20.1585  17
   0  -2   7 37.8364 49.5574  16
  -2   0   7-52.1998 127.173  17
   2   0  -7 5.18057 50.9055  11
  -2   0   7-309.285 696.672  16
   0  -2   7 8.40496 22.7078   2
   0   2  -7 98.1380 141.822   7
   0   2  -7 17.0847 47.2304  15
   0   2  -7 27.4224 50.8541  20
   2   0   7 5.41368 23.5278   6
   0   2  -8 31.5743 27.8226  18
  -2   0   8-380.890 722.786  16
   0  -2   8 43.9015 36.0027   2
   0   2  -8 42.8295 32.6448   1
   0  -2   8 18.6898 47.7877  16
   2   0   8-2.02667 52.9391   6
   0   2  -8 210.219 138.582  10
   0  -2   8 79.6201 63.9295   8
   0  -2   8 11.5487 37.7376   6
   0   2  -8-25.6348 157.869  15
  -2   0   8 4.73966 194.843  17
   0   2  -8-54.7521 157.866   7
   0   2  -8 31.0737 58.0720  11
   0   2  -8 72.7007 80.6841  20
   2   0   8 126.723 179.620  16
   0  -2   8 58.1996 67.1192  17
   0  -2   9-27.9071 56.8011   8
  -2   0   9-283.236 355.645  17
  -2   0   9-338.372 697.060  16
   0  -2   9 26.4198 101.485  16
   0   2  -9-4.91309 23.9424   1
   0   2  -9-20.8246 25.6271  20
   0  -2   9 3.39455 53.4643  17
   0   2  -9-174.274 344.434  15
   0  -2   9-18.7740 41.3201   6
   0   2  -9 90.2444 101.936  10
   0  -2   9-8.20989 39.3561   2
   0   2  -9 95.7886 134.067   9
   0   2  -9-15.3635 58.5589  11
   2   0   9 23.5277 162.222  16
   0   2  -9 4.94353 27.0208  18
   2   0   9-31.2050 102.800   6
   0   2 -10 1123.26 298.707  10
   0  -2  10 2155.12 392.794  17
   0  -2  10 1799.50 345.338   2
   0   2 -10 1217.09 186.398   1
   0   2 -10 1187.46 301.489   9
   0  -2  10 1267.10 402.037   6
   0   2 -10 1205.58 271.368  11
   2   0  10 1.63302 179.589   6
   2   0  10 1177.83 538.716  16
   0  -2  10 1359.25 283.128   8
   0   2 -10 879.465 292.714  20
   0   2 -10 1175.96 273.544  18
   0  -2  10 1857.99 464.146  16
   2   0  11-6.24054 175.887  16
   0  -2  11-40.7912 87.7150   8
   0   2 -11-5.40486 27.3997  18
   0   2 -11 16.3207 117.154  20
   0   2 -11 23.2106 46.4046  11
   0   2 -11 7.94232 11.0548   1
   0  -2  11 56.4975 101.520  16
   0  -2  11-47.9940 116.116   6
   0   2 -11 12.2302 44.3187   9
   0  -2  11-56.5016 112.644  17
   0  -2  11 18.1917 53.1747   2
   2   0  11-106.670 208.930   6
   0   2 -11-14.1046 51.4624  10
   0  -2  12 2934.77 561.049  17
   0  -2  12 1980.75 582.444  16
   0  -2  12 2227.06 437.675   2
   0   2 -12 617.755 252.668  20
   0   2 -12 926.138 307.439   9
   0   2 -12 813.405 265.255  18
   0   2 -12 773.106 185.633   1
   0  -2  12 592.421 310.620   6
   0   2 -12 975.565 264.979  11
   2   0  12 1450.55 600.818  16
   0   2 -12 736.378 304.427  10
   0  -2  12 921.439 253.061   8
   0   2 -13-60.8713 70.2695   1
   0   2 -13 104.076 199.208  10
   0   2 -13-49.6864 98.0640  20
   0  -2  13 108.843 212.187  16
   0   2 -13 101.004 186.259   9
   0  -2  13 22.4030 162.950  17
   2   0  13 408.854 464.943  16
   0   2 -13 129.592 150.397  11
   0  -2  13 32.5424 86.4154   2
   0  -2  13 10.1111 59.5352   6
   0   2 -14 386.656 256.640  10
   0  -2  14 2409.75 693.720  16
   0  -2  14 192.229 199.363   6
   0  -2  14 3283.64 671.752  17
   0   2 -14 12.9576 148.605  20
   0   2 -14 496.799 229.168  11
   0  -2  14 2422.34 498.213   2
   0   2 -14 424.155 219.682   9
   0   2 -14 198.725 65.7792   1
   0   2 -15-274.067 314.708  20
   0  -2  15-233.746 339.014  17
   0   2 -15 152.495 144.936   9
   0  -2  15-39.1158 86.3254   6
   0  -2  15 80.3253 132.972   2
   0   2 -15-15.9849 150.847  10
   0   2 -15 21.9850 91.4660  11
   0   2 -15-161.839 184.081   1
   0  -2  15 300.822 329.641  16
   0  -2  16 779.779 338.289   2
   0  -2  16-367.042 254.627   6
   0   2 -16-407.794 476.431  20
   0   2 -16-102.781 225.955   9
   0   2 -16-71.5045 233.160  10
   0  -2  16 909.885 454.645  16
   0   2 -16-198.380 232.102   1
   0  -2  17 15.3280 45.2835   2
   0   2 -17-511.967 530.621  10
   0   2 -17-271.815 253.481   1
   0  -2  17 34.4184 131.855  16
   0  -2  18 141.495 129.245   2
   0  -2  18 102.801 135.622  16
   0  -2  19 8.21293 150.219   2
   0  -2  19-70.8110 114.135  16
   0  -2  20-77.7164 347.829  16
   0  -2  20-85.5653 218.107   2
   0  -2  21-87.9696 193.517   2
   0  -2  21 319.061 411.875  16
   2   1   0 160.075 101.995   1
   2   1   0 15.7207 16.9702  14
   2  -1   0 278.145 92.1613  14
  -2   1   0 175.582 81.2338  12
  -2   1   0 290.239 87.6038  19
   2  -1   0 228.344 84.6305   8
  -2  -1   1 2890.97 384.791  17
   2  -1   1 3395.55 281.264   1
   2   1  -1 1185.84 265.601  14
   2   1  -1 2558.10 303.852   8
   2   1  -1 4017.55 355.454  13
  -2   1  -1 3508.02 335.839   3
   2  -1   1 3772.37 294.184   6
   2   1  -1 3366.91 345.245  18
  -2   1  -1 2859.22 242.210   4
  -2  -1   1 2965.03 338.298   2
   2  -1   1 2676.12 230.452   8
  -2  -1   1 2285.77 347.976   5
   2  -1   1 3405.97 278.286  14
  -2   1  -1 3160.82 254.541  19
   2   1  -1 3056.02 382.328   1
  -2   1   1 3775.48 421.086  19
  -2   1  -1 3103.30 254.463  12
  -2  -1   1 1462.35 276.627   4
  -2   1  -1 3132.81 248.945   5
   2  -1   2 111.119 48.4185  14
   2  -1   2 149.235 68.8131  16
   2   1  -2 84.4452 45.9531  18
  -2   1  -2 99.5024 48.7105  12
   2  -1   2 82.3057 39.7252   8
  -2   1  -2 125.982 46.4190   5
  -2  -1   2 113.721 63.9888  17
  -1   2  -2 97.1934 60.7977  12
   2  -1   2 116.329 50.7670   6
   2  -1   2 105.202 39.3648   1
  -2  -1   2 91.0648 55.9459   5
  -2   1  -2 88.8784 41.9856  19
  -2  -1   2 102.050 48.6578  19
   1   2  -2 133.750 114.948  13
  -2  -1   2 95.4114 47.2271   4
  -2   1  -2 97.0601 43.7550   4
   2   1  -2 97.5128 63.3072  14
  -2  -1   2 84.8022 51.7816   2
  -1   2  -2 112.648 72.2036   3
   2   1  -2 100.325 62.3272   1
  -2   1  -2 116.580 52.1668   3
  -2   1  -3 1435.70 191.891  19
   1   2  -3 1506.42 220.875  12
   2  -1   3 1706.65 232.245  16
  -2  -1   3 1409.02 192.725   5
  -1  -2   3 1227.17 288.546   2
  -2  -1   3 1344.63 182.424   2
   2   1  -3 1195.93 182.659  14
   1   2  -3 1755.48 276.937  13
   2  -1   3 1767.07 228.011   6
   2   1  -3 1335.32 187.513  18
  -2   1  -3 1509.10 175.170   5
   1  -2   3 1390.79 288.232  16
  -1  -2   3 1329.29 178.999   6
   2   1  -3 1375.01 194.906   1
  -1   2  -3 1872.61 258.225   3
  -2  -1   3 1393.15 176.665  16
   2  -1   3 1611.21 186.999  14
  -1  -2   3 1275.27 329.492  17
   1   2  -3 1927.80 245.752   3
  -1   2  -3 1782.69 246.169  19
  -2  -1   3 1282.13 213.751  17
   1  -2   3 1671.08 230.021   6
  -2  -1   3 1393.75 154.797   4
   2  -1   3 1562.60 194.899   8
  -2  -1   3 1409.85 138.593  19
   1  -2   3 1435.23 206.174   8
  -1   2  -3 1811.00 370.014  13
  -1   2  -3 1516.49 199.990  12
  -2   1  -3 1471.78 200.031   4
   1   2  -3 1685.47 316.410  18
  -1  -2   3 1181.40 242.733  16
  -2  -1   4 54.2445 51.2547  16
   2   1  -4 91.4364 76.3213  10
   1   2  -4 58.8462 53.1089  13
  -2  -1   4 47.4633 33.6482   5
  -2  -1   4 45.4545 24.7700   4
  -2   1  -4 42.5761 45.0009   5
   2  -1   4 41.7145 35.8729  14
  -2   1  -4 36.7252 42.2560  20
  -1   2  -4 33.5396 15.8464  18
  -1   2  -4 65.6629 62.6165  13
   1  -2   4 38.9359 35.0754   6
   2  -1   4 51.7675 45.8533  16
  -1   2  -4 35.3367 27.0670  12
  -2   1  -4 36.6166 44.7002   4
   1  -2   4 59.4728 36.1685  14
   2   1  -4 40.8922 50.4531  20
  -1  -2   4 55.7419 44.4864  16
  -1  -2   4 35.2290 63.0311  17
  -1   2  -4 66.8992 36.9739  19
   1  -2   4 60.4954 59.7148  17
   2   1  -4 33.2057 29.6398  11
  -1  -2   4 42.6491 29.4961   6
   1  -2   4 32.6167 41.1123  16
   1   2  -4 45.0524 24.4615  12
  -1  -2   4 44.0257 40.5263   2
   2   1  -4 43.1609 40.1660  18
   1  -2   4 25.7329 22.1874   2
  -1   2  -4 41.4501 19.1316   4
   1   2  -4 54.4586 37.7773   3
   1   2  -4 7.16424 26.0865   1
  -1   2  -4 39.7110 40.8813   3
   2   1  -4 41.6377 41.2626   1
   1  -2   4 38.0631 29.7938   8
  -2   1  -4 29.7676 18.6998  19
   2  -1   4 61.6488 53.1626   6
  -2  -1   4 48.7352 29.5591  19
   2   1  -4 22.8283 25.7618  14
   2  -1   4 43.4820 39.4024   8
  -2  -1   4 50.3043 40.0665   2
  -2  -1   4 34.4506 47.6960  17
   1   2  -4 46.2544 46.3618  18
  -2   1  -5 202.235 101.834  20
  -2  -1   5 302.304 113.840  17
  -2   1  -5 305.890 110.588   9
  -2   1  -5 118.520 111.158   4
   1  -2   5 381.019 120.614   2
  -1  -2   5 267.912 88.6493   6
  -2  -1   5 267.216 85.3713   5
  -1  -2   5 309.720 116.944  17
   2   1  -5 284.270 105.408  11
  -2   1  -5 166.776 74.6931  11
   1  -2   5 287.677 85.2311  17
   2  -1   5 318.804 129.569   6
   1  -2   5 273.923 66.1693  14
  -2  -1   5 307.169 104.258   2
   2   1  -5 262.250 95.2139   1
   1  -2   5 253.771 68.5600   8
  -1  -2   5 230.998 101.137  16
  -1  -2   5 238.087 105.774   2
  -2   1  -5 288.125 160.085   7
   1  -2   5 317.588 110.671   6
   2  -1   5 351.504 79.0396   2
  -2   1  -5 308.018 180.639  15
  -1  -2   5 164.090 66.2377   5
   1   2  -5 243.319 81.4400  18
  -2   1  -5 252.906 102.125  10
   2  -1   5 300.660 112.297  14
  -1   2  -5 321.596 74.3220  19
  -2   1  -5 232.691 112.434  19
   2  -1   5 347.021 131.305   8
   1   2  -5 308.642 78.9485  12
   2   1  -5 347.783 152.520   9
   2   1  -5 314.182 135.860  10
  -2  -1   5 284.539 127.006  16
   1   2  -5 229.982 92.4046   1
   2   1  -5 252.018 96.2285  18
   1  -2   5 316.633 121.512  16
   2   1  -5 150.997 91.0880  20
   2  -1   5 358.161 146.486  16
  -1   2  -5 321.939 77.8682   4
   2   1  -5 266.099 62.1932  14
  -1   2  -5 238.495 66.3050  18
  -2   1  -6-0.72477 108.538  15
  -1  -2   6 32.8615 52.0789   6
   1  -2   6 49.7364 35.9873  17
  -2  -1   6 12.1280 18.0290   2
   2   1  -6 45.2796 52.6710  18
  -2  -1   6 48.4142 57.8362  17
  -2   1  -6 7.88694 91.0411   7
   1   2  -6 131.108 125.651   7
   1   2  -6 16.9025 19.1780  18
   2   1  -6 44.0094 54.8693   1
  -1  -2   6 40.1785 36.6523   2
   2   1  -6 20.9922 80.4574  10
   2   1  -6 12.7614 54.9657  20
  -2   1  -6 52.2393 71.3966  20
  -1  -2   6 52.8214 32.2778   5
  -2   1  -6 37.4413 71.2081  10
   1  -2   6 32.8870 20.8320  16
   1  -2   6 44.1968 27.4986  14
  -2   1  -6 38.5998 36.0865   9
   1  -2   6 59.7611 39.3619   8
  -1  -2   6 40.8761 49.5315  16
   2   1  -6-10.9201 79.6360   9
   1  -2   6 59.4123 65.5103   6
   2  -1   6 46.4741 40.2224   2
  -1   2  -6 21.5581 8.54477  18
   2  -1   6 32.4879 30.4132  14
   2   1  -6 41.5004 61.1932  11
  -1   2  -6 51.1987 51.2746   4
   1  -2   6 34.2795 29.8842   2
  -1  -2   6 37.5390 33.1382  17
  -2  -1   6 68.2224 67.4366  16
  -1   2  -6 48.1570 53.1278  11
  -2   1  -6 1.25113 57.2386  11
   2  -1   6 35.4577 72.7063   8
   2  -1   6 36.0516 32.9123  16
   1   2  -6 48.0317 62.2509  11
  -2  -1   6 30.4014 17.5562   5
   2   1  -6 38.3926 22.7551  14
   1   2  -6 40.6836 47.0276   1
   1   2  -6 102.446 111.672  15
  -1   2  -6 60.3992 37.3435  19
   2  -1   6 43.5588 82.0633   6
  -1   2  -7 71.0135 49.3795  11
   2  -1   7 53.2230 28.5664  14
   1  -2   7 78.4582 46.5280   8
   2  -1   7 121.042 100.871  16
   1  -2   7 88.6310 62.2346   2
  -1   2  -7 90.9165 49.4830  19
  -2  -1   7 111.039 129.880  16
   1   2  -7 64.9016 49.0741  18
   1   2  -7 75.5586 67.8559  11
  -2   1  -7 32.8630 53.0429   9
  -2   1  -7 99.9766 56.9019  10
  -2   1  -7-52.5883 185.952  15
  -1  -2   7 96.9784 43.4662   5
   1   2  -7 147.832 123.979  15
   1   2  -7 81.5280 68.3741  20
  -1  -2   7 104.285 82.9789  16
   2   1  -7 65.5420 69.0769  10
  -2  -1   7 109.524 81.7451  17
  -2   1  -7-66.3709 202.958   7
  -1   2  -7 251.658 190.794   7
   1  -2   7 89.5643 46.7220  14
   2  -1   7 107.411 106.012   6
  -1   2  -7 165.110 180.717  15
   1  -2   7 93.1642 82.2006   6
  -1   2  -7 129.030 85.7223  20
   2   1  -7 114.085 48.5231  14
  -2   1  -7 78.3608 74.5040  20
  -1  -2   7 79.9756 73.3704   2
   1   2  -7 61.3230 38.9014   1
   2   1  -7 77.3286 60.6420   1
   2   1  -7 64.3829 77.3508  11
  -1  -2   7 98.9677 52.3043   6
  -1   2  -7 58.3547 36.1554  18
   2   1  -7 68.3205 64.5091  18
   1  -2   7 99.6016 56.5438  17
   1  -2   7 131.027 94.3834  16
   2  -1   7 112.470 59.6075   2
  -1  -2   7 104.550 66.2420  17
   2   1  -7 46.6472 80.7162   9
   1   2  -7 145.355 88.1189   7
  -2  -1   7 125.876 80.7814   2
   2  -1   7 88.3701 101.385   8
   2   1  -7 60.8338 83.9649  20
   2  -1   8 236.273 172.613   6
  -1   2  -8 244.203 163.882   7
   1  -2   8 152.834 101.286  14
   2   1  -8 81.4681 41.4166  11
  -1   2  -8 120.775 85.1413  20
   1  -2   8 214.501 102.169   2
   1  -2   8 279.942 166.663   6
   2   1  -8 141.775 98.8261   1
  -1  -2   8 225.728 106.890   2
  -1   2  -8 303.666 156.291  10
  -2   1  -8 124.794 110.164   9
   1   2  -8 258.451 161.351  10
  -1  -2   8 189.044 112.486  16
  -1  -2   8 109.568 115.310   6
  -2  -1   8 222.461 162.229  16
   1  -2   8 221.773 141.998  16
   2   1  -8 121.266 89.4501  18
   1   2  -8 184.797 101.679  11
   1   2  -8 152.319 80.4826  18
   2   1  -8 74.1455 86.2648  10
   2  -1   8 281.451 119.855   2
  -2   1  -8 75.0734 48.1076  10
   2   1  -8-31.9849 183.071  20
  -2  -1   8 223.622 129.498  17
  -1   2  -8 168.840 81.5971  18
   1  -2   8 199.217 80.9269   8
  -1   2  -8 152.263 92.0327  11
   2  -1   8 30.8486 67.6347  14
  -1  -2   8 212.267 65.4906   5
   1  -2   8 181.822 90.8127  17
   1   2  -8 152.872 106.712  20
   1   2  -8 146.598 66.0758   1
  -1   2  -8 299.919 183.237  15
   2  -1   8 185.843 148.470  16
   2   1  -8 66.9659 56.6655   9
   2  -1   8 128.545 129.413   8
  -1  -2   8 162.983 91.0429  17
  -1   2  -8 173.688 82.9066  19
  -2  -1   8 180.326 130.383   2
  -1   2  -9 9.60350 27.6500  11
  -1   2  -9 14.2815 50.6975  18
  -2   1  -9 15.6473 13.7536  20
  -1  -2   9-25.1085 73.4785  16
  -2  -1   9 53.3712 44.3847  17
  -2   1  -9-19.8540 7.13060  10
  -1  -2   9 9.97659 118.652   6
  -1   2  -9-10.0743 32.2963  19
   2  -1   9 19.1683 87.7513   8
   2  -1   9 41.1160 90.0045   6
   1   2  -9 12.6955 7.40623   1
  -1   2  -9-8.13529 184.436  15
   1  -2   9 6.74809 17.7899   8
  -2  -1   9 2.40528 38.0469   2
   1  -2   9 47.9073 56.3882   2
   2  -1   9-10.5426 44.0704  16
   1   2  -9-2.68815 28.2351  18
  -1   2  -9 124.694 142.538   9
   1  -2   9 13.6268 25.6061  17
   2   1  -9-5.93438 53.5427  18
   1  -2   9-3.44659 30.2743  14
   1  -2   9 30.2462 109.964   6
  -2   1  -9 57.6379 67.5372   9
   2  -1   9 8.37198 64.3294   2
   1   2  -9 52.3746 68.2631  11
   1   2  -9 18.4984 52.6108  20
   2   1  -9 21.0728 33.6911   1
  -1  -2   9 41.6839 51.1029  17
  -1  -2   9 17.2335 11.7975   5
   1  -2   9 14.5305 81.6035  16
   1   2  -9 158.065 168.999   9
  -1   2  -9 17.1703 115.619   7
  -1   2  -9-27.6231 60.8337  10
   1   2  -9 61.5778 108.750  10
   2   1  -9 17.9743 127.533   9
   2   1  -9 1.13805 11.8123  11
  -1   2  -9 19.1154 51.7473  20
  -2  -1   9 87.3744 157.886  16
   2   1  -9-77.4776 120.492  10
   2   1  -9-155.141 243.012  20
  -1  -2   9 18.7040 67.6025   2
   2  -1  10-76.7588 135.959   2
  -1  -2  10 43.7922 128.607   6
   1   2 -10 47.3044 97.5479  20
   1   2 -10 54.8474 105.995  10
  -2   1 -10-46.3074 130.994  20
   1   2 -10 17.3853 29.6404   1
   1  -2  10 30.8476 51.8786   2
  -1   2 -10-3.23511 14.4586  20
   2  -1  10-26.1391 94.4438   6
   2   1 -10-32.7391 96.1185  11
  -1  -2  10-21.9478 21.9696  17
   2   1 -10-19.1876 113.696   9
  -1  -2  10 31.5940 53.3506   2
   1  -2  10 36.4873 106.447  16
  -1   2 -10-3.42044 61.8157  11
  -2  -1  10-11.9633 36.7120  17
   1  -2  10 64.7837 138.938   6
   2   1 -10 14.8394 69.3218  18
  -1   2 -10 96.4634 146.154  10
   1   2 -10 33.2531 54.9390  11
   1   2 -10 26.4058 66.1738   9
   1  -2  10 24.1469 73.1635   8
   2   1 -10-129.309 265.864  10
  -1  -2  10 11.4651 52.9523  16
  -1   2 -10 101.091 135.708   9
   2   1 -10-55.5656 145.117   1
   2  -1  10-4.60952 43.7397  16
  -2  -1  10-15.6629 129.033  16
   1   2 -10-12.6630 49.0703  18
  -2   1 -10-11.9139 131.597  10
  -2  -1  10 30.7614 57.1943   2
   1  -2  10 9.51793 67.6138  17
  -2   1 -10-123.112 225.365   9
  -1   2 -10 13.4779 12.2208  18
  -2  -1  11 2190.24 520.138  17
  -1  -2  11 1616.49 375.121  17
  -1  -2  11 16.3672 104.751   6
  -1   2 -11 682.172 267.240  10
   1  -2  11 1618.77 472.679  16
   2  -1  11 1723.77 585.946  16
   1  -2  11 2331.31 484.024  17
   2  -1  11 861.600 404.978   6
   2   1 -11 226.951 72.5746   9
   1  -2  11 1663.73 334.700   2
   1   2 -11 643.366 274.642  10
  -2  -1  11 1535.52 417.048   2
   2   1 -11 497.435 226.200  18
  -1   2 -11 729.441 226.968  11
  -1   2 -11 498.514 217.845  20
  -2   1 -11-183.050 282.262  20
  -1  -2  11 1543.64 459.210  16
  -1  -2  11 1350.51 323.628   2
   2   1 -11 452.746 230.541  11
   1   2 -11 834.623 195.297   1
  -2  -1  11 1619.58 581.868  16
   1   2 -11 864.847 284.037   9
   2  -1  11 2016.59 425.635   2
   2   1 -11-97.5850 348.763  10
   1  -2  11 1191.02 412.313   6
   1   2 -11 925.019 260.931  11
  -2   1 -11-23.1813 268.997  10
   1  -2  11 1323.99 311.824   8
  -1   2 -11 492.718 208.246  18
   2   1 -11 438.864 148.743   1
   1   2 -11 479.359 226.346  20
  -1   2 -11 846.940 264.205   9
   1   2 -11 921.632 252.921  18
   2   1 -12 39.8348 142.068  11
   2  -1  12-58.4998 127.073   6
   1  -2  12 67.4978 128.895  16
   1   2 -12-1.37026 65.1249  18
  -1  -2  12-18.6048 160.897  16
  -1  -2  12-28.8858 65.6066   6
   1   2 -12 17.4067 44.6596   1
  -1  -2  12 32.2124 59.8392   2
  -2  -1  12 49.5681 113.876   2
   1   2 -12-52.8693 125.611  20
   2  -1  12 76.4682 80.0787  16
  -2  -1  12 41.9197 165.480  17
   2   1 -12-208.666 317.645   1
   1   2 -12 17.9031 124.580   9
   1   2 -12 9.23301 34.9347  11
  -1  -2  12 9.97498 88.1385  17
   1  -2  12 48.0585 154.381   6
   2   1 -12-276.080 351.030   9
  -1   2 -12 22.3891 52.7319  10
  -1   2 -12-25.3458 82.1546  11
   1  -2  12-149.932 143.025  17
   1  -2  12 64.1096 70.6187   8
  -1   2 -12-56.6944 123.367   9
   1  -2  12-2.11155 54.5077   2
   2  -1  12-73.8683 156.832   2
  -1   2 -12 17.5615 71.2157  20
  -2  -1  12 59.2328 136.029  16
   1   2 -12 51.3542 85.2850  10
   1   2 -13 721.959 247.587   9
  -1   2 -13 393.945 217.090  20
  -1   2 -13 617.011 265.715   9
  -1  -2  13-15.6459 131.692   6
  -2  -1  13 2564.92 869.382  16
   2  -1  13 668.880 306.576   6
   1   2 -13 788.163 265.537  11
   1   2 -13 737.694 277.370  18
   1   2 -13 158.611 121.244  20
   2  -1  13 2083.55 659.388  16
  -2  -1  13 2589.64 632.763  17
  -1   2 -13 610.640 242.737  10
  -1  -2  13 1884.15 437.560   2
   1  -2  13 1259.81 452.705   6
   1   2 -13 489.298 250.980  10
  -2   1 -13-527.270 583.897  10
   2  -1  13 2519.01 567.656   2
   2   1 -13 169.435 118.028  11
   1  -2  13 2154.00 419.783   2
  -1  -2  13 1968.03 591.492  16
   1  -2  13 2319.34 634.406  16
  -2  -1  13 2204.80 559.998   2
   1  -2  13 2215.09 554.606  17
   1   2 -13 633.685 200.362   1
  -1  -2  13 2192.87 496.543  17
  -1   2 -13 448.495 203.974  11
   1  -2  13 1146.45 349.245   8
   2  -1  14 46.4983 123.894   2
   1   2 -14-138.974 256.274  20
  -1  -2  14 239.775 263.675  16
   1  -2  14 83.9252 107.698   8
  -2  -1  14 241.979 277.781   2
   2  -1  14 168.924 132.590  16
   1  -2  14 133.108 127.449   2
   1   2 -14 90.9070 173.218   9
  -2  -1  14-108.566 240.596  17
   1   2 -14 154.975 190.202  11
   1  -2  14 66.2968 141.297  16
  -1   2 -14-165.854 226.941  10
  -1   2 -14-131.959 229.882  20
   1   2 -14 73.5879 155.139  10
  -1  -2  14 118.995 201.291  17
   1   2 -14 125.680 139.755   1
  -1  -2  14 39.3927 90.7977   2
  -2  -1  14 430.806 643.053  16
  -1  -2  14-233.494 250.454   6
   2  -1  14-17.6541 49.3014   6
  -1   2 -14 37.4489 16.3491   9
   1  -2  14 5.03087 19.3035   6
  -1   2 -14-161.874 202.068  11
   1  -2  15 416.721 157.555   8
   1   2 -15 119.364 76.8487   1
   2  -1  15 685.562 396.911  16
   1   2 -15 180.707 171.528   9
   1   2 -15-168.085 233.674  10
  -1  -2  15 559.809 259.107   2
  -1  -2  15 673.574 361.927  16
   2  -1  15 864.017 340.804   2
   1  -2  15 635.154 271.203   2
  -1   2 -15-49.2372 145.044  10
   1   2 -15 126.184 115.940  11
  -2  -1  15 464.263 252.379   2
  -1   2 -15-138.942 279.784  20
  -1   2 -15-36.6154 139.828   9
  -2  -1  15 678.782 505.376  16
   2  -1  15-0.72708 198.864   6
   1  -2  15 618.254 336.574  16
   1  -2  15 251.902 242.059   6
  -1  -2  15 734.858 323.375  17
  -1   2 -16-210.958 234.768   9
   1   2 -16 154.219 135.593   1
  -1   2 -16-222.673 312.532  10
   1  -2  16 76.8255 95.3359  16
  -2  -1  16 797.192 586.296  16
   1  -2  16 57.9256 107.806   8
   1  -2  16 122.995 110.099   2
   2  -1  16 249.279 362.197  16
   1   2 -16-68.2163 259.108  10
  -2  -1  16 373.952 295.819   2
  -1  -2  16 81.9006 135.774   2
   1  -2  16-148.407 183.757   6
   2  -1  16-36.5885 163.314   2
   1   2 -16-85.0159 184.143   9
  -1  -2  16 170.311 227.762  16
  -1  -2  16 199.567 127.220  17
   1   2 -16 133.884 160.530  11
   1   2 -17 31.3607 50.1783   1
  -1   2 -17-583.154 534.594  10
   2  -1  17 27.4241 74.0856   2
   1  -2  17 38.8632 65.1994   8
  -1  -2  17 82.6464 106.287   2
  -2  -1  17 223.275 429.978  16
  -1  -2  17 247.406 253.710  16
   1  -2  17 27.8912 52.8508   6
   1  -2  17 50.8352 170.873  16
   1   2 -17-695.927 590.422  10
  -2  -1  17 151.089 174.422   2
   1  -2  17 13.9036 22.3375   2
   2  -1  17 162.380 227.501  16
   1   2 -17-45.2136 107.998  11
  -2  -1  18 196.058 328.111   2
  -2  -1  18 155.296 521.849  16
  -1  -2  18 30.2370 69.1569   2
  -1   2 -18-667.491 706.739  10
  -1  -2  18 110.597 165.886  16
   1  -2  18-142.391 205.578  16
   2  -1  18 194.123 330.003  16
   1  -2  18 16.6544 100.727   8
   1  -2  18 137.391 179.688   2
   1   2 -18 79.1718 76.5113   1
   1  -2  19-55.1822 115.980   2
   2  -1  19 169.658 432.450  16
  -1  -2  19 50.1303 145.062   2
   1  -2  19-42.7899 98.0673   8
  -1  -2  19 368.435 449.237  16
   1  -2  19 44.5440 179.481  16
   1   2 -19 1.94489 84.5054   1
  -1  -2  20 82.3956 98.2385   2
   1  -2  20 40.0560 49.0384   2
   1  -2  20 193.248 329.430  16
  -1  -2  20-18.9839 85.7604  16
   1  -2  20-10.3637 65.6073   8
  -1  -2  21-187.503 215.485  16
  -1  -2  21 102.402 248.077   2
   1  -2  21-62.3217 73.3054   2
   1  -2  21 145.546 122.376   8
   1  -2  21 39.8721 184.345  16
  -2   2  -1-7.89709 55.6017  12
   2   2  -1-79.9233 61.4846   1
   2   2  -2 131.742 94.3241   1
   2  -2   2 383.257 119.718  14
   2  -2   2 376.559 121.926   8
   2  -2   2 416.154 136.033   6
  -2  -2   2 124.202 67.8580   2
  -2   2  -2 568.669 143.092  19
  -2   2  -2 504.304 164.330   3
  -2   2  -2 496.994 134.279  12
   2   2  -2 694.211 236.080  13
  -2   2  -3 0.46634 14.4230  19
   2   2  -3 21.4461 36.2246  13
   2   2  -3-0.93240 29.1690   1
  -2  -2   3 16.0903 69.6924  17
   2   2  -3-1.53781 7.30802  18
   2  -2   3 5.58080 5.87588  14
  -2   2  -3 2.81034 23.7004  12
  -2  -2   3-97.1777 66.9675  16
   2  -2   3 5.64802 31.1001   6
  -2  -2   3-8.76214 18.8599   2
   2   2  -3-0.25758 7.03979   3
  -2   2  -3-2.07124 9.44655   3
   2  -2   3 0.30397 18.2417   8
   2  -2   3-22.1806 75.8910  16
  -2   2  -3 0.33658 46.9497  13
   2   2  -4 203.918 68.0522   3
   2  -2   4 205.234 72.4234  14
   2  -2   4 207.557 110.494  16
  -2   2  -4 176.941 69.5360  12
   2   2  -4 154.720 83.1909  18
  -2  -2   4 137.125 103.698   5
  -2  -2   4 195.926 93.7990  16
  -2   2  -4 182.046 63.8423   4
  -2   2  -4 188.118 98.8990  13
  -2  -2   4 210.177 98.1427   2
  -2  -2   4 163.352 102.721  17
   2  -2   4 221.674 88.7530   6
  -2   2  -4 232.023 93.4063   3
  -2   2  -4 215.547 74.1380  19
   2   2  -4 172.216 82.3531  13
  -2   2  -4 192.775 53.5109   5
   2  -2   4 139.717 58.2973   8
   2   2  -4 190.016 113.576   1
   2  -2   5 3.90895 11.5009   6
   2   2  -5 12.2671 34.0865   3
   2   2  -5 3.40386 15.3000  12
   2  -2   5-3.85730 20.3959  16
  -2  -2   5-9.50176 28.7406   6
  -2   2  -5 9.58831 16.9513   5
  -2  -2   5-9.95948 22.7272   2
   2   2  -5-13.2333 11.6873   1
  -2  -2   5-9.94808 23.3040   5
  -2   2  -5 22.3949 48.9066  13
  -2   2  -5 27.6247 56.9656  12
   2  -2   5 0.66158 36.9192   2
  -2  -2   5 18.6129 52.3794  17
   2   2  -5-5.42313 23.1134  18
   2  -2   5 5.65652 9.50278  14
  -2  -2   5 2.03812 8.39111  16
   2  -2   5 5.10906 11.0210   8
  -2   2  -5 42.6124 56.9296   3
  -2   2  -5 2.15387 18.9168   4
  -2   2  -5 3.08925 11.6688  19
   2   2  -6 3805.02 379.424  18
   2   2  -6 3969.24 414.058  11
  -2  -2   6 3885.22 452.554  17
   2  -2   6 4873.56 418.191   2
  -2   2  -6 4050.26 340.388  19
  -2   2  -6 3959.61 409.362   4
  -2   2  -6 3730.78 231.900  18
   2  -2   6 5032.77 490.047   6
  -2  -2   6 4012.13 444.422  16
  -2   2  -6 3669.99 374.554   5
  -2  -2   6 4198.26 384.287   5
   2   2  -6 3839.28 394.513   1
  -2  -2   6 2469.65 353.728   6
   2  -2   6 4211.01 331.176  14
   2   2  -6 4465.85 639.386  15
  -2   2  -6 3590.06 271.945  11
   2  -2   6 4209.44 361.100   8
   2  -2   6 4283.49 279.606  17
   2  -2   6 4671.74 534.437  16
  -2  -2   6 4108.89 426.555   2
   2  -2   7 14.2535 26.0621  14
   2  -2   7-9.29735 18.7225  17
   2   2  -7-0.15948 32.7943  11
  -2   2  -7 72.8175 138.917  15
  -2   2  -7 2.80638 12.5543  11
   2  -2   7 6.43151 23.6361   2
  -2  -2   7-14.0374 37.4290   6
  -2   2  -7 7.49454 12.8048  18
   2  -2   7-6.47343 28.0223   8
   2   2  -7 12.3416 41.9935  20
   2  -2   7 4.55223 42.5797  16
  -2  -2   7 10.7511 17.3234   5
  -2  -2   7 27.0307 28.4332   2
   2  -2   7-32.6938 75.7160   6
  -2  -2   7 3.90385 21.4504  17
   2   2  -7-2.16834 23.3285   1
  -2   2  -7 1.72496 24.1993  19
   2   2  -7 82.4319 131.196  10
  -2  -2   7 23.6550 44.0171  16
  -2   2  -7 5.65465 22.1802   4
   2   2  -7 13.9155 46.1215  18
  -2   2  -7 29.4930 65.0429  20
  -2  -2   8 118.828 57.6220   5
   2  -2   8 136.148 75.5313   2
   2   2  -8 150.729 123.995  10
   2  -2   8 200.126 87.1200  17
   2   2  -8 143.607 78.0455   1
  -2   2  -8 165.816 207.752  15
  -2  -2   8 133.750 102.807  16
   2  -2   8 160.262 104.781  16
  -2   2  -8 127.121 115.496  10
  -2  -2   8 14.9920 39.6697   6
  -2  -2   8 168.543 99.2110  17
  -2   2  -8 83.8014 65.5601  19
   2   2  -8 117.304 86.3214  20
   2  -2   8 141.052 67.4687  14
   2   2  -8 125.207 79.1697  11
  -2   2  -8 96.1272 62.4714  11
  -2   2  -8 309.144 218.361   7
   2   2  -8 134.622 88.9104  18
   2  -2   8 124.139 106.440   6
  -2   2  -8 92.1557 56.3909  18
  -2   2  -8 55.0327 52.9868  20
   2  -2   8 204.249 106.420   8
  -2  -2   8 137.799 83.8010   2
  -2  -2   9 38.1294 75.1187   2
  -2   2  -9-54.5260 94.5739   7
  -2  -2   9-6.02689 22.1041  16
  -2  -2   9 37.1463 51.0074   5
   2   2  -9-14.4793 29.6418  11
   2   2  -9 74.1335 111.952  20
  -2   2  -9 29.7929 73.5531  10
   2   2  -9-20.6222 72.8206  10
   2  -2   9 7.42629 43.7800  16
  -2   2  -9-7.55332 85.1263  18
   2   2  -9 14.4064 25.0230   1
  -2   2  -9 25.5888 116.462  15
  -2  -2   9-15.5242 47.0661   6
  -2   2  -9-20.2567 38.4604  19
  -2   2  -9 4.30436 42.5417  20
   2   2  -9 18.0711 43.8750  18
  -2   2  -9 135.577 134.157   9
   2  -2   9 38.7473 88.0454   6
   2  -2   9-0.48881 10.2635   2
   2  -2   9-29.5942 32.6704  14
   2  -2   9 10.8122 47.6164  17
  -2   2  -9 53.4999 65.5149  11
   2   2  -9 176.626 211.960   9
   2  -2   9-23.8402 31.4972   8
  -2  -2   9 19.8892 51.3226  17
   2   2 -10 45.3820 102.272  10
  -2   2 -10 11.1502 30.6343   9
   2   2 -10-9.05838 30.6946  18
  -2  -2  10-25.9872 44.3533   6
  -2   2 -10-132.085 243.769  15
  -2   2 -10-16.3655 77.6638  11
   2   2 -10-5.64492 91.6567  20
   2   2 -10 45.4602 66.6927   1
  -2  -2  10-11.8992 68.4039  16
   2  -2  10-0.99729 12.1929  16
   2  -2  10 32.3485 77.0203  14
  -2  -2  10 8.36015 49.6650  17
   2   2 -10 30.7366 33.2462  11
  -2   2 -10-5.21116 57.4414  10
  -2   2 -10 80.5677 112.384  20
   2  -2  10 39.8097 50.8704   2
   2   2 -10-55.1253 62.5077   9
  -2  -2  10 15.0149 38.6313   5
   2  -2  10 37.9635 7.60234   6
  -2  -2  10 50.8452 84.4385   2
  -2   2 -10-15.9464 18.9040  19
  -2   2 -10-117.797 255.491   7
   2  -2  10 3.64849 120.559  17
   2  -2  10 68.7355 97.3239   8
  -2  -2  11 79.4343 126.305   2
   2   2 -11-2.68968 18.3027  20
  -2  -2  11-61.8121 153.079   6
   2  -2  11 75.4906 74.6288   2
  -2   2 -11 21.2786 16.4183  20
  -2  -2  11-9.62573 44.1192  17
   2   2 -11 88.0685 144.173   9
   2  -2  11 60.5966 113.380   6
   2   2 -11 9.74592 38.4149  18
  -2   2 -11-11.8431 48.0296  11
  -2   2 -11 24.3646 49.6314  10
   2   2 -11 1.00203 50.5584  11
  -2   2 -11-1.12887 53.2596   9
   2  -2  11 104.707 137.746  16
   2   2 -11 14.2147 41.3399   1
   2   2 -11 0.81179 89.2610  10
  -2  -2  11 0.23533 40.9709   5
   2  -2  11-10.6306 30.7565   8
  -2  -2  11 15.0489 102.888  16
   2  -2  12 1101.12 410.415  16
  -2   2 -12 300.345 144.378   9
   2  -2  12 645.143 303.843   6
  -2   2 -12 258.817 160.163  20
  -2  -2  12 918.584 360.490  16
   2   2 -12 418.381 186.029  18
  -2  -2  12 771.073 282.760   2
   2   2 -12 425.340 203.063  11
   2   2 -12 402.978 166.938   1
  -2  -2  12 822.140 182.226   5
   2   2 -12 131.540 139.502  20
  -2   2 -12 240.287 167.522  10
   2  -2  12 931.747 291.059   8
  -2  -2  12 910.293 305.720  17
  -2   2 -12 266.513 136.585  11
   2   2 -12 328.126 203.360  10
   2  -2  12 927.226 241.662   2
   2   2 -12 335.439 188.559   9
  -2  -2  12-91.9338 222.262   6
   2   2 -13 30.8320 52.8137  11
   2   2 -13-69.1863 120.313  10
   2  -2  13 49.7558 91.0434  16
  -2  -2  13 35.5873 97.8297  17
   2   2 -13 3.09659 22.0876   9
  -2   2 -13-123.117 142.535   9
   2   2 -13-22.2050 52.1889   1
   2  -2  13-37.8806 83.3487   6
  -2   2 -13-54.8801 141.133  20
   2   2 -13-208.924 194.630  20
   2  -2  13-42.6957 98.3610   2
  -2  -2  13 23.8410 59.8746   2
   2  -2  13-99.9514 140.049   8
  -2   2 -13-128.064 176.032  10
  -2  -2  13-74.6305 165.872  16
   2   2 -13 64.7175 120.039  18
  -2  -2  14 346.065 215.757   2
   2   2 -14-293.263 453.302  20
   2  -2  14 204.127 249.983   6
  -2  -2  14 317.197 188.192  17
   2   2 -14 102.342 78.6314  11
  -2  -2  14 303.713 257.199  16
   2   2 -14 136.927 140.000  18
   2  -2  14 293.955 259.598  16
  -2   2 -14 53.4719 144.371  20
  -2   2 -14 88.6487 124.671  10
   2   2 -14 102.513 97.0088   1
   2  -2  14 324.406 148.187   2
  -2   2 -14-92.1904 94.9603   9
   2   2 -14 4.65360 95.4917  10
   2   2 -14 125.293 89.3174   9
   2  -2  14 261.945 189.810   8
   2   2 -15 36.8171 114.602  18
   2  -2  15 47.5946 122.700   6
  -2  -2  15 107.289 107.301  17
  -2  -2  15-158.586 184.185  16
   2   2 -15 84.3308 160.746   9
   2   2 -15 24.8343 127.450  11
   2   2 -15 49.0960 106.817   1
   2  -2  15-21.7256 72.0993   2
   2  -2  15 27.0652 202.257  16
  -2   2 -15-63.1472 148.384   9
   2  -2  15 68.7568 84.2273   8
  -2   2 -15-78.6676 128.013  10
  -2   2 -15-126.782 255.350  20
  -2  -2  15 54.9032 83.1836   2
   2   2 -15 60.6886 74.4868  10
   2   2 -16-56.9562 119.293   9
   2   2 -16-52.1111 131.728  11
   2  -2  16-107.881 55.6443   6
  -2  -2  16 64.2481 72.3942  17
  -2  -2  16 15.1644 116.059  16
   2  -2  16-22.2716 105.093  16
   2   2 -16 57.2397 94.3521   1
  -2  -2  16 51.9987 103.334   2
   2  -2  16 90.0335 134.981   2
   2   2 -16-459.287 435.316  10
  -2   2 -16 94.8472 140.809  10
   2  -2  16-43.0133 89.8661   8
   2  -2  17-117.340 94.5722   8
   2  -2  17 144.020 190.165  16
   2  -2  17-19.3980 135.998   6
  -2  -2  17-70.8609 218.012  17
   2   2 -17 0.15895 15.7962  11
  -2   2 -17-432.092 530.382  10
   2   2 -17 38.5102 88.2575   1
  -2  -2  17-45.0152 160.036   2
   2  -2  17 20.7845 99.4193   2
  -2  -2  17 204.434 252.996  16
   2  -2  18 654.585 347.586   2
   2  -2  18 171.300 121.059   8
   2   2 -18 85.9796 134.891   1
   2  -2  18 252.013 252.643   6
  -2  -2  18 624.096 352.337   2
  -2  -2  18 249.578 225.808  17
  -2  -2  18 597.879 503.996  16
   2  -2  18 688.621 486.473  16
  -2  -2  19-6.55452 138.591   2
   2  -2  19 70.1214 237.535  16
   2   2 -19 69.6249 127.849   1
  -2  -2  19-157.852 386.155  16
   2  -2  19-78.2654 82.9971   2
   2  -2  19-296.071 333.243   6
   2  -2  19-51.5591 41.0237   8
   2  -2  20 725.079 301.297   2
   2  -2  20 142.376 152.435   8
   2  -2  20 973.772 526.753  16
  -2  -2  20 749.172 528.746  16
   2  -2  20-212.708 487.310   6
   2   2 -20 99.9815 131.277   1
  -2  -2  20 697.556 372.108   2
   3   0   0 1.95753 30.2334   8
   3   0   0 9.21520 24.1038  11
   3   0   0-6.01186 1.95787   6
   3   0   0 6.42611 20.7100  18
  -3   0   0-8.32215 17.4270   5
  -3   0   0-5.70207 16.1022  19
  -3   0   0 9.67587 24.8593  12
   3   0   0 4.56018 18.7486   1
   3   0   0 9.05928 28.1471  14
  -3   0   0 1.59654 2.54281   2
  -3   0   0 6.73094 28.2323  17
  -3   0   0 5.79892 25.6187   4
   3   0   1 1477.96 237.777  14
  -3   0   1 1316.66 197.346   5
  -3   0  -1 1096.21 160.363  17
  -3   0   1 1255.47 209.410  17
   3   0  -1 1627.29 150.623   6
   3   0  -1 1208.68 160.426   8
  -3   0  -1 1218.68 222.367   4
  -3   0  -1 1195.45 220.899   5
   3   0   1 1498.42 200.139   6
  -3   0   1 1070.57 146.639  12
   3   0  -1 1471.26 199.744  18
  -3   0  -1 1123.58 219.516  19
   3   0   1 1524.37 228.785   1
  -3   0   1 1353.69 187.163   4
   3   0   1 1418.77 156.304  18
  -3   0   1 1246.11 152.506   2
   3   0   1 1406.61 213.483   8
  -3   0   1 1331.79 183.997  19
   3   0  -1 1413.16 200.440  14
   3   0  -1 1616.64 207.590  11
   3   0  -1 1317.22 202.033   1
   3   0   2 6.65324 34.5962   1
  -3   0  -2 9.55893 42.6327   4
  -3   0  -2 26.8417 66.5373   7
  -3   0  -2-12.9981 12.4117  15
   3   0  -2 5.70272 40.1231  11
  -3   0  -2-4.29251 39.2768  19
   3   0   2 28.8670 61.5940   8
   3   0   2-7.27402 28.9279  16
   3   0  -2 3.60620 22.2563  18
  -3   0   2-6.75293 14.9477   2
   3   0   2 5.07139 24.7908  14
  -3   0  -2-14.4688 45.0379  20
  -3   0   2 3.84524 35.4413  17
   3   0  -2 3.23309 5.49488  14
  -3   0   2-6.95698 13.9133   5
   3   0  -2-52.1930 112.669   9
  -3   0   2 5.93913 19.2716   4
   3   0  -2 9.60333 18.7554   1
  -3   0  -2-0.15070 18.9653   5
  -3   0   2 2.48259 24.6789  19
   3   0   2-19.8964 31.2710  18
   3   0   2-13.2527 23.1353   6
   3   0  -2-3.17659 11.9840   8
   0   3  -3 29.7997 37.2702   3
   0   3  -3-12.6681 73.7552  13
   3   0  -3 56.4743 46.3513   1
   3   0   3 39.8850 59.1337  14
   3   0   3 78.0111 64.6334  16
   3   0   3 78.8944 98.0076   1
  -3   0  -3-41.3318 120.800  20
   3   0  -3 52.5478 40.0809  14
  -3   0  -3 7.38880 85.4620   7
   3   0  -3 72.1649 69.6983  11
   3   0   3 81.1430 86.6203   8
  -3   0   3 58.2752 54.1458  17
  -3   0   3 50.9696 35.6024  19
  -3   0  -3 9.06097 18.3093   4
   3   0  -3 57.1501 66.5043   8
   3   0  -3 51.3807 51.5473  18
  -3   0   3 50.2020 46.2296   2
  -3   0   3 39.6278 18.6318   5
  -3   0  -3-15.6965 77.6965  15
   3   0   3 79.8500 80.7677   6
  -3   0   4-6.88153 22.1827  17
   3   0  -4 10.9718 40.2947   1
   0   3  -4 7.61496 20.1974  12
  -3   0   4-4.17946 33.2585   2
   3   0  -4 7.62052 35.2492  18
   0   3  -4 7.33794 11.3238   3
   3   0  -4 17.0742 74.9264  11
   3   0   4-20.7968 78.2322   8
   3   0   4-14.0953 53.5096  14
   0  -3   4-3.64704 41.2832   6
   3   0  -4-3.71445 22.2106  14
   3   0   4-9.83276 39.2802   6
   3   0   4-19.6712 66.0012   1
   3   0   4-17.1110 18.2650  16
  -3   0   4-2.66065 39.1713  19
   0   3  -4-4.22238 60.3125  13
   3   0   5-12.2487 62.4946   8
   0   3  -5 31.2090 21.4766  12
   0  -3   5 36.9753 44.1135   6
   3   0   5 18.3184 69.0383  14
   0   3  -5 0.27748 92.8641  18
   3   0   5 16.7164 59.9582   6
   0   3  -5 27.8363 28.9421  13
   0  -3   5 20.9368 45.9946  16
   0  -3   5 57.6799 111.753  17
  -3   0   5 32.9192 25.7732   2
   0   3  -5 33.8579 26.3787   3
   3   0  -5 39.7619 44.3308  14
   3   0   5 119.720 165.332  16
   3   0  -5 8.27726 53.0047  11
  -3   0   5 47.8427 54.2794  17
   3   0  -5 35.0923 62.7624   1
   0  -3   5-11.4237 70.5941   2
   3   0  -5 44.5255 80.5580  18
   0  -3   6 5.14174 6.64326   6
  -3   0   6-19.3206 91.3564  17
  -3   0   6-47.9334 111.837   2
   0  -3   6-3.87016 19.0640  16
   3   0   6 1.09571 33.6240  16
   0   3  -6-1.44926 6.00516  18
   0  -3   6 3.76554 62.3251   2
   3   0   6-0.81333 9.18362   6
   3   0   6-20.4840 73.0046  14
   0   3  -6 9.81508 23.4094   3
   0   3  -6-24.3191 29.4585  13
   3   0  -6-30.4845 10.4989  11
   3   0  -6-4.01876 64.8153  18
   3   0  -6-43.0416 139.753   1
   0   3  -6-2.59754 5.83167  12
   3   0  -6-30.7886 84.9908  14
   0  -3   6 2.51731 55.8081  17
  -3   0   7 3173.15 541.282   2
   3   0   7 1681.54 474.143   6
   3   0  -7 1364.31 384.497  18
   0   3  -7 2395.50 298.055  18
   3   0  -7 920.789 337.489  11
   3   0  -7 1995.32 498.659   1
  -3   0   7 4262.81 724.414  17
   3   0   7 2186.68 580.708  16
   0  -3   7 2779.59 429.813  16
   0   3  -7 2784.99 362.027   3
   0   3  -7 2607.33 297.437  12
   0  -3   7 2868.94 434.116   2
   0  -3   7 2638.10 372.849  17
   0   3  -7 2146.25 340.247  13
   0  -3   7 2691.34 268.466   8
   0  -3   7 2883.75 366.161   6
  -3   0   7 681.326 533.490  16
   0   3  -8 11.3036 13.6656   1
   0   3  -8 26.6265 74.7473  12
   0  -3   8 26.0809 55.6415  16
   3   0   8-43.1053 91.7720   6
  -3   0   8 30.5857 71.7189  17
   0   3  -8 2.16090 15.9503  18
   3   0   8 9.77204 158.754  16
   0  -3   8 2.38591 11.8690   8
   0  -3   8 54.1100 69.4177   6
  -3   0   8-85.6103 203.270   2
   0  -3   8-0.27960 45.2299   2
   0  -3   8-27.4267 65.2145  17
   3   0  -8 10.8912 75.9171  11
   0  -3   9 21.1616 32.7857   8
   3   0   9 94.1760 175.024  16
   0  -3   9 14.6012 25.0798   6
   0   3  -9-4.62190 18.9517  18
  -3   0   9-17.6449 135.275  17
   0  -3   9 18.0895 41.9901   2
   0   3  -9 28.5923 62.0893   1
   0   3  -9 20.9466 57.5303  11
   3   0  -9-47.7741 140.911  11
   0  -3   9 38.7225 76.4465  16
   0   3  -9 143.016 194.733   7
  -3   0   9-112.139 232.293   2
   0  -3   9 13.0759 8.70865  17
   0   3  -9 71.2196 161.186  15
   3   0   9 1.03953 62.9824   6
   0  -3  10-44.9138 53.2356   2
  -3   0  10-127.516 278.716  17
   0  -3  10 50.9273 77.3027  16
   0   3 -10 7.44736 102.337  15
   0  -3  10 10.2393 16.6603   8
   0   3 -10-23.8006 28.3417  11
  -3   0  10-105.382 229.031   2
   0   3 -10 39.1259 78.7642  20
   0   3 -10-12.0461 11.3454   1
   0   3 -10 33.5388 119.053   7
   0  -3  10-14.4093 88.2968   6
   0  -3  10 6.52589 9.71624  17
   3   0  10-10.9234 130.203  16
   3   0  10-43.2624 23.0020   6
   0   3 -10-8.62675 35.5709  18
   3   0  11-37.0533 107.803   6
   0   3 -11-18.4496 204.379  15
   0   3 -11-27.6909 188.451   7
   0   3 -11 26.1030 20.1869  19
   0   3 -11 149.813 138.488  10
   0   3 -11 56.6562 60.4187  20
   0   3 -11 14.1418 27.1433  18
   0  -3  11 57.6177 35.2092   8
   3   0  11-62.8796 134.218  16
  -3   0  11-123.512 273.488   2
   0  -3  11 81.1809 90.7974  17
  -3   0  11-155.988 311.780  17
   0  -3  11 89.1285 111.592   6
   0  -3  11 39.5222 72.3408   2
   0   3 -11 49.9266 57.2940  11
   0  -3  11 39.7329 71.3821  16
   0   3 -11 16.8648 14.9680   1
   0  -3  12-4.51979 10.6592   8
   0  -3  12 35.6219 59.4079  17
   0   3 -12-7.67185 16.1869  19
   0   3 -12-329.716 490.847  15
   3   0  12-161.886 233.549   6
   0   3 -12 141.812 158.071  20
   0   3 -12 205.108 192.741   9
   0  -3  12 5.73186 38.9896  16
   0  -3  12 29.1657 51.4054   2
   3   0  12 9.52019 78.6907  16
  -3   0  12-150.541 290.173   2
   0   3 -12-14.6368 7.64008   1
   0   3 -12-1.32544 25.8514  18
   0  -3  12-3.02964 44.2107   6
   0   3 -12-55.0219 56.4735  11
   0   3 -12 58.1430 105.554  10
   0  -3  13 461.882 230.855   2
   0  -3  13 464.499 174.752  17
   0   3 -13 244.782 166.800   9
   3   0  13-250.359 301.605   6
   0  -3  13 1201.05 550.965   6
   0  -3  13 594.042 161.849   8
   0   3 -13 112.354 84.7565  20
   0   3 -13 151.228 70.1889   1
   0  -3  13 507.176 297.364  16
   0   3 -13 223.021 112.031  18
   0   3 -13 300.366 136.064  11
   0   3 -13 241.673 220.683  10
   0   3 -13 119.019 60.7667  19
   3   0  13 437.000 337.618  16
   3   0  14 314.206 349.980  16
   0   3 -14-16.4295 35.7682   1
   0   3 -14-18.8294 65.4328  18
   0  -3  14-6.35380 90.6129   6
   0  -3  14 110.890 153.537   2
   0   3 -14 107.866 172.053  10
   0   3 -14 80.7192 50.3953  19
   0   3 -14-46.9943 113.821  20
   0  -3  14 175.426 116.771   8
   0  -3  14 102.173 96.9801  16
   0   3 -14 55.5763 111.821   9
   0  -3  14-17.0867 28.0765  17
   0   3 -14-53.8391 58.6232  11
   0   3 -15 148.161 101.715  11
   0   3 -15 87.7304 76.4039   1
   0   3 -15 28.0403 50.1358  10
   0  -3  15 335.715 144.772   8
   0  -3  15 124.350 57.9979   5
   0   3 -15 57.6576 61.6240  18
   0  -3  15 183.896 181.084  16
   0  -3  15 183.866 124.312   2
   0  -3  15 241.082 175.093  17
   0   3 -15 15.5105 38.5505   9
   0   3 -15 100.465 76.2677  19
   0  -3  15 94.1011 123.907   6
   0   3 -15 173.625 185.529  20
   0   3 -16-84.5312 94.9205   9
   0   3 -16-8.08932 55.6834  19
   0  -3  16 63.0849 147.689  16
   0   3 -16 64.2834 73.5495   1
   0   3 -16-41.5003 108.904  11
   0  -3  16-16.6435 34.2211   5
   0  -3  16-138.788 152.005  17
   0  -3  16 9.69977 46.4635   2
   0   3 -16 76.0812 63.0889  20
   0  -3  16-118.381 228.029   6
   0  -3  16 66.1787 60.6538   8
   0   3 -16-33.2392 121.264  10
   0   3 -16-79.3951 130.896  18
   0   3 -17 190.539 200.439  10
   0  -3  17 340.640 235.244   2
   0   3 -17 105.117 77.3703   1
   0   3 -17 96.9356 111.819   9
   0  -3  17 247.080 170.209   8
   0  -3  17 170.188 199.171   6
   0   3 -17 79.5434 138.296  11
   0   3 -17-182.299 183.069  20
   0  -3  17 468.059 308.152  16
   0  -3  17 264.720 205.931  17
   0  -3  17 103.813 19.2188   5
   0   3 -18-100.544 265.918  20
   0  -3  18 274.165 210.005   2
   0  -3  18 76.3726 189.038  17
   0   3 -18 123.517 62.0950   9
   0  -3  18 126.214 154.448   8
   0   3 -18 169.573 106.971   1
   0   3 -18 184.369 268.717  10
   0   3 -18 134.178 64.5221  11
   0  -3  18 62.8564 196.711  16
   0  -3  18 47.1112 44.7787   6
   0   3 -19-126.763 261.913  10
   0   3 -19 27.0855 134.005   9
   0  -3  19 799.686 351.403   2
   0  -3  19 942.475 526.170  16
   0  -3  19-178.523 288.448   6
   0   3 -19 56.4525 51.2096  11
   0  -3  19 846.672 283.758   8
   0  -3  20-10.7699 120.871   8
   0  -3  20 106.501 197.348   2
   0   3 -20-155.404 292.456   9
   0   3 -20-401.224 449.901  10
   0  -3  20-126.834 224.498  16
  -3   1   0 588.744 130.100  19
   3  -1   0 601.364 134.856   8
   3   1   0 757.716 198.238  18
   3  -1   0 717.750 152.248   6
  -3  -1   0 304.534 127.071   2
  -3  -1   0 269.634 150.239   4
  -3  -1   0 467.236 188.390  17
   3   1   0 586.482 217.123  14
   3   1   0 630.137 192.100   8
  -3  -1   0 351.847 171.798   5
   3   1   0 785.606 234.335   1
  -3   1   0 563.936 141.731  12
  -3   1   0 643.361 143.652   5
   3  -1   0 737.604 156.641  14
   3  -1   0 715.098 163.520   1
  -3  -1   1 309.792 127.987  19
   3   1  -1 505.127 122.900  13
   3   1  -1 334.006 150.782  14
   3  -1  -1 341.770 123.756   8
   3  -1   1 339.610 96.8672   8
   3  -1   1 378.186 101.234   1
  -3   1   1 471.053 130.021  19
   3   1   1 287.278 165.493  14
  -3  -1   1 296.851 128.611   5
   3   1  -1 388.143 122.869   8
  -3   1  -1 378.578 99.3404  12
   3  -1   1 372.528 107.151  14
   3  -1  -1 418.840 131.106  14
  -3   1  -1 29.9706 94.2396  17
   3  -1  -1 284.693 117.743   1
   3   1  -1 406.224 144.566   1
  -3   1  -1 407.842 129.695   3
  -3   1  -1 365.202 101.424  19
   3   1   1 259.036 156.380   1
  -3   1  -1 360.706 100.901   4
  -3  -1   1 323.771 108.425   2
  -3  -1   1 297.860 120.837  17
   3   1  -1 384.135 121.362  18
   3  -1   1 448.814 107.152   6
  -3   1  -1 356.893 99.4275   5
  -3  -1   1 283.966 125.566   4
   3   1  -2 183.706 64.7119   8
  -3   1  -2 151.679 63.2704   5
  -3  -1   2 171.925 79.9090   4
   3  -1   2 229.586 97.2250  16
  -3  -1   2 187.713 81.5871  19
  -3   1  -2 164.350 66.8374  12
   3  -1  -2 154.087 87.1548  14
   3   1   2 18.0592 35.1462   1
   3   1  -2 195.351 82.0046  18
  -3   1  -2 178.544 75.7818   4
  -3  -1   2 170.754 88.1824  17
   3  -1   2 196.612 76.0108  14
   3   1   2 1.86048 13.8288   6
  -3   1   2 234.401 108.510  19
   3   1   2 47.6975 95.7305  14
  -3  -1   2 172.545 72.3383   2
  -3   1  -2 238.629 84.7662   3
   3  -1   2 155.563 59.6698   1
  -3   1  -2 149.847 69.0878  19
   3  -1   2 176.290 69.4424   8
   3   1  -2 192.082 95.0495  14
  -3  -1   2 196.162 97.6257   5
   3  -1   2 222.664 83.0583   6
   3   1  -2 205.313 96.4262   1
  -3   1  -3 178.676 79.7824   4
   3  -1   3 186.795 82.0850   8
   3   1  -3 170.007 69.2627  20
  -3   1  -3 196.204 86.4841  19
  -1   3  -3 235.363 121.141  12
  -3  -1   3 177.719 74.6494   2
  -1   3  -3-36.6236 129.937  13
  -3  -1   3 175.172 60.1316  16
   3   1  -3 148.492 80.1890  14
   3   1   3-2.02594 52.1651   6
   3  -1   3 221.938 89.9932  16
   3   1  -3 196.773 57.0907   8
  -3  -1   3 169.702 68.7664   4
  -1   3  -3 213.961 115.772   3
  -3  -1   3 205.898 89.7767   5
   3   1  -3 239.436 101.916  11
   3  -1   3 235.324 84.0164   6
   3   1   3-14.9833 94.6930  14
   3  -1   3 221.668 75.0629   1
  -3  -1   3 204.509 70.2979  19
   3   1  -3 194.829 87.9854   1
  -3   1  -3 158.817 71.1350   5
   1   3  -3 230.475 174.987  13
  -3  -1   3 172.769 91.7703  17
   3   1  -3 170.831 78.6275  18
   3  -1   3 211.124 77.8725  14
   3  -1   4 374.538 120.701   6
   3  -1   4 342.252 114.635   8
   3   1  -4 359.657 118.867  11
   3  -1   4 405.140 140.071  16
  -3  -1   4 349.575 105.012  16
  -3  -1   4 330.715 87.8926   4
   3  -1   4 417.837 125.957   1
  -3   1  -4 269.178 111.788   5
   1   3  -4 372.024 135.762   3
   1   3  -4 294.610 92.4161  12
   1   3  -4 474.367 190.615  13
   1  -3   4 257.283 107.478   6
  -3   1  -4 323.004 105.003  10
  -1   3  -4 423.939 246.224  13
  -3   1  -4 243.052 121.064   4
   3   1  -4 392.647 137.812  10
  -3  -1   4 317.400 122.767  17
  -1   3  -4 378.586 119.138  12
   3   1   4-16.7479 56.4542   6
   3   1  -4 315.494 79.4330   8
   3  -1   4 327.142 105.292  14
  -3  -1   4 282.516 99.9401   2
  -3   1  -4 251.886 105.996  19
  -1  -3   4 28.1285 124.892   2
   3   1  -4 274.245 99.8846   1
  -1   3  -4 449.391 159.199   3
  -1  -3   4 108.017 43.8363   6
  -3   1  -4 184.807 80.4687  20
   3   1  -4 290.279 100.955  18
  -3  -1   4 296.599 80.0477  19
  -3  -1   4 269.616 100.168   5
   3   1  -4 199.656 99.4416  20
   3   1  -4 288.754 93.6819  14
  -3   1  -5 284.343 121.615  10
   3   1  -5 316.298 119.070  11
   3  -1   5 468.024 151.310  14
  -3   1  -5 216.704 101.196  20
   1  -3   5 362.863 126.721   6
   1   3  -5 404.047 150.011  13
   1   3  -5 410.483 110.339  12
  -3   1  -5 246.001 120.779   4
  -1  -3   5 231.108 128.515  16
  -3  -1   5 313.067 113.064   5
  -1   3  -5 421.862 180.959  13
   3  -1   5 466.996 171.609  16
   3  -1   5 408.215 143.435   8
  -1  -3   5 264.709 146.665   2
  -3   1  -5 350.366 109.210   9
   3  -1   5 358.668 135.934   6
  -3  -1   5 353.225 120.162   2
   1   3  -5 419.603 169.349  18
   3   1  -5 323.190 95.3849  14
   1  -3   5 292.075 152.926  16
  -1  -3   5 349.955 174.907  17
   1  -3   5 269.050 103.657   8
   1   3  -5 398.933 129.837   3
  -3   1  -5 261.162 123.739  19
  -3   1  -5 419.878 217.638  15
  -1  -3   5 301.824 108.742   6
   3   1  -5 183.810 113.249  20
  -1   3  -5 355.829 111.654  12
   3   1  -5 449.189 178.389   9
  -1   3  -5 375.212 133.497   3
   3   1  -5 310.143 114.024  18
  -3  -1   5 360.026 128.160  16
  -3  -1   5 318.470 85.1247   4
   3  -1   5 141.402 61.9939   1
  -3   1  -5 507.886 216.859   7
  -3  -1   5 402.806 107.588  19
  -3  -1   5 344.029 137.279  17
   3   1  -5 380.023 167.549  10
   3   1   5-40.4595 107.063   6
   3   1  -5 328.050 116.807   1
  -1  -3   6 913.038 258.215   2
  -3  -1   6 972.227 220.098   2
  -3   1  -6 728.821 184.977   9
  -1   3  -6 1134.00 214.552  19
  -1  -3   6 856.204 233.112  16
   3   1  -6 863.660 246.979   9
  -1  -3   6 965.589 255.051  17
   3   1  -6 1012.23 163.687  14
  -3   1  -6 911.175 338.383  15
   3   1  -6 955.655 224.576  11
   3   1  -6 943.759 213.742   1
   3  -1   6 1225.15 165.823   2
   1  -3   6 793.765 260.649   2
   3   1  -6 890.962 210.760  18
   3  -1   6 1222.09 311.087  16
  -1  -3   6 939.684 191.105   6
   3   1  -6 682.411 240.646  10
  -1   3  -6 973.700 209.337  18
   3  -1   6 1272.36 291.486   8
  -1   3  -6 978.817 186.205  12
  -3   1  -6 542.811 189.082  20
  -3   1  -6 267.197 144.820   4
   1   3  -6 904.581 219.562  13
   1  -3   6 900.761 168.891   8
  -3   1  -6 610.740 212.933  19
   1   3  -6 987.856 226.553  18
  -3  -1   6 1103.92 267.521  17
   3   1  -6 165.868 127.226  20
  -1   3  -6 1123.54 228.534   3
  -1   3  -6 951.214 240.681  13
   1  -3   6 1041.57 174.793  14
   1  -3   6 1156.39 229.336   6
   3  -1   6 1091.99 277.060   6
   1   3  -6 1014.49 161.926  12
   1   3  -6 1123.04 210.525   3
  -1   3  -6 971.288 132.710   4
  -3   1  -6 728.487 212.690  10
   1  -3   6 950.780 259.240  16
   3  -1   6 1114.72 271.324  14
  -3  -1   6 1039.22 200.480   5
  -3   1  -6 857.757 290.682   7
   1  -3   6 1089.95 267.111  17
  -3  -1   6 1018.39 276.738  16
  -3   1  -7 22.7519 135.833   7
  -1   3  -7 200.226 108.343   3
  -1   3  -7 217.745 71.4301   4
   1   3  -7 176.316 85.6097  18
   1   3  -7 200.067 72.8935  12
   3   1  -7 207.753 114.719  18
   1  -3   7 193.568 62.4736  14
   3   1  -7 183.697 69.9195  14
   3   1  -7 176.924 116.585  11
  -1  -3   7 209.297 124.230  16
   1   3  -7 191.483 108.570  13
  -3  -1   7 218.418 123.434   2
  -1  -3   7 170.191 80.3441   6
   3  -1   7 254.945 86.9176   2
  -1   3  -7 145.002 64.1115  18
  -3   1  -7 123.273 83.7835  15
   1  -3   7 225.501 146.668  16
   3   1  -7-11.0731 115.691  10
   3  -1   7 255.886 162.305   6
  -3  -1   7 182.378 86.4633   5
   3  -1   7 278.674 165.177  16
   1  -3   7 212.479 107.841   6
   1   3  -7 101.197 81.3658   1
  -1  -3   7 163.903 94.9345  17
   1   3  -7 233.107 103.056   3
  -1  -3   7 193.906 132.908   2
  -1   3  -7 223.122 79.2443  19
   1  -3   7 224.776 136.092   2
   3   1  -7 199.890 144.420   9
   3  -1   7 238.459 165.609  14
  -3  -1   7 189.164 112.972  16
  -1   3  -7 167.946 97.0945  13
   3  -1   7 215.316 120.247   8
  -3   1  -7 73.9317 75.1568  20
  -3   1  -7 93.7643 75.3794  10
   3   1  -7-50.0525 172.889  20
  -3   1  -7 39.4400 81.6292   9
  -1   3  -7 181.596 94.9944  12
  -3  -1   7 274.795 144.628  17
   1  -3   7 205.308 86.1257  17
   3   1  -7 173.959 79.0740   1
   1  -3   7 161.646 66.6628   8
  -3  -1   8 672.593 306.120  16
   3   1  -8 295.321 185.855   9
  -3  -1   8 736.877 237.949   2
  -1   3  -8 599.680 157.006   4
   3   1  -8-149.869 313.090  20
   1   3  -8 497.668 182.306   1
   3   1  -8 457.561 175.790   1
   1  -3   8 470.203 91.3207  14
  -1  -3   8 492.130 181.453   6
   3   1  -8 383.623 176.895  11
   1   3  -8 431.674 134.531  18
  -3   1  -8 157.501 86.0321   9
   3  -1   8 640.384 275.867  16
   3  -1   8 661.349 179.029   2
   3  -1   8 363.907 169.996  14
  -1  -3   8 578.794 199.683  16
   3   1  -8 457.239 118.034  14
   1  -3   8 591.851 225.959  16
  -3   1  -8 164.214 135.218  10
   1  -3   8 607.642 199.829   6
  -1   3  -8 444.952 109.219  18
   1  -3   8 450.233 116.985   8
  -1  -3   8 471.196 153.958  17
   3   1  -8 417.096 173.084  18
   3  -1   8 580.069 242.326   6
  -1  -3   8 452.951 183.292   2
   3  -1   8 544.855 227.995   8
  -3  -1   8 668.359 236.427  17
  -3   1  -8 140.826 119.635  20
   3   1  -8 178.305 192.205  10
  -3   1  -8-147.461 296.715   7
  -1   3  -8 611.677 120.458  19
  -3  -1   8 574.855 163.924   5
   1  -3   8 515.614 200.625   2
  -1   3  -8 534.669 173.982  12
   1  -3   8 475.890 142.928  17
   1   3  -8 531.008 140.622  12
   1  -3   9 345.903 104.636   8
  -3  -1   9 451.732 202.163   2
  -1  -3   9 350.036 150.420   2
  -1   3  -9 248.744 89.8364  18
  -3   1  -9 58.7090 112.440  10
  -1   3  -9 691.481 336.458  15
  -1  -3   9 417.209 173.398   6
   3  -1   9 264.597 192.675   8
   3   1  -9 207.422 144.926  11
  -1   3  -9 380.478 119.767  11
  -1   3  -9 380.663 88.4306  19
  -3  -1   9 381.589 203.178  17
   3  -1   9 476.892 274.628  16
  -3  -1   9 391.442 261.142  16
   1  -3   9 339.115 97.5763  14
   1   3  -9 288.607 127.582  11
   1  -3   9 349.958 164.609  16
  -3   1  -9-52.1112 210.003   9
   1   3  -9 301.481 136.130   1
   3   1  -9 238.557 158.624  18
  -1  -3   9 282.017 130.468  17
   3   1  -9 186.006 147.259   9
   1  -3   9 329.069 141.339   2
   1   3  -9 587.916 279.169  15
   1  -3   9 405.863 183.104   6
  -1  -3   9 324.513 169.372  16
  -3   1  -9 108.655 96.1478  20
   3  -1   9 78.3535 81.5270  14
   3   1  -9 327.949 115.391  14
   3   1  -9 273.770 161.248   1
   1   3  -9 286.818 113.246  18
   1   3  -9 359.174 169.603  20
   1   3  -9 588.324 303.495   7
   3  -1   9 395.940 139.275   2
   1  -3   9 363.556 125.563  17
  -1   3  -9-59.5221 151.073   4
   3  -1   9 345.554 189.757   6
   3   1  -9 107.974 63.8808  10
  -1  -3  10 69.4110 74.0689   2
   3   1 -10-0.20577 19.7395  18
   1   3 -10 37.3041 85.9037  20
   1   3 -10 45.1707 132.311  15
  -3  -1  10-8.39633 62.0829  17
  -1  -3  10 34.4155 26.4169   8
   1   3 -10 21.3147 33.7550   1
  -1   3 -10 41.7623 31.6062  19
  -1  -3  10 33.8496 32.2834  17
  -3   1 -10-182.930 153.941  20
   3  -1  10-21.3385 104.618  16
   1   3 -10 35.8013 35.6879  18
   1  -3  10 42.3451 51.2039   8
   3  -1  10-23.1430 132.867   2
   1  -3  10 33.1774 34.9782  17
   3   1 -10 94.3837 115.885  11
  -3  -1  10 39.7734 103.166  16
  -1   3 -10 17.0811 27.3500  18
  -1   3 -10 37.2570 30.7353  11
   3   1 -10 16.9603 11.5787  14
  -1   3 -10 11.1079 36.6094  20
   3  -1  10 7.66866 82.4867   8
   1  -3  10 60.6332 47.8546   6
   3   1 -10-40.9801 105.556   9
  -1  -3  10 56.8170 53.8549   5
  -1   3 -10 265.922 275.646   7
   1  -3  10 56.7271 52.8573  14
  -3   1 -10-175.558 245.141  10
   3   1 -10-31.9073 87.3994   1
   3  -1  10 57.1199 146.016   6
  -1  -3  10 20.2498 2.10569  16
  -1  -3  10 0.29432 70.9674   6
   1   3 -10 223.053 187.474  10
  -3  -1  10 40.5637 58.6335   2
   1  -3  10 25.2493 57.4839   2
   1   3 -10 62.8015 88.0871  11
   1  -3  10 5.66713 81.6901  16
  -1   3 -10 84.2727 164.968  15
   1   3 -10-42.1959 196.625   7
   3   1 -11 35.8169 29.0392  11
  -1   3 -11 35.2332 35.4134  18
   1  -3  11 94.6830 118.745   6
   1   3 -11-441.091 434.441   7
   1  -3  11 72.2763 107.464  16
   1   3 -11 40.9883 66.6979  11
   1   3 -11 18.8018 28.0105   1
  -3  -1  11 23.3454 43.1486  16
  -1  -3  11 78.3630 94.2792  17
   1   3 -11 35.2972 89.7212  10
  -1  -3  11 21.8175 1.98151   5
   3  -1  11 83.6097 51.3111   6
  -3   1 -11-215.531 273.235  20
  -1   3 -11 106.816 202.500  15
   1  -3  11 43.6348 33.4924  14
   1   3 -11-312.592 472.433  15
  -3   1 -11-337.650 390.178  10
   3   1 -11-303.327 488.474  10
   3   1 -11-17.8371 89.2412  14
   1   3 -11 34.3233 42.2062  18
  -1   3 -11 83.1328 105.427  20
   3   1 -11-98.9867 214.631   9
  -1  -3  11 107.920 125.909  16
  -3  -1  11 73.6165 100.400   2
   1  -3  11 33.8949 58.9563   2
  -1  -3  11 29.0497 28.7183   8
   3   1 -11 29.3306 34.8156   1
  -3  -1  11 78.7360 88.4310  17
  -1   3 -11 17.5191 23.7147  19
   3  -1  11 93.8642 146.791   8
  -1   3 -11 155.310 148.779  10
   1  -3  11 25.5972 52.5244   8
   3  -1  11 76.0669 114.490  16
  -1   3 -11 3.22248 105.152   7
   1  -3  11 43.5832 47.4012  17
  -1  -3  11 88.6647 101.485   2
   1   3 -11 93.2929 127.866  20
  -1  -3  11-15.6933 81.8510   6
   3  -1  11-71.4476 177.431   2
   3   1 -11 46.3295 58.2054  18
  -1   3 -11-31.4627 39.4135  11
   3   1 -12-302.259 655.979  10
   3   1 -12 132.753 149.359   1
  -1   3 -12 184.113 152.606  20
  -1   3 -12 94.6157 166.378  15
  -1   3 -12 148.411 83.9366  11
   3   1 -12 39.5973 10.9312  11
  -1   3 -12 177.977 76.1980  19
  -3  -1  12 297.728 195.631   2
  -3   1 -12-420.729 527.376  10
   1  -3  12 173.591 113.385   6
  -1   3 -12 360.773 215.919   9
  -1  -3  12 49.4137 97.1050   6
  -1  -3  12 142.530 152.490  16
   1   3 -12 146.453 93.4266  18
   3   1 -12 46.8094 34.1252  18
   3  -1  12 201.274 194.253   6
  -1  -3  12 177.987 100.949  17
  -1  -3  12 163.101 59.1253   8
   1   3 -12 111.906 118.460  10
   3  -1  12 29.0024 175.489   2
  -1   3 -12 153.023 78.1572  18
   3  -1  12 131.014 141.404   8
  -1  -3  12 174.851 142.061   2
   1   3 -12 464.622 259.885   9
   1   3 -12 193.914 121.365  11
   1  -3  12 86.3918 148.479  16
   1   3 -12 172.994 96.4149   1
  -1   3 -12 191.795 157.790  10
  -1  -3  12 124.385 65.2692   5
   1  -3  12 260.522 138.683  17
   3  -1  12 258.901 192.221  16
   1  -3  12 217.115 99.0140   8
  -1   3 -12 10.0104 148.296   7
   1   3 -12 79.2460 113.375  20
   1  -3  12 204.543 121.369   2
  -3  -1  12 214.414 144.963  17
  -3  -1  12 116.042 116.987  16
   1   3 -13-55.8621 109.990  10
  -1   3 -13 27.1338 53.9266  19
   1   3 -13 14.9526 10.6532  18
   1  -3  13-166.484 141.164   6
   1   3 -13-43.6494 38.4063   9
   3  -1  13-259.506 243.977   2
  -1  -3  13 67.6167 193.804  16
  -1  -3  13 51.3645 138.219   2
  -3  -1  13 78.7387 142.252   2
   1  -3  13-27.4629 3.59726   2
  -1   3 -13-187.189 126.598   9
   3  -1  13-106.758 180.709   8
  -1  -3  13 12.4513 51.5137   5
   3   1 -13 29.1598 128.582   1
  -3  -1  13-86.3698 79.4856  16
  -1  -3  13 502.960 592.614   6
  -1  -3  13 19.6346 63.1441  17
   1   3 -13-2.31312 26.9683  11
  -1   3 -13-62.1596 72.3166  18
   1  -3  13 85.5949 47.9819   8
   3   1 -13-26.5957 77.6086  11
   1   3 -13-10.2386 109.140  20
  -1   3 -13-79.8083 107.522  10
  -3  -1  13 11.2382 51.1544  17
  -1   3 -13-69.2169 10.3749  20
   3  -1  13-5.81799 260.092  16
   1   3 -13-8.51966 24.8536   1
   1  -3  13 99.4350 70.1839  17
  -1  -3  13 214.859 100.905   8
   3  -1  13 27.7392 221.675   6
  -1   3 -13-16.7183 31.7633   1
   1  -3  13-102.024 111.262  16
  -1   3 -13-83.4942 67.7477  11
  -1   3 -14 213.329 170.882   9
  -1  -3  14 335.612 223.282   2
  -1   3 -14 120.963 95.1121  19
  -1   3 -14 153.474 199.144  20
   1  -3  14 334.667 147.169   8
  -1  -3  14 225.369 138.912  17
  -1   3 -14 99.2793 53.8813   1
   1   3 -14 230.878 134.774  11
  -1   3 -14 84.2089 90.0798  18
  -1   3 -14 141.319 182.541  10
   1  -3  14 192.389 94.0235  16
   1   3 -14 80.6142 91.2449  20
   1  -3  14 357.803 176.058  17
   3   1 -14-3.32293 68.5707   1
  -3  -1  14 402.181 334.763  16
   1   3 -14 99.7110 103.073  18
   3  -1  14 248.614 165.373  16
   3   1 -14-82.2514 183.850  11
   1   3 -14 196.471 172.208   9
  -1  -3  14 132.758 149.269  16
   1   3 -14 153.342 89.5294  10
  -1   3 -14 120.787 67.6595  11
   1  -3  14 261.503 164.333   2
  -1  -3  14 209.698 71.5290   5
   3  -1  14 54.0073 142.752   6
  -1  -3  14 84.2384 99.3938   6
   3  -1  14-113.360 201.431   8
   1  -3  14 186.130 208.465   6
  -1  -3  14 333.049 111.172   8
  -3  -1  14 246.060 231.742   2
  -3  -1  14 221.343 158.856  17
   3  -1  14 88.9287 156.314   2
   1   3 -14 177.544 105.729   1
   3  -1  15 353.360 276.790  16
  -1  -3  15 370.070 214.500  17
   1   3 -15 9.54606 68.7485  20
  -1   3 -15 98.1857 85.0891   9
  -1  -3  15 298.864 120.483   8
   1  -3  15 481.313 225.625   2
   1   3 -15 94.3775 59.8771  11
  -1  -3  15 0.70801 51.3413   6
   1   3 -15 33.6254 33.8152   1
  -1  -3  15 318.180 239.593  16
   1  -3  15 423.127 283.989  16
  -1   3 -15 120.031 180.870  10
   1  -3  15 263.325 114.800   8
   1   3 -15 112.707 182.825  10
   3  -1  15 118.757 104.309   6
   1  -3  15 36.6619 101.589   6
   1   3 -15 151.547 146.559   9
  -3  -1  15 544.005 482.474  16
  -1   3 -15 57.9792 76.4644  19
  -1   3 -15 84.1785 44.3555   1
   3  -1  15 346.938 105.975   2
  -3  -1  15 409.287 277.044   2
  -1   3 -15 112.941 100.031  11
  -1  -3  15 358.121 113.567   5
  -1   3 -15 97.0628 144.702  20
  -3  -1  15 110.872 140.870  17
  -1  -3  15 361.192 237.484   2
   1   3 -15 175.127 155.928  18
   1  -3  15 351.935 204.141  17
  -1  -3  16-29.8944 62.5105  16
   1  -3  16 4.53803 88.6463  16
  -1   3 -16-3.76988 106.546   9
   1  -3  16 51.1051 96.9221   6
  -1  -3  16-74.6579 198.600   6
   1   3 -16 17.9249 57.0647   1
   1  -3  16 114.219 144.484   2
   3  -1  16-41.0207 77.5465   6
   1  -3  16 67.7590 129.592   8
  -3  -1  16 70.2938 299.294  16
   3  -1  16 190.787 258.989  16
   1  -3  16 30.9493 138.100  17
  -1   3 -16 51.7673 59.2439   1
   1   3 -16 9.49167 5.13995  18
   1   3 -16 216.120 205.166   9
  -1   3 -16-6.74468 14.7510  20
  -1  -3  16-1.45321 14.9362   8
  -1   3 -16-32.6516 43.7558  11
  -1  -3  16 49.6153 117.615  17
  -1  -3  16 148.908 163.096   2
   1   3 -16 98.1705 163.403  10
  -3  -1  16-63.1978 90.3775   2
   1   3 -16-20.6165 24.5611  11
   3  -1  16 96.6375 116.907   2
  -1  -3  16 61.8185 50.4977   5
  -1   3 -16-85.8333 92.9858  10
  -1   3 -16 31.6703 76.6598  19
   1   3 -16 8.43057 74.6561  20
   1   3 -17 69.4578 81.7365   1
   1  -3  17 280.257 198.241   8
  -1   3 -17 99.8005 68.5154  20
   1   3 -17-308.486 312.970  20
   1   3 -17-26.7282 122.024  10
   1   3 -17 101.181 99.2582  11
   1  -3  17-141.740 265.425  17
  -3  -1  17 743.733 779.712  16
   3  -1  17 271.226 223.059   2
  -1   3 -17 38.6045 80.0724   9
   3  -1  17 454.181 421.131  16
  -1   3 -17-113.557 67.6285  19
  -1  -3  17 8.24763 79.8587  16
  -1  -3  17 150.278 176.709   2
   1  -3  17 222.909 188.227   2
  -1   3 -17 65.3104 127.801  10
   3  -1  17-190.861 348.550   6
   1   3 -17-74.8940 139.619   9
   1  -3  17 112.885 190.482   6
   1  -3  17 181.744 232.463  16
  -1  -3  17 187.199 89.1811   5
  -1  -3  17 239.527 150.759   8
  -1   3 -17 25.8171 42.5982  11
  -1   3 -17 67.2006 82.8530   1
  -3  -1  17 145.316 187.085   2
  -1  -3  17 221.612 179.294  17
   1   3 -17 84.4493 93.6577  18
  -1  -3  17-36.6063 90.8726   6
  -1   3 -18 105.246 125.358  19
   1   3 -18-6.44991 152.540  10
  -3  -1  18 1550.96 950.698  16
  -1   3 -18 191.340 124.640  11
   1   3 -18 11.4096 109.090  11
   1  -3  18 1032.56 506.201  16
  -1  -3  18 754.481 243.269   8
   3  -1  18-68.3000 406.182   6
  -1   3 -18-89.5355 189.637  20
  -1  -3  18-357.100 434.438   6
   1   3 -18-69.1526 122.533   9
   1  -3  18 295.129 168.317   6
  -1  -3  18 1037.83 515.530  16
   1   3 -18 175.131 113.281   1
  -1   3 -18-28.0474 198.509   9
   3  -1  18 1306.48 508.544   2
  -1  -3  18 1021.43 393.461   2
  -1   3 -18 61.8752 114.211  10
  -3  -1  18 1354.37 519.658   2
   1  -3  18 1063.28 361.378   2
   3  -1  18 1170.48 606.856  16
  -1  -3  18 879.163 188.200   5
   1  -3  18 867.284 293.163   8
  -1  -3  18 1156.33 403.896  17
   3  -1  19 47.3911 192.983  16
   1  -3  19 112.880 180.670   8
  -1   3 -19 29.0447 146.650  10
  -1   3 -19 39.7070 48.3585   9
  -1  -3  19 243.400 47.7398   2
   1   3 -19 106.713 135.310   1
  -1  -3  19 197.492 31.5734  16
  -1  -3  19 103.421 93.2366   8
   1   3 -19 268.229 221.542  11
   1  -3  19 304.501 287.816   2
  -1   3 -19-429.496 417.964  20
   1  -3  19 368.156 390.527  16
   1   3 -19-510.266 530.751  20
  -1  -3  19-82.9265 256.167  17
   1   3 -19-173.939 363.873  10
   1   3 -19-121.757 268.975   9
   1  -3  19-33.7282 108.896   6
   1  -3  20 786.191 290.790   8
  -1  -3  20 893.904 372.150   2
   1  -3  20 26.3831 58.9351   6
   3  -1  20 1580.81 785.455  16
  -1  -3  20 815.245 490.620  16
   1   3 -20-74.6810 256.546   9
  -1  -3  20 500.064 143.429  17
   1   3 -20-300.905 539.532  10
   1  -3  20 1080.35 434.520   2
  -1   3 -20-389.979 485.364  10
   1  -3  20 447.588 308.418  16
   1   3 -20 83.6691 103.092  11
  -3   2   0 8.92290 43.1649  19
   3   2   0-0.77488 46.3167   1
   3  -2   0-30.7836 92.5691  14
   3  -2   1 53.4154 51.9274   8
   3  -2   1 16.7367 68.0380   6
  -3   2  -1 84.9898 67.3690  19
   3  -2   1 79.6325 63.8136  14
   3   2  -1-14.3425 59.6167   1
  -3   2  -1 28.7031 33.0464  12
  -3  -2   2 387.453 176.739   2
  -3   2  -2 678.915 159.745  12
  -3   2  -2 687.029 212.959   3
   3   2  -2 918.607 253.038  13
  -3  -2   2 370.390 206.948  17
  -3   2  -2 695.240 156.542  19
   3  -2   2 647.448 171.183   6
   3  -2   2 578.664 145.285   8
   3   2  -2 579.928 241.026   1
   3   2  -2 711.356 236.357  18
   3   2  -2-27.2341 93.4816  14
   3  -2   2 728.202 171.044  14
   3  -2   2 545.773 149.150   1
   2   3  -3 316.773 185.670  13
  -3  -2   3 194.542 133.062  17
  -3  -2   3 217.037 106.946   2
   3   2  -3 260.900 99.0473  13
   3   2  -3 261.000 128.588  18
   3   2  -3 221.493 99.3502   8
   3   2  -3 132.069 60.4955   3
   2  -3   3 107.177 64.0670   6
   3  -2   3 127.526 6.73898  16
  -2   3  -3 244.772 132.061   3
  -3   2  -3 218.493 76.8838   5
   3  -2   3 229.959 87.4203   8
   3  -2   3 222.690 77.8887   1
  -3   2  -3 205.078 80.7172   4
   3   2  -3-12.6304 78.4953  14
  -2   3  -3 289.622 114.484  12
  -3   2  -3 222.236 91.6607  12
  -3   2  -3 287.104 124.310   3
  -3  -2   3 174.962 111.567   5
   3   2  -3 245.515 141.219   1
   2  -3   3 69.2747 153.112   8
   3  -2   3 294.611 107.453   6
  -3   2  -3 245.367 88.5448  19
   3  -2   3 244.004 90.4934  14
   3   2  -4 109.072 42.0115   8
   3   2  -4 149.094 56.1865   3
  -3   2  -4 107.795 55.6582   4
   3  -2   4 120.817 97.8084  16
  -2  -3   4 63.3141 48.3745   2
   3   2  -4 145.022 98.9327  18
   2   3  -4 186.005 113.660  13
  -3   2  -4 123.523 59.1255  19
   3  -2   4 131.139 75.8505   6
  -3  -2   4 131.809 80.2470  17
  -3  -2   4 92.3582 45.5250  19
  -3  -2   4 22.3171 26.4448   4
   3   2  -4 5.39546 57.4821  14
  -2   3  -4 142.516 80.2766  12
  -2   3  -4 186.450 114.058   3
  -3   2  -4 124.338 54.9093   5
   3  -2   4 123.063 47.6169   1
  -2   3  -4 99.7293 173.325  13
  -2  -3   4 93.9338 63.6385  17
  -2   3  -4 111.693 72.1847  19
   3   2  -4 111.219 78.2669   1
   2   3  -4 20.8744 31.0924   1
   3  -2   4 137.105 67.1179  14
  -3   2  -4 115.422 66.7332  12
   2   3  -4 66.3239 46.7182  18
  -3   2  -4 63.6471 91.9577  13
   3  -2   4 113.300 62.5784   8
  -3   2  -4 129.100 72.0734   3
   2   3  -4 121.453 81.7938   3
  -3  -2   4 89.0525 53.5940  16
   2  -3   4 111.611 75.5183   8
  -3  -2   4 77.7220 52.7081   2
  -3  -2   4 128.687 104.781   5
   2  -3   4 111.793 78.2451   6
   3   2  -4 123.490 71.7638  13
   2  -3   5 960.965 219.961   6
  -3   2  -5 886.897 181.626   4
   2  -3   5 954.352 200.889  14
   2   3  -5 1151.68 220.424   3
   3  -2   5 897.130 126.382   1
  -3  -2   5 822.787 228.096  17
  -3   2  -5 807.041 191.834   3
  -3   2  -5 893.650 156.883   5
  -3  -2   5 818.598 216.593   5
  -2   3  -5 871.040 181.864  12
  -2   3  -5 1120.81 224.106  19
   3  -2   5 1045.01 245.110  16
   3   2  -5 793.286 206.405   1
   3   2  -5 895.567 197.817  18
   2   3  -5 1132.75 248.352  12
  -2  -3   5 713.976 237.687   2
   3   2  -5 156.728 93.9663  14
  -2   3  -5 1000.44 336.998  13
  -3  -2   5 814.992 188.584   4
  -3  -2   5 839.469 177.612  16
  -2  -3   5 749.888 143.789   6
   2   3  -5 332.355 159.008   1
   2  -3   5 854.251 268.999  16
   2   3  -5 1069.12 281.546  18
   3   2  -5 928.453 146.501   3
  -3   2  -5 799.270 188.971  13
  -2   3  -5 1022.81 233.620   3
   2   3  -5 890.918 227.533  13
  -3  -2   5 741.591 188.278   2
  -2  -3   5 698.664 272.833  17
   2  -3   5 798.998 174.438   8
   3  -2   5 1106.99 220.757   6
   3  -2   5 850.688 163.049  14
  -2  -3   5 646.228 203.230  16
   3  -2   5 864.945 175.658   8
  -3  -2   5 827.454 136.098  19
  -3   2  -5 899.588 180.977  19
  -3   2  -5 823.527 193.171  12
  -2   3  -6 253.951 91.3805  18
  -3   2  -6 288.648 116.840   5
   2   3  -6 274.850 99.5574   3
  -3  -2   6 197.767 104.387   2
  -3  -2   6 273.299 114.359   5
   2   3  -6 254.394 119.149  13
   3  -2   6 311.317 121.571   6
  -3  -2   6 2.35162 30.6155   6
  -2  -3   6 225.203 88.9724   6
  -2   3  -6 211.753 51.4261   5
  -3  -2   6 254.630 127.826  17
   3   2  -6 300.390 127.440  11
  -3   2  -6 212.809 94.5143  19
   3   2  -6 239.407 121.545   1
  -3  -2   6 268.823 86.4348   4
   2  -3   6 259.515 95.2584   8
   3   2  -6 267.395 113.542  18
   3   2  -6 106.586 94.5272  14
  -2   3  -6 243.539 97.8713  12
   3  -2   6 284.996 102.738   1
  -3  -2   6 227.613 66.5114  19
  -2   3  -6 298.244 100.923  19
  -3   2  -6 276.083 115.849   4
   3  -2   6 286.532 132.441  16
   3  -2   6 274.367 97.8211  14
  -2  -3   6 220.381 110.355  16
  -2  -3   6 236.813 130.137   2
   2  -3   6 294.384 89.0657  14
   2  -3   6 303.270 126.796   6
  -2   3  -6 283.745 125.144   3
   2  -3   6 293.401 146.388  17
  -3   2  -6 260.489 68.5263  11
   3   2  -6 224.109 123.060  20
  -2   3  -6 315.194 157.346  13
   2   3  -6 293.610 83.0272  12
  -2   3  -6 262.201 83.0218   4
   3  -2   6 278.928 110.151   8
   2  -3   6 309.074 160.525  16
   2   3  -6 194.931 139.981   1
  -2  -3   6 181.269 96.9824  17
   3  -2   6 344.638 129.061   2
  -3  -2   6 281.134 116.338  16
   2   3  -6 313.894 131.106  18
  -3  -2   7 2854.49 388.823   2
   2   3  -7 2639.36 467.487   1
  -2  -3   7 2827.12 350.178   6
  -2   3  -7 2392.73 232.312  18
   2   3  -7 3022.78 391.414  18
   3   2  -7 2940.98 395.288  11
  -2   3  -7 2754.06 352.040  12
  -3  -2   7 3065.99 375.027   5
   2  -3   7 2823.43 520.021   2
   2  -3   7 3071.02 313.700  17
  -3   2  -7 1843.65 311.330  20
  -2  -3   7 2719.73 410.430  16
   2   3  -7 2707.33 253.272  12
   3   2  -7 3388.62 493.133  10
  -2   3  -7 3083.59 320.779   4
  -3  -2   7 3039.93 439.754  17
  -2  -3   7 2875.09 452.150  17
   3   2  -7 2130.67 385.707  20
   3   2  -7 1507.86 273.452  14
   2   3  -7 3286.50 359.637   3
   3  -2   7 3742.22 534.538  16
   2  -3   7 3300.73 422.917   6
   3  -2   7 4010.32 364.723   2
   2   3  -7 2571.95 364.022  13
  -2   3  -7 3268.83 327.256  19
   3  -2   7 3430.62 404.156   8
   3  -2   7 3489.12 388.459  14
  -3  -2   7 3234.83 269.107   4
   2  -3   7 2887.20 275.569  14
  -3  -2   7 2987.54 411.121  16
   3  -2   7 3537.31 474.171   6
  -2   3  -7 2867.46 399.829   3
   2  -3   7 2634.64 301.186   8
   3   2  -7 2737.00 373.040   1
  -3   2  -7 2274.88 407.647   4
  -3  -2   7 3227.85 336.637  19
  -2   3  -7 2441.93 388.994  13
  -3   2  -7 2257.33 330.214  19
  -2  -3   7 2755.22 432.605   2
   2  -3   7 3088.95 493.473  16
   3   2  -7 2739.78 368.719  18
  -3   2  -7 2737.25 285.175  11
   2  -3   8 43.1546 64.7339   6
   3   2  -8 7.22955 32.7888  14
   3   2  -8 12.7320 98.1823  20
  -3   2  -8 215.916 211.225   7
   3  -2   8-8.74166 13.8322   8
  -3  -2   8-25.6307 26.7088  16
  -3  -2   8 21.1944 26.8941   4
  -2   3  -8 2.79308 23.3762   4
  -2   3  -8 21.3994 32.9339  18
   2   3  -8 28.1748 74.1125   3
   2   3  -8 95.1812 158.955  15
  -2  -3   8-23.4052 27.6344  16
  -3   2  -8 20.4720 121.213  15
  -2  -3   8-1.34458 32.0686  17
  -2  -3   8 0.94388 47.4991   5
   3   2  -8-10.8174 37.5741  18
   2  -3   8 25.1870 32.5051  14
   3  -2   8 27.1568 38.3417   2
  -2  -3   8 54.2734 70.3379   2
  -3  -2   8 13.8198 62.3361   2
   2  -3   8 17.0931 25.4989  17
   2  -3   8 5.89525 34.0925   8
  -2   3  -8 56.3881 102.290  13
  -3   2  -8 2.77995 15.4662  20
  -3   2  -8 169.584 144.921   9
  -3  -2   8 20.3973 37.7869   5
  -2   3  -8 36.7798 77.3811   3
  -3  -2   8-10.3319 58.2013  17
   2   3  -8 3.96204 37.0190  12
   2  -3   8 26.0177 93.9624  16
  -3   2  -8-8.78183 63.0842  11
   3  -2   8 23.7253 64.4115  16
   2   3  -8 34.6365 64.8858   1
   2  -3   8 44.3950 80.2123   2
   3   2  -8-17.5192 16.8347   1
  -3   2  -8-3.30725 95.0834   4
  -3   2  -8 23.3327 52.2909  19
  -2  -3   8 2.01080 47.2384   6
  -3   2  -8 14.5669 37.1152  10
   2   3  -8 154.367 160.501   7
   3   2  -8 163.854 200.351   9
   3  -2   8-26.2762 44.5107  14
   2   3  -8 16.7324 27.9240  18
  -2   3  -8 34.5371 82.9148  12
  -2   3  -8-11.4030 20.9932  19
   3   2  -8-6.14649 58.0112  11
   3  -2   8 3.10661 29.6236   6
   3   2  -8 34.4537 73.7049  10
  -2   3  -9 599.967 145.114  19
   3   2  -9 559.471 195.241  11
   2  -3   9 638.710 243.624  16
   3   2  -9 639.527 271.679   9
   2   3  -9 751.860 315.730  15
   2  -3   9 644.724 154.221  14
  -3   2  -9 519.010 271.588   7
  -2  -3   9 414.485 160.773   6
   3   2  -9 552.394 264.485  10
  -3   2  -9 364.020 161.668  20
   3  -2   9 701.032 233.713  14
  -3   2  -9 370.794 144.145  19
  -3   2  -9 495.479 164.196   9
   2  -3   9 563.023 152.418   8
   2   3  -9 499.381 187.675   1
  -3  -2   9 632.011 226.095  17
   3   2  -9 421.830 206.198  20
  -2  -3   9 647.380 207.586   5
  -3  -2   9 638.739 218.667   2
  -3   2  -9 307.419 145.279  11
  -2  -3   9 623.502 204.423  17
  -2  -3   9 663.060 224.140   2
   2  -3   9 722.101 234.824   6
  -3   2  -9 615.124 325.154  15
  -2   3  -9 506.643 120.878  18
   3   2  -9 475.470 164.456   1
  -2   3  -9 363.294 162.090   4
  -3  -2   9 594.431 108.607   4
   2   3  -9 606.398 198.109  11
   3  -2   9 739.393 174.281   2
   3   2  -9 539.950 179.765  18
   3   2  -9 345.259 111.719  14
  -2   3  -9 699.113 152.366  11
   3  -2   9 820.355 283.435   6
   2  -3   9 657.965 147.153  17
  -3  -2   9 676.745 174.531   5
  -3   2  -9 505.030 193.197  10
   2  -3   9 828.338 230.526   2
   2   3  -9 507.822 168.992  18
   2   3  -9 412.493 195.316  20
   2   3  -9 742.531 305.059   7
  -2  -3   9 620.755 221.859  16
   3  -2   9 801.970 294.540  16
  -3  -2   9 641.456 239.072  16
   3  -2   9 739.629 223.459   8
   2  -3  10 367.738 138.917  14
  -2   3 -10 706.194 331.302   7
   3   2 -10 93.1654 32.1432  20
  -2  -3  10 339.542 181.104  16
   2  -3  10 479.927 171.749   2
  -2  -3  10 364.449 142.556   5
  -2   3 -10 182.648 119.057  20
  -2   3 -10 398.253 110.562  19
  -3  -2  10 417.192 143.919   5
  -2   3 -10 401.508 203.006  10
   3  -2  10 490.455 243.717   6
  -2  -3  10 419.264 181.192   2
  -3   2 -10 138.606 100.575  11
   3  -2  10 450.388 144.703   2
  -3  -2  10 357.502 209.149  16
   2   3 -10 398.092 175.240  11
   3   2 -10 243.331 163.793   9
   2   3 -10 278.924 120.818  18
  -3   2 -10 244.194 137.203  10
  -2   3 -10 356.651 112.053  11
   2   3 -10 266.829 132.725   1
   2   3 -10 165.498 144.187  20
   3   2 -10 229.744 130.998   1
  -3   2 -10 153.996 107.654  19
   2  -3  10 453.007 134.242  17
   3  -2  10 394.857 184.420   8
   2  -3  10 374.438 188.531   6
   3  -2  10 313.133 179.324  14
   3   2 -10 358.722 176.284  11
   2  -3  10 379.902 128.012   8
   3   2 -10 320.825 185.411  10
  -3   2 -10 97.4087 96.3679  15
  -2   3 -10 330.383 110.295  18
  -3   2 -10 216.847 127.965  20
  -2  -3  10 232.788 195.437   6
  -2  -3  10 333.502 158.390  17
  -2   3 -10 553.319 318.789  15
  -3   2 -10 206.629 132.639   9
   3  -2  10 508.413 225.224  16
   2  -3  10 393.259 206.818  16
  -3  -2  10 432.787 186.688   2
  -3   2 -10 145.113 105.092   7
   3   2 -10 174.310 73.9480  14
  -3  -2  10 403.654 187.197  17
   2   3 -10 480.843 255.105  10
   3   2 -10 326.125 153.437  18
  -2   3 -11-14.9802 56.7635  15
   3  -2  11 10.2513 108.322  14
   2   3 -11 135.063 180.295  10
  -3  -2  11 93.5792 121.471  17
  -2   3 -11 39.9173 41.5044  10
   3  -2  11 127.492 138.155  16
  -2  -3  11 138.291 93.2397   5
  -3   2 -11 36.2489 62.9761  19
   3   2 -11 48.4278 83.5508  18
   3   2 -11 133.358 156.661   9
   3   2 -11 58.2071 34.1182  11
  -2   3 -11-4.01577 69.3084  11
  -2   3 -11 27.3750 85.4465  20
  -2  -3  11 66.5116 67.3658   2
   3  -2  11 151.766 129.772   8
   2   3 -11 64.2681 83.0714   1
  -3   2 -11-5.71597 41.9567   9
  -2  -3  11 17.8252 95.6227   6
   2  -3  11 41.2688 34.7096   2
   3   2 -11 14.2383 51.1730   1
  -3  -2  11 83.2331 88.8083   2
   2  -3  11 40.6504 48.6871  17
   2   3 -11 28.8816 21.1667  18
  -2   3 -11 20.3042 32.1936  19
  -2   3 -11 26.6650 28.1775  18
  -3  -2  11 59.2860 132.685  16
  -3   2 -11 102.725 126.457  10
   2  -3  11 154.095 184.959  16
  -3   2 -11-316.253 394.462   7
  -2  -3  11 177.148 175.255  16
  -3   2 -11-156.454 335.958  15
  -3   2 -11 28.0259 66.2065  20
   3   2 -11 9.27391 80.3648  10
   2  -3  11 43.3391 73.1706  14
  -3  -2  11 58.7057 69.4912   5
  -2  -3  11 47.0241 72.3597  17
   2  -3  11 113.073 134.109   6
   3   2 -11-26.2885 127.447  20
   2   3 -11 89.0453 92.6381  11
   3   2 -11 22.7321 32.5146  14
   2  -3  11 7.57530 10.8307   8
   3  -2  11 29.1497 52.9968   6
   2   3 -11 22.8899 89.9699  20
   3  -2  11 74.0892 70.4455   2
  -2   3 -11-45.9386 124.516   7
   2   3 -12-5.78304 78.1389  20
  -2   3 -12 80.3488 97.0340  10
  -2   3 -12-43.5811 217.820  15
  -2   3 -12 73.2270 38.3172  19
   2   3 -12 107.815 174.602   9
  -2   3 -12 280.129 200.271   9
   2   3 -12 48.8000 48.6742   1
  -3  -2  12 11.3243 17.5549   5
  -3   2 -12-49.5610 151.223  10
  -3   2 -12-133.521 138.098  20
  -3  -2  12 101.569 88.6073   2
   3  -2  12 113.177 152.519  16
   3   2 -12 28.3016 30.6555  14
   3  -2  12-59.4065 116.055  14
   3   2 -12-45.8229 186.310  20
   2  -3  12 97.7484 93.2874   2
  -2  -3  12 63.5602 77.9166  17
   2  -3  12 57.0472 37.8458   8
   3   2 -12 51.1247 74.5171   1
   3   2 -12-12.1549 93.5351  10
  -3   2 -12 61.5180 63.6823   9
  -2   3 -12 5.21202 55.4930  11
   2  -3  12 25.1457 73.6926   6
  -3   2 -12-92.7247 111.788  19
  -2   3 -12 70.9419 83.3055   7
  -2  -3  12 87.5295 124.323  16
  -2  -3  12 88.5705 125.684   6
  -2   3 -12 58.1060 75.1202  18
   2   3 -12 110.346 111.981  11
   3  -2  12 42.4025 63.8039   8
   2   3 -12 6.00072 25.0484  18
  -2  -3  12 26.5019 51.9286   2
  -3  -2  12 25.6018 142.855  16
   2  -3  12 139.333 96.7402  17
   3   2 -12 96.1021 56.7015  11
  -2   3 -12 20.4661 69.6842  20
   2  -3  12 52.4065 53.0755  16
   3   2 -12 47.3386 86.9962   9
   2  -3  12-91.0784 136.742  14
  -2  -3  12 40.7835 69.2215   5
  -3  -2  12 108.535 74.5917  17
   2   3 -12 4.94833 46.2487  10
   3  -2  12 74.9031 47.3806   6
   3   2 -12 30.2349 33.9275  18
   3  -2  12 62.7976 51.2999   2
   3   2 -13 392.283 312.174  10
  -2  -3  13 490.749 387.409   6
  -3   2 -13 32.8283 64.0495  20
   3   2 -13 161.947 125.227   9
  -3   2 -13-60.5705 179.272   9
   2  -3  13 509.729 176.623  14
  -2  -3  13 253.010 128.810   5
  -2   3 -13 899.867 321.562  11
  -3  -2  13 249.336 184.864   2
  -3  -2  13 184.743 137.197  16
   3  -2  13 229.388 201.930   8
   3   2 -13 67.8955 48.1175  14
   3  -2  13 704.929 353.155   6
   3   2 -13-111.863 391.730  20
   3   2 -13 167.896 133.048   1
  -2  -3  13 118.634 64.9357   8
  -2  -3  13 460.571 276.741  16
   3  -2  13 661.271 461.101  16
  -2  -3  13 206.310 217.217   2
   2  -3  13 1493.91 609.545   6
   2  -3  13 661.892 304.574   2
  -2   3 -13 698.933 338.276  20
   3   2 -13 43.5433 36.5522  18
   2   3 -13 95.5215 85.8491  10
   2   3 -13 243.903 181.606  11
   3  -2  13 272.770 174.840   2
  -2   3 -13 278.589 165.311  18
   2   3 -13 113.517 102.803   1
  -2  -3  13 269.918 180.166  17
   2  -3  13 1251.91 519.718  16
   2   3 -13 141.581 54.4159   9
   2   3 -13 233.059 271.397  20
   2   3 -13 234.629 159.769  18
  -3  -2  13 92.6192 64.9018   5
  -2   3 -13 214.521 175.959  19
  -3  -2  13 118.447 126.457  17
  -3   2 -13-138.161 183.032  19
   3   2 -13 114.371 80.0247  11
  -3   2 -13 46.9161 115.563  10
  -2  -3  14-27.1054 46.5070   5
   2   3 -14-37.4816 87.3116  11
  -2  -3  14-88.8810 145.675  16
  -2   3 -14 238.997 153.594   9
  -2  -3  14 71.3291 41.5779   8
   3   2 -14 37.3493 34.3133  14
   3  -2  14 142.490 234.019  16
   3   2 -14-466.888 546.609  20
   2   3 -14 59.0097 165.189  20
   3   2 -14-49.9861 78.6360   9
   3   2 -14 8.80229 65.6320  18
  -3   2 -14 35.4839 107.765  10
  -3  -2  14 140.748 208.988  16
  -2   3 -14 91.6515 80.9769  19
   2  -3  14 34.8463 77.7150   6
  -2   3 -14 35.1915 78.9181  11
  -2  -3  14 9.44870 63.2955   2
   3  -2  14 39.3335 100.363   8
   3   2 -14 109.879 12.8400  10
  -3  -2  14 28.3260 68.9610  17
   2   3 -14 46.9294 85.7417  18
   2  -3  14 112.636 79.9989   2
   3  -2  14 92.8666 117.568   6
   2  -3  14-30.4466 126.282  17
   2   3 -14 14.2419 16.9646   1
   2  -3  14 142.516 166.959  16
  -3   2 -14-14.7736 69.2249  20
  -2   3 -14 155.031 157.529  20
   2  -3  14-83.6724 109.857   8
   3  -2  14 36.7484 17.2828   2
  -2  -3  14-76.4404 130.324   6
  -3  -2  14 19.0204 52.8688   5
  -2   3 -14 221.031 225.505  10
   3   2 -14 64.1512 73.0561   1
   2   3 -14 73.2049 87.9846   9
   2   3 -14-23.1167 27.5695  10
  -2  -3  14 91.6586 101.533  17
   3   2 -14-21.1552 104.141  11
  -3  -2  14 58.3255 84.5783   2
  -3   2 -14 10.3141 49.5179   9
   3  -2  15-9.55080 64.8382   2
   3  -2  15 202.833 107.629  16
   2  -3  15 46.9354 35.3285   2
   3   2 -15-8.91411 73.7280  18
  -3  -2  15-3.05181 124.057  17
  -2   3 -15 12.4510 60.1314  10
  -2   3 -15-14.9134 69.0085  20
  -2  -3  15-7.52006 27.8407   8
   3   2 -15-279.125 336.339  10
  -2  -3  15-34.3271 27.3819   2
  -2  -3  15 38.3939 55.3103   5
  -3   2 -15-181.781 274.964  20
  -3   2 -15-192.143 267.759  10
  -3  -2  15-80.4734 125.163   5
  -3  -2  15-47.6873 32.5226   2
   2   3 -15 29.2269 35.6041   1
  -2  -3  15-22.3153 84.0672  17
  -2  -3  15-45.3885 106.567   6
  -2   3 -15 130.164 113.194  19
   2  -3  15 30.2428 66.2086   8
  -2   3 -15 66.9629 98.1525   9
  -2  -3  15-19.5422 65.0945  16
   2   3 -15-71.5556 161.017  10
   2   3 -15 83.0162 32.0150   9
   3  -2  15 57.0703 29.0331   6
   3   2 -15 3.47948 35.1868   1
   2   3 -15 34.3094 100.179  11
  -3  -2  15-18.0486 95.9132  16
   2  -3  15-396.933 366.552  17
   2  -3  15 24.8330 85.3500   6
   2   3 -15-5.66508 116.550  20
   3   2 -15 33.2003 35.6938  14
   2   3 -15-2.70311 41.3410  18
   3  -2  15 6.43158 72.6787   8
   3   2 -15-113.259 175.079   9
  -2   3 -15 25.6880 14.7029  11
   3   2 -15-40.5086 132.256  11
   2  -3  15 36.4973 155.336  16
  -2   3 -16 150.340 124.951  19
   2   3 -16 53.3715 116.661  10
   3   2 -16-476.155 564.904  10
  -2  -3  16 539.528 266.802  17
  -3  -2  16 384.177 77.5521   5
   2  -3  16 541.025 231.884   8
  -2   3 -16 92.6388 126.741  11
   3   2 -16-113.010 275.520   9
   2  -3  16 517.271 242.081   2
   3  -2  16 806.171 427.486  16
  -2  -3  16 257.391 214.259  16
   3   2 -16 74.0500 62.4690  11
   2   3 -16 118.516 135.584  18
  -2  -3  16 386.067 151.199   8
   2   3 -16 100.356 114.707   9
   3   2 -16 16.2568 35.0495   1
  -2  -3  16 468.547 224.256   2
  -2  -3  16-217.743 285.150   6
   3  -2  16 306.820 210.198   8
   2  -3  16 381.649 258.496   6
  -3   2 -16-193.842 344.327  10
   3  -2  16 489.567 328.646   6
  -3  -2  16 558.589 277.536   2
   2  -3  16 748.685 375.253  16
   3   2 -16 78.2379 48.0518  14
   2   3 -16 150.033 116.882   1
   3  -2  16 696.511 241.514   2
  -3  -2  16 502.898 361.186  16
   2   3 -16 229.051 151.649  11
   2   3 -16 75.8782 102.213  20
  -2   3 -16 85.3556 152.517  10
  -2  -3  16 559.198 164.845   5
  -3  -2  16 573.281 294.425  17
  -2   3 -16 60.4172 86.1845  20
  -2   3 -16 129.318 127.136   9
   2   3 -17 314.176 177.148  11
   2  -3  17 1344.49 366.300   2
   2   3 -17 230.729 194.861  18
  -2  -3  17 1112.06 388.965  17
   2   3 -17 300.048 153.375   9
   3  -2  17 631.680 345.601   6
   2   3 -17 286.065 157.251   1
  -2   3 -17 58.9167 120.225  11
  -2   3 -17 82.2031 93.1083   9
   2  -3  17 987.272 464.600  16
  -3  -2  17 1162.36 422.443   2
   3  -2  17 880.201 337.270   8
   2   3 -17 145.432 154.990  10
  -2   3 -17 130.522 196.148  10
   3   2 -17 171.645 141.212  11
   3  -2  17 1294.22 378.593   2
  -2  -3  17 782.343 230.735   8
  -2  -3  17 1106.60 477.432  16
  -2  -3  17 1131.03 243.541   5
   2  -3  17 1107.50 352.099   8
   3   2 -17-1029.48 888.117  10
  -3  -2  17 1148.11 445.953  17
   2  -3  17 704.391 398.283   6
   3   2 -17 81.6274 98.8574   1
  -3   2 -17-608.739 611.738  10
  -3  -2  17 966.506 236.179   5
  -2  -3  17 1116.58 395.697   2
   2   3 -17-83.8632 250.906  20
  -3  -2  17 1368.26 614.092  16
  -2   3 -17 102.220 88.0960  20
   3  -2  17 1160.04 524.202  16
  -2  -3  18-3.55516 153.411  16
   2   3 -18 1.79804 52.2359   1
   3  -2  18 25.2295 118.184  16
   2  -3  18 265.291 351.942  16
  -2  -3  18 31.3263 19.6315  17
   2  -3  18 92.2161 206.593   2
   3  -2  18 26.2144 73.5274   8
  -3  -2  18-157.256 191.008   2
   2   3 -18 236.290 226.921   9
   2   3 -18 28.9773 201.663  10
   2   3 -18 2.21454 77.3185  18
   3  -2  18-5.11367 44.6892   6
  -2  -3  18-76.6796 62.2298   8
   2  -3  18 30.8654 88.2909   8
  -2  -3  18 91.4341 124.384   5
   2  -3  18 18.4299 120.712   6
  -2   3 -18-90.3267 166.057   9
   2   3 -18 62.5279 130.907  11
  -2   3 -18-104.988 164.857  20
   3   2 -18 36.6231 19.3795  11
   3  -2  18 78.2237 74.1107   2
  -2   3 -18 77.0199 161.106  10
   3   2 -18-24.6699 74.3610   1
  -2   3 -18 63.7503 106.555  19
  -3  -2  18 135.754 151.543  16
  -3  -2  18-121.152 293.654  17
  -2  -3  18 241.480 242.047   2
  -2  -3  19 2483.30 628.484  17
  -3  -2  19 1425.34 460.807  17
   2  -3  19 2043.00 513.857   2
   3  -2  19 1998.80 710.329  16
   2  -3  19 2005.33 720.001  16
  -2   3 -19 120.359 169.263  10
  -2  -3  19 2081.63 352.976   5
   2   3 -19 301.228 251.425  11
  -2   3 -19-57.1870 265.796   9
   2   3 -19-56.4924 228.825   9
  -2  -3  19 2229.23 602.196   2
  -3  -2  19 2090.16 631.318   2
  -2  -3  19 2017.32 709.702  16
   3  -2  19 1276.88 412.578   8
  -3  -2  19 2748.77 1000.60  16
   2  -3  19 1716.47 456.605   8
   2   3 -19-84.1828 333.941  10
   2  -3  19 771.321 408.780   6
   3   2 -19 229.078 158.853   1
   3  -2  19 1011.83 473.112   6
   3  -2  19 2584.08 593.268   2
   2   3 -19 419.239 216.893   1
  -2   3 -20-655.805 564.173  20
   3  -2  20 193.779 175.728   2
   2  -3  20 229.630 428.633  16
   3  -2  20 69.5787 187.865  16
   2   3 -20 5.32489 113.230  11
   2   3 -20-1.24400 30.3664   1
   3  -2  20-641.485 388.221   6
  -2  -3  20-167.381 280.585  17
   2  -3  20 103.384 145.365   2
  -2  -3  20 23.2462 195.439   2
  -2  -3  20-80.2450 201.842  16
   3  -2  20-33.8817 100.305   8
  -3  -2  20 189.829 306.154  16
   2  -3  20 91.2248 92.0749   6
   2  -3  20 61.6872 140.885   8
   2   3 -20-219.303 309.148   9
  -3  -2  20 276.325 288.772   2
   3   2 -20-22.7613 55.5526   1
  -3   3  -2 62.8237 47.5993  12
   3   3  -2-44.8311 109.141   1
   3  -3   2-48.7784 144.313   8
  -3   3  -3-1.18871 38.1308  19
  -3   3  -3-1.59673 38.1422   3
  -3  -3   3-28.7842 73.8254  17
   3   3  -3-53.5158 187.492  18
   3  -3   3-5.51690 22.2064   8
  -3  -3   3-72.5653 223.376   2
   3  -3   3-2.79253 83.0647  14
  -3   3  -3-8.80243 37.2575  12
   3   3  -3 23.1824 23.1339   1
   3  -3   3 5.37494 34.4933   6
   3   3  -3 16.8650 73.0326  13
   3   3  -4 2227.51 460.500  18
   3  -3   4 1818.15 314.119   6
   3   3  -4 1283.54 259.883   3
  -3   3  -4 2457.15 413.395   3
  -3  -3   4 1073.76 310.996   2
   3  -3   4 1544.79 269.741   8
   3   3  -4 2457.03 397.378  13
   3   3  -4 1386.26 380.703   1
  -3   3  -4 2376.67 338.135  19
   3  -3   4 1827.71 304.791  14
  -3  -3   4 1032.05 352.344  17
  -3   3  -4-55.6330 138.054  13
  -3   3  -4 1943.99 294.072  12
  -3   3  -5 18.8009 27.2820  13
  -3  -3   5-3.64248 17.9900   6
   3  -3   5 12.2678 36.6449   6
  -3  -3   5 4.34304 10.3910   2
   3   3  -5 4.40326 10.7923   3
  -3   3  -5-5.92334 21.5161  19
  -3   3  -5-19.3880 54.7850   5
   3  -3   5-11.4452 22.1208   8
   3  -3   5-23.4102 47.4735  14
  -3  -3   5 21.4378 71.1381  17
  -3  -3   5-28.5380 104.618  16
   3   3  -5 2.05020 25.9919  13
   3   3  -5 23.6824 99.4977   1
  -3   3  -5 0.74559 20.9902   3
   3   3  -5 29.3825 39.8366  18
   3  -3   5-56.6946 111.616  16
  -3   3  -5-20.1950 38.5967   4
  -3   3  -5-17.7173 40.7274  12
  -3  -3   6 1678.39 232.382  19
  -3   3  -6 1866.23 297.327  12
   3  -3   6 1829.25 178.999   1
   3   3  -6 2047.82 365.896  18
   3  -3   6 2317.65 341.338  17
   3   3  -6 2302.58 292.171   3
  -3  -3   6 1633.05 387.986  17
   3   3  -6 1858.78 307.086  13
  -3  -3   6 1561.77 303.638  16
   3  -3   6 2124.83 431.708  16
  -3   3  -6 2167.01 301.242  19
  -3  -3   6 1686.65 335.738   2
   3  -3   6 1941.12 264.967  14
  -3   3  -6 1995.45 339.804   3
  -3   3  -6 1877.57 413.765  13
   3  -3   6 2204.98 352.448   6
  -3   3  -6 1831.13 201.540   5
   3  -3   6 1837.62 271.791   8
  -3   3  -6 1969.41 267.159   4
   3   3  -6 2649.33 342.515  12
  -3  -3   6 1509.24 203.190   6
  -3   3  -6 1875.25 238.149  18
   3   3  -6 1876.68 419.117   1
   3   3  -7-6.26281 6.71095  12
  -3   3  -7 10.4318 45.5897   4
  -3   3  -7 2.05399 24.4274  19
  -3  -3   7 8.50859 7.98921  19
  -3  -3   7 19.0949 37.4035   6
   3  -3   7-13.8485 38.2047   8
  -3  -3   7 18.5453 36.3075   2
   3   3  -7-7.88378 28.7566   3
  -3  -3   7-8.03837 43.4995  17
  -3   3  -7-7.77241 49.3693   3
  -3   3  -7 16.1625 66.0197  13
   3  -3   7 8.70162 20.8789  17
  -3  -3   7-14.6998 73.6956   5
  -3   3  -7-1.09461 48.0943  12
   3  -3   7 5.06494 15.9731  14
   3   3  -7 42.5662 76.9810  13
  -3  -3   7-13.1467 32.6129  16
   3   3  -7 68.6162 98.7011  15
  -3   3  -7 3.41935 20.0110  18
   3  -3   7 13.9969 71.6383  16
   3  -3   7 34.1727 58.1163   6
  -3   3  -7 8.70912 34.9928   5
   3   3  -7 23.4170 34.8937  18
   3   3  -7-43.2465 85.3389   1
   3   3  -8 3969.56 506.284  11
  -3   3  -8 2879.46 224.568  18
  -3   3  -8 3234.88 435.966   4
   3   3  -8 3340.90 509.436   1
   3   3  -8 3577.76 392.528   3
  -3   3  -8 3496.04 407.607   5
  -3   3  -8 2723.13 427.535   3
   3  -3   8 3350.71 567.513   2
  -3   3  -8 2499.56 393.837  12
   3  -3   8 3939.29 508.619   6
  -3  -3   8 3189.65 451.828  16
  -3   3  -8 2372.31 400.250  13
   3  -3   8 3459.50 358.059  14
  -3  -3   8 3230.35 509.670   5
  -3  -3   8 1507.97 321.057   6
   3   3  -8 3318.71 270.957  12
  -3  -3   8 3362.56 516.265  17
  -3   3  -8 3164.72 277.519  11
   3  -3   8 3887.47 596.249  16
  -3  -3   8 3224.99 466.244   2
   3   3  -8 3548.51 573.112   7
   3  -3   8 3278.60 379.109   8
   3   3  -8 3101.42 426.201  18
   3   3  -8 3717.29 650.691  15
  -3  -3   8 2856.95 232.182  19
   3  -3   8 3414.52 273.854  17
  -3   3  -8 3430.42 376.503  19
  -3  -3   9 11.4640 51.0772   2
  -3   3  -9 7.08373 33.1432  19
   3  -3   9-46.0423 71.0970   6
  -3  -3   9-16.0430 64.4249  17
  -3   3  -9-20.1423 23.9437  11
   3  -3   9-15.0483 30.5412   2
  -3  -3   9 0.67472 82.4728   6
  -3  -3   9 13.3036 76.9541   5
   3  -3   9-12.1232 5.42161  14
  -3   3  -9-24.7521 50.3222   4
   3  -3   9 6.82305 5.89759   8
   3  -3   9-20.4030 37.1985  17
   3   3  -9 15.4163 70.7492  20
  -3  -3   9 31.6928 29.8001  16
   3  -3   9 113.673 138.160  16
   3   3  -9 13.1734 18.1176  18
   3   3  -9-11.9657 40.2725  11
   3   3  -9-34.1356 35.4097   1
  -3   3  -9-6.17049 9.41989  18
  -3  -3  10 226.184 152.558  17
  -3   3 -10 220.841 85.7020  18
  -3   3 -10 259.776 101.934  11
  -3   3 -10 166.308 111.999  20
   3  -3  10 322.535 145.242  14
   3  -3  10 241.305 164.012  16
   3  -3  10 228.432 145.431   6
  -3  -3  10 221.329 134.063   2
  -3  -3  10 230.455 142.381  16
  -3  -3  10 235.599 116.715   5
  -3   3 -10 390.941 262.768  15
  -3   3 -10 381.975 243.198   7
   3   3 -10 254.540 148.063   1
   3   3 -10 248.232 140.612  18
   3  -3  10 390.845 119.941  17
   3  -3  10 260.672 122.561   8
  -3  -3  10 8.09611 46.3242   6
   3   3 -10 340.432 228.265  10
  -3   3 -10 423.177 200.992  10
   3  -3  10 357.676 150.988   2
   3   3 -10 163.178 142.958  20
   3   3 -10 260.135 131.418  11
  -3   3 -10 57.1604 102.070   4
  -3   3 -10 206.515 92.1900  19
   3   3 -11 64.1150 66.7044  18
   3   3 -11 118.477 118.646  11
  -3   3 -11 31.3344 60.0778  20
  -3  -3  11-37.9813 94.8396  16
  -3   3 -11 59.4590 105.560  10
   3   3 -11 68.4117 123.613  20
  -3  -3  11 62.2125 63.8353   5
   3   3 -11-43.0828 58.8357  10
   3   3 -11 3.00155 57.1995   1
   3  -3  11 35.6773 116.895  14
   3  -3  11-8.73220 21.0747   8
  -3   3 -11 2.42764 25.6590  19
  -3  -3  11 10.5730 81.6723  17
  -3   3 -11 106.503 195.473   7
  -3   3 -11 68.5668 86.0348  18
   3  -3  11-57.1873 50.9566  16
   3  -3  11 13.6409 51.2099  17
  -3   3 -11-19.6868 54.3097  11
   3  -3  11-1.11278 26.2763   2
   3   3 -11 225.555 252.242   9
   3  -3  11-14.9740 48.6822   6
  -3   3 -11 279.010 216.902   9
  -3   3 -11 67.7286 166.129  15
  -3  -3  11-16.7316 82.4180   6
  -3  -3  11-45.1678 75.7636   2
  -3  -3  12-27.5058 80.2202   6
  -3   3 -12 37.5796 158.855  11
   3   3 -12 74.9195 105.847  18
   3   3 -12 303.632 263.911  10
  -3  -3  12 55.1652 117.126  17
  -3   3 -12 100.535 107.888  19
  -3  -3  12 115.714 136.214   2
   3   3 -12 159.298 144.501  11
   3  -3  12 151.433 224.646  16
   3  -3  12 39.9658 127.399  17
  -3   3 -12 87.2282 184.378  15
  -3   3 -12 75.5317 143.034   7
   3   3 -12 76.6442 75.2777   1
  -3  -3  12 113.871 93.7069   5
   3   3 -12 145.972 179.429   9
  -3   3 -12 122.416 151.357  20
  -3  -3  12 173.193 184.361  16
   3   3 -12 72.1809 168.491  20
   3  -3  12 408.683 340.712   6
   3  -3  12 270.652 178.471   8
   3  -3  12 181.647 148.395   2
   3  -3  12 610.326 361.305  14
  -3   3 -12 509.267 288.714   9
  -3   3 -12 102.496 201.038  10
  -3   3 -13 222.523 129.759  19
  -3  -3  13-30.3342 40.8590  17
   3   3 -13-64.0923 126.052  11
  -3   3 -13-763.677 405.279   7
   3  -3  13 925.645 319.712   8
  -3   3 -13-174.433 96.9948  11
  -3   3 -13-402.327 373.743  15
   3   3 -13-147.145 98.8412  10
   3   3 -13-113.809 190.007  20
   3  -3  13 255.683 340.994   6
  -3   3 -13 123.478 130.048  20
  -3  -3  13-39.7777 34.3907   5
   3   3 -13-62.4288 40.0948   9
  -3   3 -13 40.1561 153.210  10
   3   3 -13-48.7461 83.9500  18
   3  -3  13 146.031 216.953   2
   3  -3  13 490.893 441.725  14
   3   3 -13 9.20818 64.6081   1
  -3  -3  13 46.0563 140.794   2
  -3  -3  13-75.6990 147.551  16
  -3   3 -13-26.4715 109.350   9
   3  -3  13 317.776 337.518  16
  -3  -3  13-329.672 183.731   6
  -3  -3  14 21.1880 68.4402  17
  -3   3 -14-36.3648 77.5190  20
  -3   3 -14 115.035 145.694  10
  -3   3 -14 72.0974 110.646  19
   3  -3  14 150.165 209.415   6
   3  -3  14 62.1336 29.8073   8
  -3   3 -14 62.3002 67.4446   9
  -3   3 -14 79.1605 105.906  11
   3   3 -14-22.9029 80.4012  18
   3  -3  14 141.229 107.912   2
   3  -3  14 76.3829 135.468  16
   3   3 -14-28.6759 54.5003  11
   3   3 -14 89.2088 205.344  20
   3   3 -14-89.3390 112.879   9
  -3  -3  14 170.046 151.993   2
   3   3 -14 51.6175 73.7750   1
   3  -3  14-50.7060 144.702  14
  -3  -3  14 107.454 160.691  16
  -3  -3  14 115.485 78.2806   5
   3   3 -14 37.0139 21.7501  10
  -3  -3  15-53.8910 68.1510  17
  -3   3 -15-158.539 144.866  20
   3   3 -15 15.1982 46.4029   1
   3  -3  15 80.4988 92.1399   2
   3   3 -15 33.9788 87.6909   9
  -3  -3  15 59.1364 100.474   2
  -3   3 -15-76.5982 102.052  11
   3  -3  15-106.316 79.9672   8
   3   3 -15 27.3721 86.2846  18
   3   3 -15 14.8065 163.923  20
  -3   3 -15-167.349 168.220   9
  -3  -3  15-31.2478 42.6753   8
   3   3 -15-58.4312 97.0126  11
   3   3 -15-96.2526 145.001  10
  -3  -3  15 28.3991 96.4625  16
   3  -3  15 8.38668 68.1775   6
  -3   3 -15 14.9464 2.26755  10
  -3  -3  15-13.6902 57.3604   5
  -3   3 -15 23.6082 72.9837  19
   3  -3  15 153.241 203.251  16
   3  -3  16 706.584 255.706   2
   3   3 -16 281.664 306.199  10
  -3  -3  16 822.821 226.837   5
  -3  -3  16 771.634 319.069  17
   3   3 -16 247.582 173.389   1
  -3  -3  16 740.772 339.169   2
   3   3 -16 321.053 188.961  18
  -3  -3  16 236.174 125.301   8
  -3   3 -16 208.210 189.061  10
  -3  -3  16 792.303 401.208  16
   3   3 -16 278.453 140.353  11
   3   3 -16 222.465 198.161   9
   3   3 -16-201.814 312.694  20
  -3   3 -16 211.938 138.470  19
   3  -3  16 760.728 418.218  16
  -3   3 -16 269.189 173.855  20
   3  -3  16 946.717 295.766   8
   3  -3  16 755.503 384.210   6
  -3   3 -16 233.236 165.680   9
   3   3 -17-547.646 498.848  20
  -3   3 -17-61.2467 117.004  10
  -3   3 -17 83.5331 136.939  19
   3   3 -17-19.2008 54.8760  18
   3   3 -17 136.062 146.664   1
  -3  -3  17 122.569 207.867  16
  -3   3 -17-124.683 168.803  20
   3  -3  17-92.1876 149.767   8
  -3  -3  17-16.0778 62.0910   5
  -3  -3  17-55.9418 135.845   2
  -3   3 -17-83.9356 172.261   9
   3  -3  17-3.44340 59.4659   2
  -3  -3  17-25.3926 98.6548  17
   3  -3  17-12.2432 106.608   6
   3   3 -17-22.0507 138.134   9
   3   3 -17 58.7413 140.481  10
  -3  -3  17-22.2715 72.2729   8
   3   3 -17-49.3051 62.2670  11
   3  -3  17-69.6963 101.701  16
   3   3 -18 588.695 335.857   9
  -3  -3  18 2517.57 422.750   5
  -3   3 -18 344.413 245.161   9
   3   3 -18 292.189 240.717  10
   3   3 -18 540.350 249.929  11
  -3  -3  18 2276.39 643.530   2
  -3   3 -18 244.985 171.616  19
  -3   3 -18 271.211 122.956  10
  -3  -3  18 2578.37 792.255  16
   3   3 -18 516.461 260.694  18
  -3   3 -18 133.511 69.2192  20
   3  -3  18 2287.90 537.319   8
   3  -3  18 1705.50 618.952   6
  -3  -3  18 2116.75 551.814  17
   3  -3  18 2348.41 515.138   2
   3   3 -18 414.778 196.287   1
   3  -3  18 2552.88 723.036  16
  -3   3 -19 30.0014 126.423  10
  -3  -3  19-192.105 241.243  17
   3  -3  19 131.740 201.627   2
   3  -3  19 45.5474 90.0908   8
  -3   3 -19-25.5382 79.7689  19
   3   3 -19-67.4713 103.076  11
  -3   3 -19-322.091 315.124  20
   3   3 -19-6.13073 130.887   1
  -3  -3  19-183.656 292.555  16
   3  -3  19 190.433 325.925  16
   3  -3  19-122.025 183.379   6
   3   3 -19 39.5976 138.080   9
   3   3 -19-471.385 536.209  10
  -3  -3  19 92.9492 139.291   5
  -3  -3  19 186.679 237.222   2
   3   3 -20 358.390 189.884   1
   3  -3  20 3089.31 636.371   2
  -3   3 -20-308.979 476.751  10
   3   3 -20-719.771 763.705  10
  -3   3 -20-441.582 477.188  20
  -3  -3  20 3278.66 792.456   2
   3  -3  20 3066.21 633.432   8
  -3  -3  20 2978.05 937.922  16
   3   3 -20 538.553 264.305  11
   3  -3  20 2569.32 826.568  16
   3   3 -20-68.8177 376.368   9
   3  -3  20 1914.10 666.026   6
  -3  -3  20 2880.63 715.995  17
  -4   0   0 879.868 195.140   5
  -4   0   0 794.223 169.393  17
  -4   0   0 823.953 123.725   2
   4   0   0 1234.59 176.169  11
  -4   0   0 824.377 190.939  19
  -4   0   0 877.195 185.275   4
   4   0   0 922.164 175.180   8
   4   0   0 917.184 190.737   1
  -4   0   0 850.761 142.725  12
   4   0   0 922.415 202.679  14
   4   0   0 1080.75 157.743   6
   4   0   0 1040.71 171.095  18
  -4   0   1-6.30110 22.4305  17
  -4   0   1 0.42516 13.7155  12
   4   0  -1-6.51107 20.7287   1
  -4   0  -1 9.98662 40.7722  19
   4   0  -1 5.70101 21.8854   8
  -4   0  -1 18.5761 56.8519   5
  -4   0  -1-4.73720 7.02871  17
   4   0   1-1.36447 4.97600  14
   4   0   1 13.5293 31.6695   8
  -4   0  -1 2.85429 16.4807   2
  -4   0  -1 8.58567 36.9254   4
  -4   0   1-0.68527 7.42721  19
  -4   0   1-3.97362 20.9743   5
   4   0   1 4.99526 46.0062   1
   4   0  -1-16.1253 36.6746  14
  -4   0   1 4.54117 19.5036   2
   4   0   1 5.75794 27.4893  18
   4   0   1 17.0668 27.4480   6
   4   0  -1 9.00881 29.2180  11
  -4   0   1-9.59949 6.53713   4
   4   0  -1-6.68217 6.41128   6
   4   0  -1 7.98415 20.3719  18
   4   0  -2 12.6045 16.9673   6
  -4   0  -2 10.5319 24.8074  19
  -4   0  -2 11.4856 29.0890  17
   4   0  -2 17.2252 21.6956  14
   4   0  -2 4.24671 25.1946   8
   4   0   2 19.0202 24.1057  18
   4   0   2 15.8780 30.1049   6
  -4   0  -2 20.7991 63.0118   4
   4   0   2 19.4257 30.9745   8
   4   0   2 34.5425 57.5472   1
   4   0   2 10.2382 29.9714  14
   4   0  -2 40.8030 61.3165  11
  -4   0  -2-63.1054 121.359  20
  -4   0  -2 65.5917 82.6729  15
   4   0   2 19.3524 13.1573  16
  -4   0  -2 11.8632 12.2941   5
   4   0  -2 18.3774 27.3350   1
  -4   0  -2 91.4070 108.060   7
  -4   0   2 0.55762 35.2756  17
  -4   0   2 4.92245 31.7011   5
  -4   0   2 30.9888 34.8783   4
   4   0  -2 5.52948 24.4946  18
  -4   0   2 22.8851 24.8821  19
  -4   0   2 16.1019 12.4692   2
   4   0   3 10.8115 42.0409  16
   4   0  -3-6.32679 5.21335   8
  -4   0   3-4.76211 12.6022   5
  -4   0  -3 68.6333 99.3566   7
  -4   0  -3 39.2153 85.8274  15
  -4   0  -3-10.2009 29.6307   4
   4   0  -3 16.6981 34.6671  14
   4   0   3-15.1682 52.2412  18
   4   0   3-21.1571 27.6008  14
   4   0  -3-8.71086 32.5518  18
   4   0   3 19.1226 67.2666   1
  -4   0   3 4.93077 21.4533   4
  -4   0  -3 21.9321 42.5908  17
  -4   0   3-13.0405 17.8432   2
   4   0   3 4.41719 39.1334   8
  -4   0   3 1.38986 12.5651  19
   4   0  -3 2.14193 6.26133   1
   4   0  -3-11.3566 31.0681  11
   4   0   3 16.8894 41.6621   6
  -4   0  -3-9.05380 50.2541  19
  -4   0  -3 29.4129 75.7721   5
  -4   0   3-9.27361 13.8712  17
   4   0  -4 1653.02 312.230   1
   4   0   4 1343.22 363.413   1
  -4   0   4 1993.64 287.998  19
  -4   0   4 1961.14 315.466   2
   4   0   4 2314.99 404.412  16
  -4   0  -4 819.719 262.141   7
  -4   0  -4 721.864 278.031  19
  -4   0   4 1999.29 395.690  17
  -4   0   4 2021.02 317.970   5
   0   4  -4 1389.52 489.467  13
   4   0  -4 1930.36 279.030  14
   4   0  -4 1539.44 331.682  11
   4   0   4 1901.60 394.824   6
  -4   0  -4 959.740 332.127  15
   4   0   4 2016.94 421.848   8
   0   4  -4 1619.05 347.019   3
  -4   0  -4 606.202 244.121   4
   4   0   4 2054.96 420.816  14
   4   0  -4 1697.65 328.800  18
   4   0  -4 1736.35 401.417   8
   4   0   5 15.1723 62.1115   8
  -4   0   5 36.2041 80.4060  17
   4   0  -5 4.94026 18.2545  14
   0   4  -5 1.47766 36.2725  12
   0   4  -5 33.1530 98.0862  13
   4   0  -5-6.80434 23.2529  11
   4   0   5-10.4999 56.1303  16
   4   0  -5 0.79809 19.8875  18
   0   4  -5-16.5988 52.8561   3
  -4   0   5-135.915 86.2336   5
   4   0   5-26.5796 97.1823  14
   4   0   5-38.9100 103.213   1
   4   0  -5-23.7396 37.9266   1
   4   0   5-23.6397 89.7508   6
  -4   0   5-14.4146 73.8350  19
  -4   0   5-8.96902 21.1837   2
   0  -4   5-19.5974 83.1753   6
   0   4  -6 1192.80 275.216   3
   0  -4   6 413.318 175.726  16
   4   0   6 959.288 350.355  14
   4   0  -6 730.653 258.241  18
  -4   0   6 963.470 289.998   2
  -4   0   6 1229.12 379.583  17
   4   0  -6 947.108 281.258   1
   4   0   6 932.160 321.708   6
   4   0  -6 493.022 231.111  11
   0   4  -6 1259.30 366.574  13
   0  -4   6 595.900 198.564   6
   4   0   6 1143.62 377.024  16
   0   4  -6 1068.85 221.921  12
   4   0  -6 963.624 234.532  14
   4   0   6 957.685 350.893   8
   0   4  -7-54.2011 119.131  18
   4   0   7 28.9390 137.167  14
   4   0   7 4.34588 123.228   8
   4   0  -7 6.11781 55.1529  11
   0  -4   7-9.01753 30.1156  16
   4   0   7 15.8179 85.1386  16
   0  -4   7-76.2291 199.006   2
  -4   0   7 7.48479 56.0655   2
   0  -4   7-11.5625 12.8919   6
  -4   0   7-9.97085 90.5786  17
   0  -4   7 55.9290 119.633  17
   4   0  -7-7.03598 44.4624  18
   0   4  -7 5.43708 47.4064   3
   4   0   7-20.9604 113.518   6
   0   4  -7 23.0142 44.4684  12
   4   0  -7 7.41682 19.4849  14
   4   0  -7-11.0364 52.2793   1
   0   4  -7-26.5117 31.8459  13
  -4   0   8 3163.59 580.492   2
  -4   0   8 1197.32 191.506  16
   0   4  -8 2135.64 296.880  12
   4   0   8 906.966 339.688  14
   0   4  -8 2133.95 411.473  13
   0  -4   8 1971.33 488.741   2
   4   0   8 1726.23 518.429   8
   0  -4   8 1987.06 432.519  16
   4   0   8 2261.42 578.882  16
   0   4  -8 2187.35 180.280   4
   4   0  -8 1096.12 357.777  18
   0  -4   8 2389.14 382.102   6
   4   0   8 2100.22 549.511   6
   0   4  -8 2616.88 394.355   3
   4   0  -8 757.917 307.820  11
   4   0  -8 2137.36 410.686  14
  -4   0   8 3559.01 698.525  17
   0   4  -8 2462.49 385.586  18
   0  -4   8 2133.20 424.569  17
   4   0  -8 1658.58 453.314   1
   4   0  -9 21.3549 100.051  11
   4   0   9-53.6707 107.019   6
   0   4  -9-4.54499 15.4646   4
   0  -4   9 59.7457 88.6221  17
   0   4  -9-3.00580 33.4634  18
   0  -4   9-54.5908 89.2054   6
   0   4  -9-31.9610 63.6385  13
   0  -4   9 11.6606 16.9729  14
  -4   0   9-19.5351 38.8693  17
   4   0  -9-315.848 223.032   1
   0  -4   9-29.1156 79.2935   2
   4   0   9 14.7232 86.8127  16
   0   4  -9 11.1333 33.2262   3
   0  -4   9 28.1109 60.9103  16
   0   4  -9-8.94162 61.6146  12
   0  -4   9-82.0669 127.282   8
  -4   0   9-47.7903 126.106   2
   4   0 -10 35.0477 106.076  11
  -4   0  10 116.549 106.608  17
   0   4 -10 71.4894 59.0678  12
   0  -4  10 69.8289 93.0545   2
   4   0  10 126.120 199.162  16
   0  -4  10 124.290 141.478  16
   4   0 -10-118.939 280.644   1
   4   0  10 54.0779 115.737   6
   0   4 -10 67.8127 94.6105   3
   0  -4  10 45.3898 20.8265   8
   0   4 -10 12.8418 21.6877  18
   0  -4  10 36.1708 9.09618   6
   0  -4  10 65.6887 67.1364  17
   0   4 -10 21.7331 58.0721  13
  -4   0  10 11.9981 133.293   2
   0  -4  10 43.5313 24.7738  14
   0   4 -11 23.5940 40.9339  18
   0  -4  11-21.0573 31.8910  17
  -4   0  11 13.9154 108.309   2
   0   4 -11 51.1172 99.0974  12
   0  -4  11-92.7352 73.1032  16
   4   0  11-48.3167 117.328   6
  -4   0  11-25.6765 180.722  17
   0  -4  11 35.9642 107.187   2
   0   4 -11 52.9789 82.4544   3
   0  -4  11 0.44976 91.5035   6
   0  -4  11-3.25952 10.5010   8
   0   4 -11 84.6996 207.797  15
   4   0  11-15.5585 189.726  16
   0   4 -11-6.73129 2.26104  11
   0  -4  12 26.5107 47.7694   2
   0  -4  12 40.7817 30.3528   8
   0  -4  12 88.4354 30.9134  17
   0   4 -12 53.6867 46.2699  18
  -4   0  12-66.0150 181.564   2
   4   0  12 22.5725 63.6708   6
   0   4 -12-60.4896 94.6749   1
   0   4 -12 121.400 169.119   7
  -4   0  12-208.750 343.156  17
   0   4 -12 36.9759 73.2478  20
   4   0  12 118.508 289.426  16
   0   4 -12 136.380 117.047  12
   0   4 -12 42.5057 112.495  15
   0  -4  12-8.17758 38.9324  16
   0   4 -12 125.994 82.2595  11
   0  -4  12 49.7030 113.920   6
   4   0  13-158.653 222.446  16
   0   4 -13 937.396 643.443   7
   0   4 -13 504.254 308.117  20
   0   4 -13 719.296 306.760  11
   4   0  13-183.820 257.761   6
  -4   0  13-10.7141 145.882   2
   0   4 -13 1308.32 811.539  15
   0   4 -13 317.295 178.088  18
   0  -4  13 1392.05 508.251  16
   0   4 -13 250.677 343.963   1
   0  -4  14 68.1760 167.201   6
   0   4 -14 111.530 102.631  11
   0   4 -14-40.1632 43.3904  18
   0   4 -14 535.361 285.003   9
   0  -4  14 97.4275 51.4695   8
   0  -4  14 40.1662 101.454   2
   0  -4  14 159.135 163.811  16
   0   4 -14-237.270 438.627  15
   0   4 -14 31.9219 25.3914  19
   0   4 -14 56.7059 58.6805   1
   0   4 -14 66.5937 128.711  10
   4   0  14 86.8755 293.231  16
   4   0  14-81.7772 186.607   6
   0   4 -14-306.341 470.740   7
   0  -4  14 64.2806 75.7912  17
   0   4 -14 32.8358 89.2798  20
   0   4 -15 181.963 182.263   9
   0   4 -15 34.3619 24.1506  19
   0   4 -15-16.2267 17.8167  11
   0  -4  15 150.312 198.857   6
   0  -4  15 13.3939 34.6009   8
   0   4 -15 168.877 121.570  20
   0  -4  15 33.6296 110.160  17
   0   4 -15 27.8317 92.8249  10
   0   4 -15-34.6789 67.1365  18
   4   0  15-82.8925 62.9152  16
   4   0  15-132.097 327.657   6
   0   4 -15 51.4503 87.1600   1
   0  -4  15 51.5887 70.2888  16
   0  -4  15-30.2185 112.925   2
   0   4 -16 100.941 154.494  10
   0  -4  16-100.896 158.831   6
   0   4 -16-40.6717 46.9558   1
   0   4 -16 89.0446 100.733  11
   0   4 -16 54.3818 125.705   9
   0   4 -16 53.6993 143.264  20
   0  -4  16 253.545 243.348  16
   0  -4  16 14.1328 43.9393   2
   0   4 -16 22.1403 91.8011  18
   0  -4  16 79.8575 68.3131   8
   0   4 -16 35.0752 39.2076  19
   0  -4  16 43.9951 115.603  17
   0   4 -17 134.973 135.904  11
   0  -4  17-91.2692 165.497   6
   0  -4  17 171.870 239.771  16
   0   4 -17 153.467 157.577  18
   0   4 -17 387.800 234.512   9
   0  -4  17 110.525 103.298   8
   0  -4  17 86.9973 106.741   2
   0   4 -17 28.0140 101.086  20
   0   4 -17 386.665 327.006  10
   0  -4  17 186.453 170.558  17
   0   4 -17 289.033 179.670   1
   0  -4  18 1724.60 471.844  17
   0  -4  18 500.985 334.884   6
   0   4 -18 294.710 279.495  20
   0   4 -18 536.016 229.366  11
   0   4 -18 438.426 223.997   9
   0   4 -18 464.036 254.449  10
   0   4 -18 706.610 308.397  18
   0  -4  18 1631.27 300.068   8
   0  -4  18 1456.17 458.679   2
   0  -4  18 1332.12 525.220  16
   0  -4  19 332.884 159.166   8
   0   4 -19 20.9397 87.3147  10
   0  -4  19-34.2783 114.355   6
   0   4 -19 261.786 164.410  11
   0  -4  19 249.483 229.377   2
   0  -4  19 483.628 378.972  16
   0   4 -19 87.1104 129.424  20
   0   4 -19 423.555 332.953   9
   0  -4  19 427.592 317.969  17
   0   4 -20 260.008 301.523  20
   0   4 -20 264.697 215.264   9
   0  -4  20 1800.28 572.695   2
   0   4 -20 252.882 166.672  11
   0  -4  20 2052.55 582.080  17
   0  -4  20 344.230 257.390   6
   0   4 -20 459.674 279.072  10
   0  -4  20 2013.66 752.038  16
  -4  -1   0 1332.36 304.618   2
   4  -1   0 1887.86 255.520   8
  -4  -1   0 1389.66 324.467  19
  -4   1   0 2038.07 272.893  19
   4   1   0 2726.30 430.240   1
   4  -1   0 1651.09 350.869  18
  -4   1   0 2053.70 273.497   4
   4   1   0 2008.96 406.434  14
   4   1   0 919.411 226.459   6
  -4  -1   0 1566.69 320.074  17
  -4   1   0 1949.49 281.898  12
   4   1   0 2359.24 337.236  18
   4  -1   0 2234.83 298.950  14
   4  -1   0 2085.32 292.059   1
   4   1   0 2384.44 370.425   8
  -4   1   0 2217.91 291.544   5
  -4   1   0 1585.98 386.028  17
  -4  -1   0 1428.05 332.776   5
   4  -1   0 2530.10 288.410   6
  -4  -1   0 1382.92 319.497   4
   4   1  -1 119.627 86.5389   1
  -4  -1   1 111.079 84.9000  19
   4   1  -1 123.685 63.1417  13
  -4  -1   1 91.4757 65.2438   2
   4  -1   1 127.030 88.6672  18
  -4  -1   1 78.8736 65.8378  17
   4   1   1 104.365 99.8035   1
   4   1   1 85.0483 35.5136  18
   4   1   1 81.0336 95.5862  14
   4   1  -1 58.6583 54.1105   6
  -4  -1  -1 45.4780 47.1535   4
   4   1  -1 145.032 72.9869  18
  -4   1  -1 50.7453 38.6727  17
  -4  -1   1 77.3459 69.1660   5
   4   1  -1 126.245 75.6693   8
   4   1   1 138.701 116.270   8
  -4   1  -1 129.810 81.5805   4
  -4  -1  -1 15.8863 23.2083  17
   4   1   1 29.6426 42.1798   6
  -4   1  -1 117.503 68.4577  12
  -4   1   1 103.361 61.7889  19
   4   1  -1 69.2169 49.9887  14
  -4   1   1 101.026 84.7187  17
   4  -1  -1 107.898 71.1214  14
   4  -1   1 111.291 76.9741  14
   4  -1  -1 86.0200 65.2766   1
   4  -1   1 144.302 81.2874   6
  -4   1  -1 142.385 97.1783  19
  -4   1  -1 105.472 39.6592   2
   4  -1   1 118.266 83.2054   8
  -4   1   1 102.182 54.8948   4
  -4   1   1 116.506 62.5444   5
   4  -1  -1 57.7726 50.2667   8
   4  -1   1 105.984 63.5133   1
  -4   1  -1 119.854 74.5206   3
  -4   1  -1 100.833 65.7785   5
  -4  -1   1 97.6060 67.7458   4
   4  -1   2 116.551 64.3319  16
   4  -1  -2 95.1269 75.6462   8
   4   1  -2 120.170 72.7597  18
   4  -1   2 137.222 61.7418   6
   4  -1   2 107.510 57.1414   1
   4  -1   2 99.2577 55.6043   8
  -4   1  -2 147.634 76.5632   4
  -4  -1   2 119.183 68.8267  19
  -4  -1   2 93.9798 65.5851   4
  -4   1   2 70.6870 58.7921  17
   4   1   2 122.754 145.615   8
   4   1  -2 138.229 90.5228  14
   4   1  -2 130.122 75.0644   8
   4   1  -2 86.8422 62.3526   1
   4  -1  -2 148.071 84.8980  14
  -4   1  -2 81.9386 70.8276  17
  -4   1   2 80.5895 12.7576   5
  -4  -1   2 107.961 81.8699  17
  -4   1  -2 96.9009 63.4937  19
  -4  -1   2 127.018 71.2970   2
  -4  -1   2 96.3093 81.8866   5
  -4   1  -2 136.149 66.4942   3
   4  -1  -2 109.595 86.7895   1
   4   1   2 186.453 161.323  14
   4   1   2 91.4612 91.8743   6
   4  -1   2 141.452 72.7888  18
  -4   1   2 152.859 86.8109  19
   4   1   2 134.922 131.987   1
  -4   1  -2 107.666 72.0827  12
   4  -1   2 124.430 71.1219  14
  -4   1  -2 125.904 74.5405   5
  -4  -1   3 376.793 110.655  19
   4  -1   3 411.302 119.737   1
  -4   1   3 421.318 158.677  19
   4  -1   3 494.724 141.831  16
   4   1  -3 374.801 138.496  14
   4  -1   3 476.008 139.264  14
  -4   1  -3 354.824 120.833   5
  -4  -1   3 290.222 125.943  17
   4  -1  -3 442.803 198.549   1
  -4  -1   3 360.399 116.826   4
   4  -1   3 478.280 131.339   6
  -4   1  -3 319.819 123.711   4
  -4  -1   3 367.049 78.3493  16
   4   1   3 239.370 113.655   8
   4   1  -3 404.383 129.630  18
  -4  -1   3 365.817 133.277   5
   4   1  -3 342.263 90.8594   8
   4   1   3 336.958 221.855  14
  -4   1  -3 339.669 129.280  19
   4   1   3 19.5826 67.8411   6
   4   1  -3 592.751 149.381  10
   4  -1   3 419.931 132.349   8
   4   1  -3 224.522 82.7961  20
   4   1  -3 455.220 143.699  11
   4  -1  -3 358.910 150.675  14
  -4  -1   3 363.549 108.234   2
   4   1  -3 362.849 131.631   1
   4   1   3 128.572 118.433   1
  -4   1   3 299.215 181.398  17
  -4   1  -4 13.2015 43.0249   9
   4  -1   4 17.5201 17.1882  16
   4  -1   4 30.0001 51.1245   1
  -4  -1   4-3.07972 35.0214  17
  -4  -1   4-10.1404 23.8876  16
  -4   1  -4 33.0461 50.7094   4
  -4   1  -4 21.6838 39.2827   5
   4  -1  -4-2.34323 45.2545  14
   4   1  -4 10.3607 29.7511   8
   4   1  -4-16.7809 65.9221  20
   1   4  -4 8.05895 129.114  13
  -4  -1   4 14.7146 31.4970   4
  -4   1  -4-6.82001 12.7273  20
  -4   1   4-116.209 229.189  17
  -4   1  -4-3.14205 5.58170  19
   4   1  -4-6.58883 31.2945  18
  -1   4  -4-12.2514 25.9371   3
  -4  -1   4 14.1573 39.8468   2
   4   1  -4 16.7960 36.4083   1
   4  -1   4 0.91893 21.8275   8
  -4  -1   4 10.2805 20.4325  19
  -1   4  -4-23.8935 132.205  12
   4  -1   4 19.0563 32.7486  14
  -4  -1   4 4.62501 5.38464   5
   4   1  -4 155.052 169.231   9
  -4   1  -4 26.2265 49.0079  10
   4   1  -4 45.1809 78.3661  11
   4   1   4-35.8974 63.3574  14
   4   1   4 15.7228 59.3885   6
   4   1  -4 1.75252 20.7294  14
   4   1  -4 32.5274 73.9362  10
   4  -1   4 4.43177 29.4200   6
   4  -1   5 3356.62 445.492  16
   4   1  -5 2784.60 446.579   9
  -4  -1   5 2290.86 380.907  17
  -4   1  -5 2044.71 322.561  10
   4  -1   5 3207.16 487.292   1
   1  -4   5 1426.14 307.809   6
   4  -1   5 2966.93 404.215  14
  -4   1  -5 1905.51 375.878   4
   4   1  -5 1989.70 399.332  10
  -4  -1   5 2496.54 279.866  19
  -4   1  -5 2736.55 551.360  15
   1   4  -5 2907.14 444.440   3
  -4  -1   5 2539.20 342.511   5
   4   1  -5 2729.97 376.088  11
  -4   1   5 2344.55 607.155  17
   4   1  -5 2348.04 323.869   8
  -4  -1   5 2463.20 344.066   2
  -4  -1   5 2581.71 341.596  16
  -1   4  -5 3080.99 410.697  12
   1   4  -5 3534.91 657.094  13
  -4   1  -5 1790.34 269.143   9
   4  -1   5 3322.30 437.112   6
  -1  -4   5 622.387 182.739   6
   4   1   5 260.992 164.268   6
  -4   1  -5 1535.26 273.294  20
  -4   1  -5 2608.11 496.403   7
  -1   4  -5 3289.21 485.826   3
   4   1   5 414.044 253.148  14
  -4  -1   5 2451.72 286.093   4
   4  -1   5 2988.43 416.467   8
   4   1  -5 2351.92 352.260   1
   4   1  -5 2569.84 322.068  14
  -4   1  -5 1819.46 347.321  19
   4   1  -5 2493.92 361.695  18
  -1   4  -5 2849.99 693.758  13
  -4   1  -5 1796.69 372.397   5
  -4  -1   6 640.893 201.980  16
   4  -1   6 682.625 218.097   6
   4   1  -6 363.814 214.084  10
   4   1  -6 567.626 185.899  18
   4  -1   6 744.449 232.968  16
  -4  -1   6 635.950 164.305  19
  -1   4  -6 680.044 175.861  12
  -4   1  -6 320.778 143.972   9
   4  -1   6 744.121 230.490  14
  -1  -4   6 209.406 22.7966  16
  -4   1  -6 634.433 242.861   7
   1  -4   6 216.028 99.6659  16
   4  -1   6 723.038 229.696   8
   4   1  -6 634.383 158.328  14
  -4   1  -6 302.290 140.969  19
  -4  -1   6 646.725 182.125   5
  -1   4  -6 773.038 231.241   3
   1   4  -6 614.108 223.401  18
  -1   4  -6 834.345 323.101  13
   4   1  -6 627.004 192.373   1
  -4   1  -6 362.203 176.799   4
  -1  -4   6 347.301 232.409  17
  -4   1  -6 610.045 264.877  15
  -4  -1   6 661.278 145.520   4
  -1  -4   6 410.406 158.998   6
  -4  -1   6 583.284 213.812  17
   1   4  -6 641.242 193.169   3
  -4   1  -6 257.934 117.507  10
  -1  -4   6 139.874 146.732   2
   4   1   6 19.4504 51.8992   6
   4  -1   6 190.894 117.622   1
  -4   1  -6 274.404 133.917  20
   1   4  -6 691.330 193.142  12
  -4  -1   6 569.766 180.008   2
   4   1  -6 634.494 243.385   9
   1   4  -6 742.602 264.701  13
   4   1  -6 543.177 189.993  11
   1  -4   6 419.783 170.190   6
  -4  -1   7 2292.09 446.821  16
  -1  -4   7 1636.82 296.595   6
   4  -1   7 2416.09 462.523   8
  -4  -1   7 2322.84 350.236   5
  -1  -4   7 1185.41 362.868   2
   4   1  -7 1813.13 367.945  11
   4   1  -7 1918.13 360.472   1
  -4  -1   7 2073.43 359.819   2
   4  -1   7 2191.40 432.502  14
   1  -4   7 1667.29 412.845  16
  -4   1  -7 837.746 266.977  10
   4   1  -7 943.367 348.787  10
  -4   1  -7 365.495 137.575   4
   1  -4   7 1273.94 325.362   8
   1   4  -7 2035.55 399.282  13
   1   4  -7 2085.17 289.387  12
   1  -4   7 1785.27 325.045   6
   1  -4   7 1633.18 431.774  17
  -4   1  -7 735.886 242.873  20
  -1   4  -7 2358.46 381.986   3
  -4   1  -7 644.703 209.680   9
   4   1  -7 1911.35 272.691  14
   1   4  -7 2495.95 373.555   3
   4  -1   7 2698.53 504.796  16
   4   1  -7 1441.72 398.870   9
  -1   4  -7 2350.42 479.647  13
   4   1  -7 1755.17 341.537  18
   4  -1   7 2739.41 490.269   6
   4  -1   7 2523.16 258.384   2
  -1   4  -7 1959.98 298.873  12
   1   4  -7 2587.97 473.365  18
  -1   4  -7 2243.59 416.653  18
  -1  -4   7 1469.26 354.069  16
  -1  -4   7 1611.12 437.925  17
  -4   1  -7 1527.59 487.302  15
  -4   1  -7 1351.65 411.166   7
  -4   1  -7 959.563 301.496  19
  -4  -1   7 2368.36 446.675  17
   1  -4   8 158.673 115.494   6
   4   1  -8 106.297 90.2312   1
   1   4  -8 170.359 96.3242   3
  -4   1  -8-93.8471 215.893  15
   4   1  -8 47.5643 81.8347  10
   4  -1   8 211.210 50.4140   2
   4   1  -8 153.209 119.474  11
  -1   4  -8 172.457 81.9112  12
  -1   4  -8 183.307 104.012   3
   4  -1   8 197.059 157.214   8
  -1  -4   8 201.082 165.597  17
   4  -1   8 306.658 209.362   6
   1  -4   8 208.229 131.302  17
   4   1  -8-2.75933 101.544   9
   4   1   8-84.2274 193.903   6
   1   4  -8 142.292 106.620  13
  -1  -4   8 154.689 170.128   2
   1  -4   8 173.813 80.0760   8
   1  -4   8 181.284 88.5993  14
  -4  -1   8 152.112 97.2604  17
  -1  -4   8 191.986 98.7733   6
  -1  -4   8 137.619 95.3431  16
   1  -4   8 117.305 94.2852  16
   4   1  -8 144.740 113.515  18
   1  -4   8 22.4655 140.676   2
  -4  -1   8 115.736 80.4811   2
  -1   4  -8 157.154 60.2408   4
   1   4  -8 144.290 98.9703  18
  -4  -1   8 222.434 157.713  16
  -1   4  -8 184.703 136.954  13
  -4   1  -8-194.615 255.845   7
  -1   4  -8 174.593 85.8445  18
   4  -1   8 200.278 166.619  16
   4   1  -8 204.401 94.8794  14
   1   4  -8 173.339 84.9448  12
  -4   1  -8 15.2830 79.7716  20
  -4   1  -8 54.9150 49.3756  19
  -4  -1   8 207.568 112.504   5
   4  -1   8 227.164 141.655  14
  -4   1  -8 41.5183 93.4929  10
   4  -1   9 747.242 314.223  14
   4  -1   9 839.885 327.358   8
   1   4  -9 573.671 209.566  13
  -1   4  -9 664.550 161.110  18
  -1   4  -9 666.336 178.168  12
  -1  -4   9 748.637 228.288   6
   4  -1   9 872.983 341.002  16
   4   1  -9-67.5121 319.270  10
  -4  -1   9 899.044 278.196   2
   4   1  -9 435.192 208.000  11
  -1  -4   9 628.396 242.970   2
   1   4  -9 718.348 204.096  18
   4  -1   9 936.284 333.961   6
  -4   1  -9 145.824 82.3461  20
   1  -4   9 700.370 254.122  16
  -4   1  -9 136.181 142.909  10
   4   1  -9 540.633 223.870  18
   1  -4   9 752.838 183.322   8
  -4  -1   9 979.376 378.126  16
  -1   4  -9 702.071 212.700   3
   4   1  -9 558.643 214.421   1
   1  -4   9 611.749 273.448   2
  -1  -4   9 621.055 227.249  17
   4   1   9-110.180 246.465   6
  -1   4  -9 540.330 212.893  13
  -1  -4   9 638.293 236.812  16
   1   4  -9-7.27719 53.7850   1
   1  -4   9 895.857 253.500   6
   1   4  -9 677.933 200.851   3
  -1   4  -9 882.297 163.839   4
  -4  -1   9 849.595 241.457   5
   4   1  -9 597.758 156.284  14
   1  -4   9 780.762 131.561  14
   1   4  -9 662.445 165.202  12
   4   1  -9 221.626 161.611   9
  -4  -1   9 740.843 291.473  17
   1  -4   9 788.575 202.157  17
   4  -1   9 912.828 211.733   2
   1   4 -10-29.1957 69.8672   1
  -1   4 -10 401.320 198.035  13
   1  -4  10 429.041 193.575   6
   4  -1  10 429.101 223.657   6
   1  -4  10 607.777 251.488   2
  -1   4 -10 396.948 125.742  18
  -4  -1  10 523.909 186.898   5
  -4  -1  10 428.578 240.736  17
   4  -1  10 450.218 251.859   8
   1   4 -10 454.830 170.246  18
  -4  -1  10 571.014 241.488   2
   4  -1  10 555.824 147.882   2
  -1   4 -10 402.905 152.852  12
  -1  -4  10 394.299 175.403   6
   4  -1  10 862.937 353.334  16
  -4   1 -10 0.18377 104.476  20
  -4  -1  10 590.608 371.738  16
   4   1 -10 317.922 191.361   1
   4   1 -10 49.3903 148.055   9
  -1   4 -10 469.319 195.272   3
   1   4 -10 361.704 176.622  13
   4   1 -10 360.692 128.240  14
  -1  -4  10 423.825 221.000  16
   1  -4  10 578.887 144.167   8
  -1   4 -10 578.465 164.428  19
   1  -4  10 572.997 240.037  16
   1   4 -10 474.777 178.370   3
  -4   1 -10-70.8127 284.652  10
  -1   4 -10 513.200 168.426   4
  -1  -4  10 453.685 171.826  17
   1   4 -10 356.534 130.822  12
   4   1 -10 242.749 134.426  18
   1  -4  10 554.229 161.045  17
   4  -1  10 274.992 141.871  14
   4   1 -10-278.796 501.749  10
   1  -4  10 476.440 100.574  14
  -1  -4  10 453.274 203.644   2
   4   1 -10 196.716 113.538  11
   4  -1  11-50.0273 139.271   2
  -1   4 -11 11.9686 27.0139  18
   1  -4  11-32.8837 55.5152   6
  -1   4 -11 114.675 156.504  13
  -1   4 -11 18.6721 20.6682  19
  -1   4 -11 96.4061 116.654   3
   1   4 -11 9.88439 78.1156  11
   1  -4  11-12.9383 68.9955   2
   1   4 -11-25.5559 25.9735   1
  -1  -4  11 11.0579 119.924   2
   4   1 -11-22.3305 62.3839  11
  -1  -4  11 11.8687 57.6433   6
  -4   1 -11-411.336 510.857  10
   4   1 -11-432.709 681.962  10
   1   4 -11 65.4412 115.537   3
   1  -4  11-64.0781 94.2086  16
   1   4 -11 51.8949 202.641  15
   1   4 -11 100.040 244.403   7
   4   1 -11-40.9694 105.626  18
  -4  -1  11 10.5326 60.1363  17
  -4   1 -11-191.605 254.931  20
   4  -1  11 40.8202 101.129  16
   4  -1  11-10.9977 89.9681   6
  -4  -1  11 38.2501 71.8825   2
  -1  -4  11 61.5648 97.8452  16
  -1  -4  11 30.7575 101.004  17
   4   1 -11 38.5650 82.0581   1
   1  -4  11-6.10788 8.83216   8
   4  -1  11 28.6089 24.2312   8
   4   1 -11-107.717 288.854   9
  -1   4 -11 80.3509 102.860  12
  -4  -1  11 48.6231 109.624  16
  -4  -1  11-66.4486 185.381   5
   1  -4  11-6.89624 33.3111  14
   4  -1  11-28.9957 126.416  14
   4   1 -11-34.9291 71.3194  14
  -1   4 -11-9.12152 30.8897  11
   1   4 -11 38.1878 71.4121  12
   1   4 -11 13.2107 26.9136  18
   1  -4  11 37.1973 56.6766  17
   1   4 -12 247.420 188.558  12
   1  -4  12 292.480 241.028   6
   1  -4  12 161.386 107.225  14
   4  -1  12 116.364 139.032   6
   4   1 -12 21.3495 37.5010  18
   1  -4  12 163.630 179.647   2
  -4  -1  12 38.9446 29.9655  17
  -1   4 -12 369.261 212.152  12
  -1   4 -12 127.825 163.424  20
  -1   4 -12 153.210 99.1068  19
   1  -4  12 228.682 107.117   8
   1   4 -12 149.567 177.760  20
   4  -1  12 18.3235 114.375   8
  -4  -1  12 14.4240 78.1273   2
  -1   4 -12 78.6990 65.7173  18
   4  -1  12-69.9208 220.332   2
   1   4 -12 44.7681 201.275  15
  -1  -4  12 97.1229 130.949   2
  -4  -1  12 44.6506 116.119  16
  -1  -4  12 58.3294 31.4792   8
   1   4 -12 144.271 120.356  11
  -1  -4  12 108.782 110.376  17
   1  -4  12 22.1416 89.7744  16
  -1   4 -12 190.809 265.088   7
  -1   4 -12 198.668 270.053  15
   1   4 -12 17.3020 91.7471   1
   4   1 -12 8.71810 67.7226   1
   4  -1  12 40.9908 75.2213  16
   1   4 -12 27.9237 46.5648  18
  -1  -4  12 2.11744 38.2877  16
  -1   4 -12 135.485 122.737  11
   1   4 -12-83.3759 123.422   7
   4   1 -12-6.08246 67.9136  11
   4   1 -12 91.5453 68.4126  14
   1  -4  12 274.338 146.776  17
   1   4 -13 158.040 603.446  15
  -1   4 -13 196.405 541.677   7
  -1   4 -13 62.5970 329.673  15
  -1  -4  13 74.4321 152.333  16
   4   1 -13 34.5257 103.612  11
  -1   4 -13 805.721 420.351  20
   1   4 -13 283.230 191.281  11
   1   4 -13-128.538 175.471   7
   1  -4  13-220.243 124.352  14
  -1  -4  13 56.2871 52.8063   2
  -1  -4  13 379.754 201.292  17
   4   1 -13 2.18360 25.5234   1
  -4  -1  13 55.8222 119.232  16
   4  -1  13 15.8790 23.4232   6
  -4  -1  13 165.767 181.222   2
  -4  -1  13 80.3983 107.883  17
  -1  -4  13 229.438 95.7309   8
   1   4 -13 129.946 220.656  20
   1   4 -13 85.7452 233.269   1
   4  -1  13 69.1564 137.316   8
   4  -1  13-12.5426 70.0739  16
   1   4 -13 102.396 130.175  18
   4   1 -13-56.3135 134.383  18
   1   4 -13 653.573 357.103  10
   4  -1  13-179.671 234.655   2
   4   1 -13 82.8685 92.3298  14
  -1   4 -14 291.012 136.683  18
   4  -1  14 329.177 261.697  16
   1  -4  14 423.353 236.317  16
  -1   4 -14 133.386 153.725   7
   1   4 -14 927.150 368.759   9
   1   4 -14 377.508 158.618  11
  -1   4 -14 316.714 131.276  11
  -1  -4  14 425.567 224.400  16
   1   4 -14 453.496 275.284  10
   1   4 -14 345.205 167.044  18
  -1  -4  14 511.149 232.761   2
  -1   4 -14 295.331 94.9645  19
   1  -4  14 577.191 226.119   2
  -1  -4  14 141.389 133.322   6
  -4  -1  14 533.225 273.065  17
  -1  -4  14 459.269 105.875   8
  -4  -1  14 614.766 293.450   2
  -1   4 -14 130.465 74.3647  15
   1  -4  14 437.214 184.602  17
   4  -1  14 510.697 281.406   8
  -1  -4  14 487.159 201.079  17
   4  -1  14 551.534 191.035   2
   1   4 -14 172.250 57.9467   1
   4   1 -14 321.817 175.053  14
   1   4 -14 146.218 145.370  20
   1  -4  14 476.386 143.229   8
   4   1 -14 70.2884 53.2936   1
  -4  -1  14 630.806 506.984  16
   1  -4  14 414.641 300.892   6
   4  -1  14 310.838 223.539   6
   4   1 -14 33.2779 106.958  11
  -1   4 -14 683.900 303.380   9
  -1   4 -14 373.639 222.233  10
  -1   4 -14 148.764 139.893  20
  -1  -4  15 46.3433 39.5179   8
   4  -1  15 83.4925 150.155   8
   1  -4  15 34.3238 76.7942   8
   1   4 -15-18.5902 89.3449  10
  -4  -1  15 84.4032 140.300   2
  -1   4 -15-10.7113 71.5714  11
   1   4 -15 30.0978 98.6580   1
   1   4 -15 169.358 211.817   9
  -4  -1  15 134.577 83.0333  16
  -1   4 -15-513.916 671.959  15
   1   4 -15 100.856 160.098  20
  -1   4 -15 12.4394 62.0750  18
  -1   4 -15 69.8292 135.716  20
  -1   4 -15 159.869 200.758  10
   1  -4  15-4.02788 64.9763  17
  -1  -4  15 4.99198 147.718  16
  -1  -4  15 60.6287 89.2192  17
   4   1 -15-61.6830 150.705  11
   1  -4  15 9.27757 106.709   2
  -1   4 -15-387.594 594.394   7
  -1  -4  15 14.3695 59.0120   2
   4  -1  15-154.912 238.458   2
   1   4 -15 13.4948 46.4738  18
   4  -1  15-68.7129 147.952   6
  -4  -1  15-39.8240 180.987  17
   4   1 -15 88.5877 141.033   1
   4  -1  15 70.3696 119.493  16
  -1  -4  15 51.4011 139.898   6
  -1   4 -15 286.705 224.046   9
   1  -4  15-21.3904 71.8505  16
  -1   4 -15 50.9088 37.9878  19
   1   4 -15 47.2520 74.4550  11
   1  -4  15 36.1665 126.863   6
   1   4 -16 249.938 145.663  11
  -1   4 -16 329.021 164.632  11
  -1   4 -16-31.4116 31.4244   1
   1   4 -16 20.7276 113.568  10
  -1   4 -16 201.604 193.194  20
   1  -4  16 483.173 363.648   6
  -1   4 -16 98.7208 127.455  10
   1   4 -16 118.193 67.9308   9
  -1  -4  16 203.752 226.651   6
  -1   4 -16 239.942 152.723  18
   1   4 -16 92.8047 64.6413   1
  -1   4 -16 266.416 99.4415  19
   4  -1  16 315.487 248.800   8
   1   4 -16 60.9006 79.9093  20
   1  -4  16 437.686 165.948   8
   1  -4  16 590.788 232.880  17
   1  -4  16 401.496 219.300   2
  -1  -4  16 453.038 121.508   8
  -4  -1  16 705.889 554.820  16
  -4  -1  16 161.480 177.454  17
  -1   4 -16 322.696 228.515   9
  -1  -4  16 499.719 267.882   2
   1  -4  16 501.537 307.533  16
   4  -1  16 471.878 255.306   2
  -1  -4  16 423.167 287.201  16
   4   1 -16 8.63107 111.940   1
   4  -1  16 426.821 329.418  16
  -4  -1  16 741.100 351.845   2
  -1  -4  16 401.940 192.372  17
   4  -1  16 267.016 194.874   6
   1   4 -16 263.019 172.035  18
   1   4 -17 164.500 114.516   1
  -1   4 -17 232.715 242.042  20
   1   4 -17 143.654 15.9028  10
   1  -4  17 850.814 229.898   8
  -4  -1  17 1209.43 505.738   2
  -1   4 -17 654.640 258.482  11
  -1  -4  17 854.955 175.877   8
  -1   4 -17 409.456 287.342  10
   1   4 -17 322.925 180.408  18
  -1  -4  17 399.680 145.931   5
   1  -4  17 759.314 471.492   6
  -1  -4  17 672.453 309.878   2
   1   4 -17 90.1087 98.0979  20
  -1  -4  17 161.017 90.6264   6
  -1   4 -17 380.973 240.964  18
   4  -1  17 384.168 233.897   8
   4  -1  17 444.403 305.090   6
  -1  -4  17 637.801 247.472  17
  -4  -1  17 1110.00 720.612  16
   1  -4  17 1194.09 502.920  16
  -1  -4  17 829.346 382.261  16
   1  -4  17 967.329 361.028  17
   4  -1  17 1148.52 538.536  16
   1  -4  17 806.508 355.735   2
   1   4 -17-3.73804 221.231   9
  -1   4 -17 367.606 135.922  19
  -1   4 -17 367.539 217.487   9
   1   4 -17 195.643 134.987  11
   4  -1  17 1141.55 413.456   2
   4  -1  18 798.892 386.059   2
  -1  -4  18 682.159 294.779  17
  -4  -1  18 1113.73 849.190  16
  -1  -4  18 263.337 285.429   6
  -1   4 -18 598.332 250.605  11
   4  -1  18 460.907 356.554  16
   1  -4  18 852.260 267.056   8
  -1   4 -18 564.090 321.445   9
  -1  -4  18 746.486 182.194   8
   1   4 -18 384.753 208.845  11
   1   4 -18 192.872 156.294   1
   4  -1  18 10.0369 207.664   6
   1  -4  18 883.462 392.730   2
   1   4 -18 364.040 338.392  20
   1  -4  18 811.857 505.080  16
   1  -4  18 169.409 254.315   6
   1  -4  18 1016.97 401.662  17
  -1  -4  18 892.532 379.922   2
  -1  -4  18 689.217 420.846  16
  -4  -1  18 858.333 426.831   2
   4  -1  18 396.011 272.967   8
  -1   4 -18 490.688 342.266  10
  -1   4 -18 564.009 341.732  20
   1   4 -18 648.555 315.181   9
   1   4 -18 602.942 347.781  10
   1   4 -18 282.992 171.327  18
  -1  -4  19 2417.50 658.608   2
   1  -4  19 2091.17 604.066   2
  -1  -4  19 1978.71 548.135  17
   1   4 -19 373.925 362.665  10
   1  -4  19 2293.63 589.094  17
  -1   4 -19 577.488 293.913   9
   1  -4  19 2307.97 782.818  16
   1   4 -19 689.635 282.964  18
   4  -1  19 1665.73 666.832  16
   1   4 -19 298.862 234.039   9
   4  -1  19 1138.75 454.887   8
   4  -1  19 537.924 183.276   6
   1   4 -19 652.429 259.079  11
   1   4 -19 225.693 258.447  20
  -1  -4  19 29.5046 273.724   6
   1  -4  19 2303.95 424.603   8
  -1  -4  19 2362.22 795.872  16
   1  -4  19 1626.69 713.994   6
  -1   4 -19 386.235 261.772  20
  -1   4 -19 465.983 240.148  11
  -1   4 -19 66.7020 47.1718  10
   1   4 -20-249.713 322.139  20
  -1  -4  20 174.448 232.450   2
   1  -4  20 188.644 217.300   2
   1  -4  20-88.2499 373.776  17
  -1   4 -20 225.016 284.517  10
  -1  -4  20 269.972 294.521  17
   1   4 -20 281.114 247.828  11
  -1  -4  20 419.232 351.084  16
  -1   4 -20-34.3652 175.532  20
   1  -4  20 291.095 249.873   8
  -1   4 -20 237.369 223.397  11
   1  -4  20 81.7333 231.590   6
   1   4 -20 268.352 312.358  10
   4  -1  20 333.197 450.603  16
   1  -4  20 327.835 316.058  16
  -1  -4  20-83.8242 168.283   6
  -1   4 -20 198.179 240.503   9
   1   4 -20 131.719 173.040   9
   4   2   0 6.73285 34.1148  14
   4   2   0 185.486 139.578   1
  -4   2   0 287.085 124.056  19
   4  -2   0 146.674 38.8062   1
   4  -2   0 217.229 122.615   8
   4  -2   0 243.745 115.378  14
   4   2  -1 891.916 271.521   8
   4  -2   1 1181.50 262.418   1
   4  -2   1 977.914 213.117   8
  -4   2   1 1655.02 324.724  19
  -4  -2   1 395.365 224.305  17
  -4   2  -1 1155.54 252.948  12
   4  -2  -1 897.086 251.878  14
   4   2  -1 1268.00 377.265   1
   4   2  -1 1353.60 331.992  18
   4  -2  -1 744.068 257.122   8
   4   2  -1 346.252 153.077  13
  -4   2  -1 1294.81 239.953  19
   4   2   1 391.905 207.577   1
   4   2  -1 219.138 162.182  14
   4  -2   1 1257.79 257.280  14
  -4   2  -1 1328.69 244.621   5
   4  -2   1 1213.44 259.890   6
   4  -2   2 416.228 131.998   6
  -4   2  -2 360.020 127.544  19
  -4  -2   2 242.013 155.458  17
   4   2  -2 301.026 154.307   8
   4  -2   2 341.203 124.623   1
  -4   2  -2 388.838 130.556  12
  -4   2  -2 338.162 117.090   4
   4  -2   2 317.908 116.989   8
   4   2  -2 435.150 178.019  18
  -4  -2   2 236.545 131.330   2
   4   2  -2 450.324 203.298   1
   4   2  -2 133.579 99.5229  14
   4   2  -2 435.708 165.607  13
  -4   2  -2 347.960 160.838   3
  -4   2  -2 381.444 125.285   5
   4  -2   2 412.670 142.683  14
  -4   2  -3 1370.17 282.411   3
  -4   2  -3 1130.02 214.647  19
   4  -2   3 1440.64 242.818   6
   4   2  -3 1252.85 320.447   1
  -4   2  -3 1180.86 198.215   5
   4  -2   3 1241.95 226.122  14
   4  -2   3 1149.24 194.258   1
  -4   2  -3 1133.07 213.031   4
   4   2  -3 1290.61 234.257   8
  -4  -2   3 822.458 220.763  19
  -4  -2   3 595.026 214.574   4
   4   2  -3 1245.36 278.271  18
   4   2  -3 649.455 263.859  14
   4  -2   3 1139.44 211.655   8
  -4   2  -3 1178.70 225.311  12
   4   2  -3 1321.05 231.234  13
  -4  -2   3 766.224 246.079   5
  -4  -2   3 890.857 221.510   2
  -4  -2   3 920.383 268.625  17
  -4  -2   4 991.516 272.721   5
   4   2  -4 1270.28 296.776   1
  -4   2  -4 1110.01 190.458   5
   2   4  -4 1692.62 493.916  13
  -4   2  -4 1203.81 231.355  19
  -4  -2   4 987.393 192.562  16
   4   2  -4 1492.19 196.004   3
   4   2  -4 829.205 274.931  14
   4   2  -4 1258.61 253.760  18
  -4   2  -4 1150.05 233.329  12
   4   2  -4 1293.98 187.120   8
  -4  -2   4 1021.23 282.451  17
   4  -2   4 1288.45 230.667  14
  -4   2  -4 74.8227 64.8567  13
   4  -2   4 1126.75 173.249   1
  -4  -2   4 1038.98 231.984   2
   2  -4   4 361.278 133.146   6
   4   2  -4 1165.70 205.216  13
  -4  -2   4 933.259 244.737   4
   4  -2   4 1091.64 208.783   8
   4  -2   4 1383.29 252.385   6
  -2   4  -4 1451.78 314.930  12
  -2   4  -4 1395.78 354.041   3
  -4   2  -4 1274.22 252.204   3
  -4   2  -4 1151.94 219.880   4
   4  -2   4 1378.72 334.108  16
  -4  -2   4 1061.25 214.163  19
  -4   2  -5 74.9263 61.1218  13
   4  -2   5 78.4571 72.3896   6
   4   2  -5 47.9500 26.0516   3
  -4   2  -5 68.0166 48.6860   5
   2   4  -5 93.1784 116.339  13
  -2   4  -5-7.84088 92.4053  13
  -4   2  -5 94.3048 90.0933  12
  -4  -2   5 102.556 78.9229   2
  -4  -2   5 71.1295 51.3039  16
  -4  -2   5 55.9305 68.4456   5
   4  -2   5 50.7537 33.3790   1
  -4   2  -5 45.3040 59.6791  19
  -4  -2   5 47.1392 62.7530   4
   4   2  -5 29.0422 39.0439   1
   4  -2   5 53.0496 31.9054   8
   4   2  -5 59.9255 38.3652   8
   4   2  -5 68.9783 94.1495  14
  -4  -2   5 53.4003 74.6207  17
  -2   4  -5 116.475 91.7946   3
   2   4  -5 81.1927 73.7595   3
  -4   2  -5 57.0764 43.3081   4
  -4  -2   5 57.6494 47.0636  19
   2  -4   5 40.0082 51.9816   6
   4   2  -5 52.0885 65.9682  18
  -2   4  -5 62.7364 40.7057  12
  -4   2  -5 70.8624 70.9817   3
   4  -2   5 106.998 81.4398  14
   2   4  -5-100.634 216.693  18
   4  -2   5 47.9377 58.4481  16
   4   2  -6 3628.15 294.891   8
   2  -4   6 3027.99 442.977   6
  -2   4  -6 3686.65 428.993  12
   4   2  -6 3595.87 448.289  18
  -4   2  -6 3295.66 405.974   5
   4   2  -6 3513.39 468.099   1
  -4  -2   6 3373.40 452.777   5
   2   4  -6 4305.72 598.913  13
  -2  -4   6 1726.45 435.052   2
   4  -2   6 4160.53 552.817  16
  -4  -2   6 3345.74 419.132   2
   4   2  -6 3690.13 466.744  11
   4   2  -6 2878.68 412.410  20
  -4  -2   6 3304.26 308.398  19
  -4  -2   6 3053.42 474.301  17
  -4   2  -6 3039.34 393.959  19
  -2  -4   6 2134.94 329.109   6
   2  -4   6 2823.30 485.321   8
  -4   2  -6 3050.02 427.844   4
   4  -2   6 3750.16 431.091   8
   4  -2   6 3582.34 400.818  14
   4  -2   6 4142.41 483.924   6
   2   4  -6 4159.15 661.771  18
   4  -2   6 4475.67 434.641   1
   2  -4   6 2222.90 510.287  16
  -4  -2   6 3428.48 383.358  16
  -2  -4   6 1730.13 506.928  17
  -4   2  -6 2476.93 341.576  13
   2   4  -6 4328.95 501.381   3
   4   2  -6 2532.99 426.796  14
  -2   4  -6 4538.01 571.708   3
  -2   4  -6 3832.08 790.229  13
  -4  -2   6 3399.37 382.283   4
   2   4  -7 282.820 144.156  13
   4   2  -7 436.098 193.467  10
   4  -2   7 369.426 128.755   2
  -2   4  -7 266.318 114.112  12
  -4  -2   7 271.764 128.512   2
  -2   4  -7 261.466 56.0061  18
  -4  -2   7 277.823 120.634   5
  -2  -4   7 242.444 109.617   6
  -2   4  -7 300.116 100.920  19
  -4  -2   7 258.151 87.4200  19
  -4   2  -7 172.938 114.311  11
  -2   4  -7 286.523 124.610   3
  -4  -2   7 229.436 132.906  17
   2  -4   7 252.504 145.595  16
  -4   2  -7 205.371 119.515  20
  -2  -4   7 136.307 105.973   2
   4  -2   7 315.065 124.062  14
   4   2  -7 290.819 135.142   1
   2  -4   7 274.710 181.007  17
   2   4  -7 271.107 142.627  18
  -2  -4   7 244.853 185.605  17
   2   4  -7 344.199 138.350   3
   2  -4   7 290.136 136.821   6
  -4   2  -7 259.234 155.258   5
  -4  -2   7 272.241 92.8594   4
   2  -4   7 301.554 135.741   8
   4  -2   7 383.756 157.780   6
   4   2  -7 203.035 122.922  18
   4   2  -7 286.572 136.462  11
   4  -2   7 354.703 165.386  16
  -2   4  -7 274.243 174.152  13
  -2  -4   7 145.352 98.2451  16
  -4   2  -7 226.786 136.941  19
   4   2  -7 242.472 145.909  20
   2   4  -7 347.577 129.901  12
   2   4  -7-21.6279 36.8324   1
  -4  -2   7 306.173 126.618  16
   4   2  -7 184.104 98.3327  14
   4  -2   7 374.045 147.903   8
  -2   4  -7 290.082 91.1574   4
  -4   2  -7 205.492 111.236   4
  -4   2  -7 314.286 156.396  10
   4  -2   7 220.822 123.970   1
   2  -4   7 284.191 125.620  14
  -2   4  -8 2423.05 396.874  19
   2   4  -8 1809.74 254.385  12
  -4   2  -8 1320.01 286.726  10
  -2   4  -8 1677.09 268.879  18
   2  -4   8 1748.58 249.476  14
  -4  -2   8 1799.34 315.101   5
   2  -4   8 1851.83 351.881   6
  -2   4  -8 1554.41 394.719  13
   2  -4   8 1568.97 278.191   8
   4   2  -8 2035.76 451.178   9
  -4  -2   8 1733.12 345.020  16
  -4   2  -8 889.996 245.852  20
   2  -4   8 1588.89 417.162  16
   4  -2   8-32.3456 84.8997   1
  -4   2  -8 1869.38 468.345   7
  -2   4  -8 1491.85 149.711   5
  -4   2  -8 1601.03 289.145   9
   4   2  -8 1716.81 407.376  10
  -4  -2   8 1753.57 344.705   2
  -4  -2   8 1889.54 332.161  19
   4   2  -8 1577.45 322.242  18
   4  -2   8 2318.43 279.734   2
  -4   2  -8 1115.01 269.514  19
  -4   2  -8 1105.81 341.404   4
   2   4  -8 1599.18 327.359  13
  -2   4  -8 1688.05 237.107   4
   2   4  -8 2034.24 382.304  18
   4   2  -8 1736.66 346.975  11
   4   2  -8 1082.39 257.035  14
  -4  -2   8 1923.00 244.255   4
  -4  -2   8 1793.84 383.645  17
  -4   2  -8 1992.25 541.130  15
   4  -2   8 2075.11 399.893   6
   2   4  -8 269.723 170.234   1
   4   2  -8 1518.11 321.065   1
   4  -2   8 2150.37 374.316   8
  -2  -4   8 1410.72 341.298  16
  -2   4  -8 1621.66 288.262  12
  -2  -4   8 1525.17 388.684   2
   4  -2   8 1920.58 344.538  14
   2   4  -8 1894.12 318.682   3
   4   2  -8 967.993 318.679  20
   2  -4   8 1872.43 329.444  17
  -2   4  -8 1675.90 338.432   3
   4  -2   8 2275.78 460.175  16
  -2  -4   8 1348.42 271.592   6
  -2  -4   8 1369.96 369.705  17
  -2  -4   9 382.746 174.270   6
  -4  -2   9 412.938 111.806   4
  -4   2  -9 275.908 136.459  10
   2   4  -9 302.201 164.399  13
   4  -2   9 522.272 232.950  16
  -2   4  -9 305.425 131.637  12
   4  -2   9 485.794 209.339  14
  -2   4  -9 281.120 151.922   3
  -4   2  -9 185.091 103.215  20
   2   4  -9 358.289 118.319  12
   4  -2   9 430.466 123.418   2
   2   4  -9 370.650 145.180  18
   4   2  -9 471.389 246.666   9
   2  -4   9 430.999 144.991  17
  -2   4  -9 212.981 129.295  13
   2  -4   9 315.026 133.080   6
   4   2  -9 105.853 124.471  20
  -2  -4   9 330.961 194.796  17
   4   2  -9 302.183 148.310  18
  -4   2  -9-11.3884 177.458   4
  -4   2  -9 184.827 127.730  19
  -4  -2   9 414.727 199.941  16
   2   4  -9 306.934 136.185   3
   4   2  -9 408.709 221.758  10
  -2   4  -9 298.412 99.2110  18
  -2   4  -9 344.955 111.786   4
  -4  -2   9 428.221 196.329  17
  -4  -2   9 345.335 144.065   5
   4   2  -9 316.336 152.387  11
  -4   2  -9 218.505 167.384  15
  -4  -2   9 381.707 185.688   2
  -2  -4   9 330.918 172.972  16
   2  -4   9 319.378 198.561  16
   2  -4   9 334.267 104.365  14
  -4   2  -9 275.141 198.756   7
   4  -2   9 374.801 162.220   8
   4  -2   9 418.070 207.204   6
  -2  -4   9 314.979 181.157   2
  -4   2  -9 264.204 118.824   9
   2  -4   9 339.785 134.186   8
   4   2  -9 300.020 150.452   1
  -2   4  -9 553.108 153.380  19
   4   2  -9 258.173 120.719  14
   2  -4   9 134.770 58.9220   2
   2   4  -9 186.982 153.020   1
   2   4 -10 634.152 237.880  13
  -2  -4  10 541.285 261.472   2
  -2   4 -10 768.774 210.769   4
   4  -2  10 717.583 247.483   8
   2   4 -10 621.306 155.019  12
  -2   4 -10 595.001 189.307  12
   2   4 -10 663.715 214.512  18
   2  -4  10 868.877 289.903  16
   2   4 -10 444.224 242.154   1
   4   2 -10 362.071 228.867  10
   4  -2  10 807.917 182.135   2
   2  -4  10 768.543 143.915  14
   4   2 -10 503.541 211.738  11
  -4  -2  10 783.069 266.597  17
  -4  -2  10 763.874 214.597   5
  -2   4 -10 452.670 203.114  13
  -4   2 -10 439.284 178.333   9
  -4   2 -10 331.716 155.402  10
   2  -4  10 765.618 288.018   2
   4  -2  10 680.858 268.954   6
  -2  -4  10 638.786 251.325  16
   2   4 -10 758.779 220.287   3
   2  -4  10 648.884 164.159   8
  -2   4 -10 947.585 199.769  19
  -4   2 -10 280.397 162.251  20
  -2  -4  10 684.602 247.160  17
  -4   2 -10 522.240 330.250  15
  -4   2 -10 372.908 180.045  19
   4   2 -10 114.454 41.1064  20
   4   2 -10 499.165 191.312   1
  -4   2 -10 343.223 209.412   7
  -4  -2  10 677.266 234.498   2
   4  -2  10 744.947 275.853  14
   4   2 -10 549.951 254.473   9
   2  -4  10 710.561 162.223  17
   4  -2  10 933.379 333.125  16
   4   2 -10 570.601 187.782  18
  -2  -4  10 648.973 238.054   6
   2  -4  10 760.003 260.419   6
   2   4 -10 1197.38 432.452  15
  -2   4 -10 592.241 128.677  18
  -4  -2  10 738.705 281.684  16
   4   2 -10 430.580 140.919  14
  -4  -2  10 695.656 150.439   4
  -2   4 -10 545.666 208.330   3
  -4   2 -11 293.221 107.295  10
   4   2 -11 464.839 140.771  14
   4   2 -11 514.192 211.377   1
  -4   2 -11 311.825 128.122   9
  -2   4 -11 666.875 154.274  18
  -2   4 -11 766.750 241.595  12
  -2   4 -11 689.932 269.926  13
  -4   2 -11 198.094 155.790  15
   2   4 -11 1103.98 459.884  15
   2  -4  11 884.704 187.369   8
   2  -4  11 1143.83 349.193   2
   4  -2  11 943.326 338.620  14
   2   4 -11 857.571 253.699  11
   2   4 -11 486.048 225.033   1
   4   2 -11 739.484 260.986  11
   4   2 -11 200.380 112.077  10
  -2  -4  11 688.136 228.410  17
  -4   2 -11 281.246 168.763  19
  -4   2 -11 191.966 141.353  20
  -4  -2  11 818.560 321.715  16
   2  -4  11 1041.49 350.948  16
   2   4 -11 749.293 175.197  12
   4   2 -11 689.250 304.429   9
   2   4 -11 625.647 265.735  20
   4   2 -11-13.1129 153.319  20
  -2  -4  11 687.376 265.442   6
  -4   2 -11 162.562 182.270   7
   4  -2  11 1055.47 385.010  16
  -2   4 -11 819.273 172.679  11
   2   4 -11 698.177 218.603  18
  -2   4 -11 800.915 286.716   4
  -4  -2  11 986.014 307.548   2
   2   4 -11 859.273 356.240   7
   2  -4  11 883.721 201.527  17
   4  -2  11 939.816 286.299   8
  -2   4 -11 783.933 267.937   3
  -4  -2  11 849.092 304.931  17
   4   2 -11 567.685 241.571  18
   2  -4  11 982.117 177.773  14
   2  -4  11 878.328 267.729   6
  -4  -2  11 912.290 239.198   5
   2   4 -11 761.036 239.394   3
  -2  -4  11 642.661 261.116   2
   4  -2  11 958.480 344.832   6
  -2  -4  11 753.770 284.654  16
   4  -2  11 991.387 204.973   2
   2   4 -12-749.404 419.244  15
   2   4 -12 168.462 312.500   1
  -2  -4  12 379.102 367.886  17
  -4  -2  12-79.8826 88.9963  17
   4   2 -12 12.8154 84.0913  11
   4  -2  12 90.5001 234.690   8
  -4   2 -12 98.5727 152.556  20
  -4  -2  12 33.3046 67.5182   5
   4   2 -12 83.9202 74.2051   1
  -4  -2  12-68.9271 134.021  16
   2   4 -12-510.340 280.313   7
  -4   2 -12 16.2218 120.610  19
   4  -2  12 45.2349 348.932  14
  -4   2 -12 4.83907 133.966   9
   4   2 -12 88.1967 117.198   9
  -2  -4  12 80.8086 257.591   2
   4   2 -12 17.1820 51.7648  18
   4   2 -12-204.378 426.260  20
  -2  -4  12 183.154 280.605  16
  -2  -4  12 402.014 542.675   6
   2   4 -12-9.46156 110.332  18
   4  -2  12 184.361 293.459   6
   2   4 -12-29.1260 67.6620  12
   2   4 -12 705.455 357.466  20
   2   4 -12 171.136 223.937  11
   4   2 -12 30.1220 191.451  10
   4  -2  12 47.5068 223.697  16
  -4  -2  12-16.2880 62.5070   2
  -4   2 -12 36.0195 142.874  10
   4  -2  12 168.206 144.555   2
   4   2 -12 82.5231 79.6149  14
   2   4 -13 402.100 174.761  18
  -2  -4  13 373.816 207.306  16
   2  -4  13 930.102 337.436   2
  -4  -2  13 578.997 204.558   5
  -2   4 -13 836.478 182.064  19
   4   2 -13 234.112 169.813  18
   2   4 -13 283.636 145.281  20
   4   2 -13 244.238 149.473  11
   4  -2  13 558.942 244.092   8
  -2   4 -13 296.445 220.789  20
   2  -4  13 860.626 315.542  14
   4   2 -13 277.841 200.604   9
  -2   4 -13 568.825 219.561  18
   4   2 -13 45.1382 155.998  10
   4  -2  13 566.765 177.558   2
   4   2 -13 236.199 161.510   1
   2   4 -13 534.262 300.342  10
  -2   4 -13 725.985 454.139   7
  -2  -4  13 340.310 144.027  17
  -4   2 -13 108.134 92.1886  10
  -4  -2  13 461.117 242.365  17
   4  -2  13-14.2815 139.274  14
  -4   2 -13 100.453 111.013  20
  -4   2 -13 69.9164 90.5990  19
  -2  -4  13 28.3861 140.069   6
  -2   4 -13 1038.53 387.419  10
   4   2 -13 154.537 86.3719  14
  -2  -4  13 478.525 242.739   2
  -4   2 -13-15.6042 162.947   9
   2  -4  13 681.650 311.950  16
  -2   4 -13 467.309 363.907  15
  -4  -2  13 497.133 295.893  16
  -4  -2  13 519.864 231.305   2
   2   4 -13 290.543 148.040   1
   4  -2  13 598.463 297.061   6
   2  -4  13 1142.21 277.891  17
   4  -2  13 566.645 270.978  16
   2  -4  13 995.887 403.936   6
   2   4 -13 383.839 172.159  11
   4  -2  14 91.5781 156.098   6
  -2   4 -14 492.404 282.186   9
   2  -4  14 197.779 165.213  16
  -4   2 -14-43.4966 93.3718  10
   4  -2  14-9.38344 49.5122   2
   2   4 -14-60.3857 62.0729  11
  -4   2 -14 36.4223 53.4332  19
  -2   4 -14 30.0599 57.6527  15
  -2   4 -14-7.35395 29.3904  18
  -2   4 -14-21.8282 54.5090  11
   4   2 -14 115.354 173.497   9
   4   2 -14-174.978 371.539  10
   2   4 -14-24.6452 22.5047  10
   4   2 -14-85.1847 153.391  11
  -4  -2  14 83.9623 93.6096   5
  -2  -4  14-28.6968 20.8590   2
  -2   4 -14 9.40062 28.3838  20
   2  -4  14 26.4724 43.5056   8
  -2   4 -14-7.73705 156.470   7
   4  -2  14-68.5106 102.994  16
  -4  -2  14-14.4293 48.0499  17
  -2   4 -14 159.898 151.054  10
   2   4 -14 5.07989 26.7871  18
  -2  -4  14 3.45049 12.0323  17
  -2   4 -14 70.7289 48.2699  19
   4  -2  14-3.37265 50.6691   8
  -2  -4  14 113.085 153.911  16
   2   4 -14-32.8946 81.4947   1
   2  -4  14-61.0342 131.930  14
   2   4 -14 616.130 352.187   9
   2  -4  14 35.8426 99.5893   6
  -2  -4  14 100.918 177.017   6
   4   2 -14 21.2590 74.2894  18
   2  -4  14 77.9453 69.1425  17
  -4  -2  14-14.3931 72.0557  16
   4   2 -14 22.9163 87.1818   1
  -4  -2  14 24.5323 103.696   2
  -2  -4  14 42.5860 68.4320   5
   2   4 -14 116.315 173.556  20
  -4   2 -14-29.1036 127.365  20
   2  -4  14-7.15801 20.1031   2
   4   2 -14 30.5696 42.7922  14
   2   4 -15 711.446 320.384   9
  -4   2 -15 78.5349 126.151  19
  -2  -4  15 94.5790 153.475   6
  -2   4 -15 345.282 149.739  11
   2   4 -15 150.359 104.133  20
  -4   2 -15-273.413 353.608  10
   2   4 -15 412.664 181.968  18
  -2   4 -15 380.590 165.777  18
   2  -4  15 674.650 374.550   6
   2  -4  15 798.923 357.827  16
  -2   4 -15 217.581 206.478  20
  -4  -2  15 735.073 247.732   5
   4  -2  15 595.083 342.640   6
  -2  -4  15 568.168 336.287  16
   4   2 -15 221.761 174.283  11
  -2   4 -15 348.424 222.222  10
   4   2 -15 371.572 224.004  18
   2  -4  15 766.201 288.925   2
  -2  -4  15 698.159 268.030  17
   2   4 -15 546.453 282.374  10
   4  -2  15 904.184 421.757  16
   2   4 -15 376.633 197.219   1
   2  -4  15 873.222 221.812   8
  -2  -4  15 585.402 280.581   2
   4   2 -15 213.508 96.1346  14
  -4  -2  15 557.866 286.213   2
   2  -4  15 813.721 270.611  17
  -2   4 -15 438.663 215.854   9
  -2   4 -15 425.469 143.245  19
   4  -2  15 587.110 287.892   8
   4   2 -15 280.479 176.711   1
  -4  -2  15 884.815 365.212  17
  -2   4 -15 168.298 52.6527   7
  -4  -2  15 744.507 413.686  16
   2   4 -15 438.471 163.028  11
   2  -4  15-59.4805 132.544  14
  -4   2 -15-135.983 247.681  20
  -2   4 -15 190.131 132.412  15
   4  -2  15 774.338 242.643   2
  -2  -4  15 665.202 220.460   5
   4   2 -15-66.2232 415.916  10
  -4  -2  16 242.067 231.124  16
   2   4 -16 128.023 71.9818   1
   4   2 -16-772.701 733.560  10
   4   2 -16 28.0620 46.6873  14
   2  -4  16 175.917 167.047   6
   4  -2  16 128.154 195.160   6
   4  -2  16 231.864 120.868   2
   2   4 -16 201.294 155.274  11
  -2  -4  16 144.789 60.9477   8
   4   2 -16-215.073 378.215   9
   2  -4  16 235.032 125.599  17
  -4  -2  16 98.8641 83.3244   5
   2  -4  16 244.208 144.959   8
  -2   4 -16 168.779 92.2749  19
   4   2 -16 145.939 157.327  11
   2   4 -16 47.2290 39.4942  18
   4  -2  16 216.972 163.712   8
  -2  -4  16 248.204 157.022   5
  -2   4 -16 207.559 151.868  11
  -2   4 -16 125.251 146.758  20
   2  -4  16 348.422 213.300   2
  -2   4 -16 63.8734 62.6719  18
  -2   4 -16 86.9441 173.595  10
   2   4 -16 183.644 206.261  20
  -4   2 -16 169.181 161.859  19
  -2  -4  16 12.9389 103.926   6
  -2   4 -16 75.3744 79.7316   9
  -4   2 -16-509.714 508.526  10
   2   4 -16 141.472 167.833   9
   2   4 -16 114.817 100.243  10
   2  -4  16 390.198 315.105  16
   4   2 -16 76.9151 69.7720   1
   4  -2  16-11.4913 128.777  16
  -2  -4  16 374.364 263.132  16
   4   2 -16 122.815 153.020  18
  -2  -4  16 158.252 94.2077  17
  -2  -4  16 203.899 195.394   2
  -4  -2  16 186.105 159.536  17
  -4  -2  16 143.935 129.602   2
  -2  -4  17 1142.96 414.923   2
   4   2 -17 312.563 243.761  11
  -4  -2  17 1152.92 428.080  17
  -4  -2  17 1149.87 312.591   5
   2   4 -17 667.863 293.732  11
   2   4 -17 381.481 200.492   1
  -2   4 -17 274.625 125.451  11
   2  -4  17 1060.79 286.200   8
   2   4 -17 594.616 328.310   9
  -2   4 -17 195.584 208.654  20
  -2   4 -17 434.387 231.607   9
  -2   4 -17 320.598 279.889  10
  -2  -4  17-74.3230 154.469   6
   2   4 -17 586.973 383.718  10
  -4   2 -17-6.08489 79.5646  19
   2  -4  17 1256.62 446.247  17
  -2  -4  17 853.554 338.073  17
   2  -4  17 1186.64 398.607   2
   4  -2  17 1177.54 443.430   8
   2  -4  17 1149.24 512.977  16
   2   4 -17 436.268 294.643  20
  -2  -4  17 1224.55 501.570  16
  -4  -2  17 1149.07 431.789   2
  -2   4 -17 353.214 144.736  19
   4  -2  17 1057.12 465.982   6
  -4  -2  17 1259.27 619.303  16
   4  -2  17 1192.86 347.333   2
   2   4 -17 476.192 253.513  18
   4  -2  17 1295.90 582.690  16
   2  -4  17 968.881 405.742   6
  -2  -4  17 994.537 272.465   5
   4   2 -17 233.062 175.981   1
  -2  -4  18 2325.91 424.092   5
   4   2 -18 314.943 216.450   1
   2  -4  18 2868.96 831.615  16
   2  -4  18 2844.64 614.975   2
  -4  -2  18 2793.88 963.359  16
  -2   4 -18 703.131 272.581  11
   2  -4  18 2727.63 471.414   8
   2   4 -18 458.160 312.762  20
  -2   4 -18 531.638 258.575  10
  -2   4 -18 615.029 326.598  20
   2   4 -18 605.838 269.816   1
  -4   2 -18-48.2164 110.226  19
  -2   4 -18 813.260 334.283   9
   4  -2  18 2239.92 697.560   6
   2   4 -18 1105.44 372.739  18
   2   4 -18 628.468 378.693  10
   4  -2  18 2802.18 546.514   2
  -2  -4  18 2419.85 587.164  17
   4  -2  18 2154.55 558.941   8
   2  -4  18 2025.04 694.908   6
   2   4 -18 1016.98 423.308   9
  -4  -2  18 2928.21 522.653   5
  -2  -4  18 2981.17 811.592  16
   4  -2  18 2493.22 768.958  16
  -4  -2  18 2633.08 690.086   2
   2   4 -18 1071.54 347.780  11
  -2  -4  18 2737.59 652.684   2
   4   2 -18 294.216 207.788  11
  -2   4 -18 631.818 204.677  19
   2  -4  18 2928.48 651.877  17
  -4  -2  18 2824.19 709.845  17
  -4  -2  19 380.243 283.749   2
   2   4 -19 636.120 355.461   9
   2   4 -19 235.677 210.608   1
   4   2 -19 36.6245 94.4447  11
   2   4 -19 161.718 181.798  18
   4   2 -19 126.904 106.268   1
   2  -4  19 770.404 313.101   8
  -4  -2  19 549.135 500.185  16
  -2   4 -19 407.104 312.446   9
   2   4 -19 399.415 273.446  11
  -2   4 -19 218.687 206.616  11
  -2   4 -19 96.2740 196.331  10
  -2  -4  19 1341.64 528.061   2
   2   4 -19 380.863 343.727  10
   4  -2  19 418.778 307.100   6
   4  -2  19 776.163 484.554  16
  -2   4 -19 90.2429 179.888  20
  -4  -2  19 294.651 155.193  17
   2  -4  19 676.898 376.381   2
  -2  -4  19 1000.47 466.159  17
   2  -4  19 1113.10 587.270  16
  -2  -4  19 1408.98 732.837  16
   4  -2  19 546.756 347.139   8
  -2  -4  19 0.52031 248.812   6
   2   4 -19 97.2607 205.512  20
  -4  -2  19 379.697 144.950   5
   2  -4  19 623.447 454.719   6
   4  -2  19 635.518 269.167   2
  -2  -4  20 2366.94 673.798   2
  -2   4 -20 383.893 265.175  10
  -2   4 -20 266.549 176.557   9
   2  -4  20 2458.64 602.770   2
   2   4 -20 655.432 317.403   9
  -2  -4  20 2364.38 773.168  16
  -4  -2  20 1972.10 646.281   2
   2   4 -20 530.202 262.719  11
   2  -4  20 1613.87 639.233   6
   2   4 -20-77.2498 315.040  20
  -4  -2  20 2277.06 929.654  16
  -2  -4  20 1938.48 559.344  17
  -4  -2  20 1523.68 486.927  17
  -2   4 -20 210.354 96.7625  11
   4  -2  20 2502.05 551.445   2
  -4  -2  20 2080.94 451.697   5
   2   4 -20 89.1474 173.802  10
   2  -4  20 2263.16 794.133  16
   2  -4  20 2391.93 473.413   8
   4  -2  20 2305.49 821.851  16
   4  -2  20 1202.54 533.247   6
   4  -2  20 1755.99 517.547   8
  -2   4 -20 90.9968 106.919  20
   4   2 -20 331.668 248.177   1
   2   4 -20 401.125 244.513  18
   4   3  -1-24.9552 114.547   1
   4  -3   1-4.24106 141.353   8
  -4   3  -1 135.674 81.3002  19
   4  -3   1 43.4003 84.4553  14
   4   3  -2 667.981 295.441   1
  -4   3  -2 1534.05 330.813  12
  -4   3  -2 1885.34 346.157  19
   4  -3   2 1283.77 303.317  14
   4   3  -2 904.654 327.838  13
   4  -3   2 938.959 272.436   6
   4  -3   2 1104.69 281.480   8
   3   4  -3-51.7196 276.064  13
   4   3  -3 46.1890 96.6121   1
   4  -3   3 69.2223 47.2129   6
  -4  -3   3-118.643 182.943   2
  -3   4  -3 35.9949 102.754  12
   4   3  -3 153.506 156.292  18
  -4  -3   3 53.2272 171.118  17
  -4   3  -3 121.257 98.8686  19
  -4   3  -3 75.2451 45.5017  12
   4   3  -3 105.936 129.004  13
   4  -3   3 49.8060 53.9576   8
  -4   3  -3 126.695 112.775   3
   4  -3   3 53.4369 51.4832  14
  -3   4  -4 997.648 256.025  12
  -4   3  -4 1154.44 310.229   3
  -4   3  -4 881.482 214.158  12
   4   3  -4 1413.21 379.120  18
  -3   4  -4 1003.17 315.777   3
   4  -3   4 885.865 229.808   6
   4  -3   4 830.191 208.415  14
  -4   3  -4 908.302 201.963   4
  -4  -3   4 475.458 271.927  17
   3   4  -4 1148.74 398.848  13
  -4   3  -4 971.892 222.118  19
   4  -3   4 711.611 186.447   8
  -4  -3   4 484.361 201.362   2
   3  -4   4 342.987 49.2422   8
   4  -3   4 752.339 179.718   1
   3  -4   4 383.984 174.887   6
  -4   3  -4 754.583 170.349   5
   4   3  -4 959.669 250.296  13
   4   3  -4 1171.28 430.911   1
   4   3  -5 2446.40 367.825  13
   4   3  -5 2553.79 317.145   8
  -3   4  -5 2794.71 402.884  12
   4   3  -5 2512.24 512.740   1
  -3  -4   5 616.519 212.023   2
  -4   3  -5 2379.54 324.120   4
  -3   4  -5 3091.81 518.907   3
   4   3  -5 2718.16 369.371   3
   4   3  -5 2626.22 451.851  18
  -4  -3   5 1523.73 302.341  19
  -3  -4   5 632.363 313.679  17
   4  -3   5 2338.46 335.606   8
  -3   4  -5 3239.22 532.244  19
  -4  -3   5 1668.73 419.452  17
   3   4  -5 2432.94 534.178  18
   4  -3   5 2372.49 278.480   1
  -4   3  -5 2628.62 351.416  19
   3   4  -5 3292.26 571.673  13
  -4   3  -5 2787.97 436.428   3
   3  -4   5 1726.18 378.120   8
   3  -4   5 1827.58 365.150   6
  -4   3  -5 2449.25 352.563  12
  -4  -3   5 1667.71 360.623   2
  -4   3  -5 2425.03 282.751   5
  -4  -3   5 1107.79 254.424  16
  -4   3  -5 185.778 134.058  13
   4  -3   5 2500.48 375.787   6
   4  -3   5 2548.74 344.990  14
   4  -3   5 2253.48 514.452  16
   3  -4   5 1785.24 386.518  14
  -4   3  -6 44.5017 79.4057  12
  -3  -4   6 1.18487 11.1437   6
   3   4  -6 8.66642 42.9952  13
   3  -4   6-14.2645 54.4631   8
   4   3  -6-1.66869 10.9257   1
  -4   3  -6 57.6117 97.8290  13
  -3   4  -6 19.5592 46.3361  12
  -4  -3   6 18.3635 10.9353   2
  -3   4  -6-0.68710 59.8595  19
  -3  -4   6-20.9384 65.4051   2
   4   3  -6 12.3310 33.6586   8
  -4   3  -6 27.7901 48.9396  19
   4  -3   6 11.0135 26.5198   6
  -3   4  -6 23.8502 97.0944  13
   4  -3   6 5.68069 22.1214   1
   3   4  -6 18.9123 98.5240  18
  -4   3  -6-9.30792 31.0939   5
   4   3  -6 49.8440 91.1306  18
   4  -3   6-7.10973 20.0314  16
  -4  -3   6-44.6776 72.1689  16
  -4   3  -6 17.1836 47.4707   4
  -4  -3   6 12.7917 51.2705  17
  -3   4  -6 55.6035 84.3181   3
   3  -4   6 27.9367 62.7754   6
   4  -3   6 24.1863 50.9975   8
  -4  -3   6 19.8007 56.5209  19
  -3   4  -6-24.6894 62.2676   4
  -4   3  -6 21.4187 56.5988   3
   3   4  -6-43.9936 56.0893   1
   4  -3   6 23.9646 50.0232  14
   3  -4   6 4.79978 33.5251  14
   4   3  -6-7.76150 7.54983   3
  -4  -3   6 10.1579 14.2525   5
   3   4  -6 1.23930 29.7396   3
  -3  -4   6 48.8742 135.901  17
   4   3  -6 24.8133 52.9208  13
   4   3  -7 5372.04 498.095  12
   4   3  -7 3670.88 440.945  13
  -4   3  -7 3692.29 377.202   5
  -4  -3   7 3233.88 555.419  17
  -3   4  -7 3753.40 462.024  12
  -3   4  -7 3969.44 787.518  13
   4   3  -7 4315.49 392.843   3
   4   3  -7 3860.40 581.319   1
   3  -4   7 3610.65 504.176   6
   3  -4   7 3217.58 632.998  16
   4  -3   7 4233.15 326.438   1
  -4  -3   7 3415.03 490.356   2
  -4  -3   7 3567.90 322.572  19
  -3   4  -7 4009.20 333.957   5
   3   4  -7 5275.50 542.597   3
  -3   4  -7 3875.70 397.074   4
   4   3  -7 4114.94 533.627  18
  -4   3  -7 3325.92 482.928   3
   4  -3   7 3869.51 446.257   8
  -4   3  -7 3702.79 427.778  19
  -3  -4   7 2954.72 596.006  17
  -4   3  -7 3751.04 446.029   4
   4   3  -7 3803.23 246.611   8
  -3  -4   7 3133.27 344.616   6
  -4   3  -7 3197.03 438.364  12
   3   4  -7 4749.13 655.975  18
  -4  -3   7 3396.02 450.822  16
  -4  -3   7 3338.39 567.391   5
  -3   4  -7 5448.71 590.018  19
   3  -4   7 3552.81 444.575   8
   3   4  -7 4098.46 543.802  13
   3  -4   7 3898.53 440.251  14
  -4   3  -7 3075.80 537.097  13
   4  -3   7 4773.03 686.839  16
   3   4  -7 1992.72 490.190   1
   4  -3   7 4477.23 529.874   6
   4  -3   7 3812.70 404.645  14
  -3  -4   7 2516.43 461.391  16
  -3   4  -7 4612.37 592.786   3
  -3  -4   7 2694.66 521.604   2
   4  -3   8 825.357 244.375   6
  -4   3  -8 626.947 221.205  12
   4   3  -8 762.963 119.488  12
   3   4  -8 988.172 204.355  12
   3  -4   8 746.424 301.913  16
  -3   4  -8 758.136 128.406   5
   4   3  -8 918.492 268.595  11
   4   3  -8-12.0691 73.7095  14
  -3   4  -8 753.323 180.246   4
   4  -3   8 913.207 210.082   1
   4   3  -8 552.668 219.621  20
  -3  -4   8 644.784 267.418  17
  -4  -3   8 752.916 256.442   5
   3  -4   8 835.059 248.990   6
  -4   3  -8 640.618 219.233   3
  -4  -3   8 694.834 247.867  17
   3   4  -8 813.665 213.702   3
  -4   3  -8 681.244 211.662   4
  -4   3  -8 746.045 202.472   5
   3   4  -8 789.852 258.060  18
  -3   4  -8 708.440 296.986  13
   3  -4   8 867.490 203.844  17
  -3  -4   8 604.630 261.788   2
  -3  -4   8 467.300 198.051  16
  -4  -3   8 706.528 220.316  16
   3   4  -8 649.009 288.747   1
  -4   3  -8 631.012 180.727  19
  -3   4  -8 908.384 232.765  19
   4   3  -8 717.358 254.068   1
   4   3  -8 749.510 229.718  18
   4  -3   8 968.913 302.624  16
  -3  -4   8 526.467 121.048  19
  -3   4  -8 802.311 163.127  18
  -4   3  -8 473.161 173.118  13
   3  -4   8 733.893 198.147   8
  -4  -3   8 732.076 138.357  19
   3   4  -8 642.653 207.282  13
   4  -3   8 647.988 186.449   8
  -3   4  -8 771.689 234.866   3
  -3  -4   8 511.740 159.775   6
   4  -3   8 789.560 189.698  14
   3  -4   8 724.109 173.071  14
  -4  -3   8 689.140 230.821   2
   4   3  -8 776.490 175.859   3
  -4  -3   8 35.3722 46.4567   6
  -3   4  -8 713.397 202.225  12
  -4  -3   8 271.570 106.587   4
  -4   3  -8 731.462 121.561  11
   3   4  -9 1297.47 321.534  13
  -3   4  -9 1817.71 304.431  19
   4  -3   9 1530.21 366.500   2
  -3   4  -9 1467.45 298.364  12
  -4  -3   9 1610.94 369.152   5
  -3   4  -9 1529.62 207.511   5
   3   4  -9 1668.45 237.029  12
  -4   3  -9 1608.58 219.855  11
  -3   4  -9 1386.19 179.245  18
   3  -4   9 1680.52 434.870  16
   4  -3   9 2088.35 468.467  16
  -3  -4   9 1150.89 321.666  16
   4   3  -9 1419.03 316.664  18
  -4   3  -9 1240.12 269.732  19
   3   4  -9 1648.59 357.914  18
   4   3  -9 1977.79 462.092  10
   3   4  -9 1686.78 303.272   3
  -4   3  -9 1181.97 324.924   4
   4   3  -9 1656.74 360.466  11
  -3  -4   9 1445.48 367.861   2
  -4   3  -9 930.097 283.905   5
   4  -3   9 1882.71 391.366   6
  -4   3  -9 959.208 268.274  13
   4  -3   9 1561.38 304.613   8
   3  -4   9 1365.83 267.328   8
  -4  -3   9 1522.61 373.998  17
  -3  -4   9 1025.20 243.736   6
  -4  -3   9 1332.74 312.500  16
   4   3  -9 1511.52 177.118  12
  -3   4  -9 1324.94 376.315  13
   3   4  -9 1274.31 426.157   1
   4   3  -9 1195.86 320.884   1
  -4  -3   9 1494.15 342.851   2
  -3  -4   9 1475.62 409.022  17
   4  -3   9 2137.07 325.632  17
   3  -4   9 1760.08 226.740  17
  -3   4  -9 1406.10 331.360   3
   3  -4   9 1697.43 355.289   6
  -4  -3   9 1348.85 219.122  19
   4  -3   9 1715.40 297.061  14
   3  -4   9 1478.45 241.705  14
  -3   4  -9 1571.92 284.825   4
   4   3  -9 1252.18 348.904  20
  -4   3 -10 359.320 265.464   7
   4   3 -10 71.3244 99.1407  20
  -4   3 -10 253.629 164.003  10
  -3   4 -10 49.5419 97.9114  13
   4   3 -10-45.6921 84.5688  14
   4   3 -10 81.5352 88.7418  18
   4   3 -10 153.131 156.622  10
  -4  -3  10 112.671 122.683   5
   4  -3  10 100.933 75.6108   8
  -4  -3  10 41.7092 74.2458  17
   3  -4  10-103.285 206.199   2
   4   3 -10 101.557 117.741  11
   3   4 -10 93.6606 42.9001  12
   4  -3  10 219.349 155.885   2
   3  -4  10 157.576 77.3608  17
  -3   4 -10 68.2680 45.1314   4
  -3   4 -10 85.8722 50.5518  18
   3   4 -10 84.9284 116.147  13
   4   3 -10 129.848 112.893   1
  -3   4 -10 123.535 99.0118   5
  -4  -3  10-52.8384 119.809   6
  -4   3 -10 107.074 133.130   4
  -3   4 -10 120.912 91.7246  19
  -3   4 -10 59.7486 78.8065   3
   4  -3  10-148.729 411.342  17
   3   4 -10 77.6047 94.1961  18
  -3  -4  10 113.151 134.336  16
   3  -4  10 123.489 84.6617  14
  -4   3 -10 108.231 68.5207  11
   3   4 -10 241.368 228.541   7
   4  -3  10 93.3472 70.6405  14
  -4   3 -10 92.3318 94.4380  20
   3   4 -10 60.1965 63.2213   3
  -3  -4  10 132.470 144.302  17
  -3  -4  10 81.1675 120.642   2
  -3   4 -10 120.621 105.169  12
   3   4 -10 133.839 135.873  11
  -4  -3  10 129.816 93.0649   4
   3  -4  10 173.337 106.741   8
  -3   4 -10 177.997 81.5333  11
   3  -4  10 258.510 216.761  16
   3   4 -10 123.274 104.142  15
  -4   3 -10 346.265 292.699  15
   3   4 -10 138.876 127.372   1
  -4   3 -10 97.4989 72.9981  19
  -4  -3  10 87.6034 76.2089  16
   4  -3  10 123.913 83.6376  16
  -4  -3  10 48.5457 53.7213   2
  -3  -4  10 114.334 151.303   6
   4  -3  10 89.2272 85.9127   6
   3  -4  10 303.610 197.255   6
   3   4 -11 180.516 117.733  11
  -3   4 -11 277.093 129.687  19
  -3   4 -11 164.120 210.552  13
   3   4 -11 167.296 178.738  20
   3   4 -11 163.391 77.5540  12
  -3   4 -11 202.099 212.649   3
   4  -3  11 206.020 167.715  16
   3   4 -11 136.923 65.4803  18
   3  -4  11 253.351 106.310  14
   3  -4  11 154.961 173.113   6
   4   3 -11 294.593 254.358   9
   3  -4  11 117.980 27.7861   2
  -3   4 -11 159.603 100.445  11
  -4   3 -11 18.4373 94.5923  11
  -4   3 -11 135.016 150.680  10
  -3  -4  11 190.451 126.330  16
   4   3 -11 162.018 122.903   1
  -4  -3  11 115.566 99.4163  17
  -3   4 -11 179.160 65.7245  18
   3  -4  11 219.554 113.568   8
  -4  -3  11 145.177 94.6866   2
  -4   3 -11 79.8301 83.4147  19
   4   3 -11 4.78075 169.927  10
  -3  -4  11-7.09537 51.4814   6
  -4   3 -11-120.823 294.830   4
   4   3 -11 92.1932 19.6358  11
   3   4 -11-111.860 416.476  15
  -3   4 -11 150.470 90.5204   4
  -4  -3  11 165.066 86.6697   4
   3  -4  11 81.2455 59.6813  16
   4   3 -11 111.413 29.0830  18
  -4  -3  11 128.532 129.324  16
   4  -3  11 141.943 85.8727   2
  -3  -4  11 118.630 118.391   2
   3   4 -11-210.474 334.448   7
   3   4 -11 172.379 125.239   3
  -3   4 -11 401.896 245.127  12
  -4   3 -11 267.926 212.867   7
   4  -3  11 199.782 126.160   8
   4   3 -11 23.8241 57.5188  20
  -4  -3  11 128.659 99.5431   5
  -4   3 -11 174.299 168.877  15
   4  -3  11 178.818 111.311  14
   4   3 -11-56.7360 72.9247  14
  -4   3 -11 35.9499 36.2743  20
   3  -4  11 120.243 38.3184  17
  -3  -4  11 57.1357 13.3698  17
   3   4 -11 127.896 137.728   1
  -4   3 -11 385.450 233.209   9
   4  -3  11 129.914 52.6774   6
   3   4 -12 594.126 196.303  12
  -3  -4  12 1080.06 502.785   5
  -3  -4  12 802.276 345.003   2
   4   3 -12 463.092 211.958  11
  -4  -3  12 760.340 267.398   5
   4  -3  12 1090.73 313.862   2
   3   4 -12 1234.70 508.196  10
  -4  -3  12 924.255 351.807   2
  -3  -4  12 696.682 340.642  16
  -4  -3  12 948.207 340.590  17
   3   4 -12 618.599 221.803  11
  -4  -3  12 593.426 152.067   4
   4   3 -12 372.473 269.830  10
   3   4 -12 755.658 267.344  18
   4  -3  12 1912.60 404.158   8
   4   3 -12 434.558 193.554  18
  -4   3 -12 599.943 285.206  20
   4   3 -12 350.204 345.329  20
   4  -3  12 1111.48 429.753  16
  -4   3 -12 1115.57 570.026  15
   4   3 -12 343.978 199.958   1
   3   4 -12 692.732 354.071  20
   3   4 -12 337.269 223.719   1
  -4   3 -12 668.423 406.428   7
  -4   3 -12 1870.53 372.945  19
   4  -3  12 1682.91 470.519  14
   4   3 -12 780.754 348.365   9
   4   3 -12 86.0092 129.715  14
   3   4 -12 239.875 86.6531   3
  -4  -3  12 709.937 294.231  16
   4  -3  12 1303.02 402.543   6
  -3  -4  12 924.081 607.462   6
   3  -4  13 57.7347 53.8809  14
   4   3 -13 54.2038 115.622   9
  -4   3 -13 66.1702 22.4473  19
  -4  -3  13 35.1285 32.9080  17
   3   4 -13 196.518 143.899  12
  -4   3 -13-104.502 209.936   7
   4   3 -13-60.8954 103.162  20
   3   4 -13-10.7977 65.0713  10
  -4   3 -13 179.083 178.539  10
  -3  -4  13 35.1388 79.7897   5
   4   3 -13 8.95065 31.5233  14
   3   4 -13 58.6576 87.9018  11
  -3  -4  13-44.3857 91.2394  17
   4   3 -13-57.7109 121.014  11
  -3   4 -13 81.2309 121.231  20
  -3   4 -13 132.505 90.7489  11
   4   3 -13-75.5097 92.4520  18
  -4   3 -13-42.4949 70.1142  20
  -3  -4  13 105.870 128.518   2
   3   4 -13-38.0504 70.4677   1
   3   4 -13 106.938 163.893  20
  -4   3 -13-85.6648 170.459  11
  -3   4 -13 192.224 235.997  15
   3  -4  13-72.6517 65.2283   8
  -4   3 -13-150.894 288.760  15
  -3   4 -13 25.8207 42.5031  18
   4  -3  13-53.4236 71.4526   2
   3   4 -13 6.61657 19.1253  18
  -4  -3  13 18.2391 25.4033   4
   3  -4  13 54.4906 63.6958  17
  -4  -3  13 130.488 148.388  16
  -3   4 -13 144.135 148.956  10
   3  -4  13 62.1288 72.2355   6
  -4  -3  13 117.854 120.128   5
  -4  -3  13 10.2667 50.0595   2
  -3   4 -13-9.58170 55.0891  19
  -3   4 -13 155.468 192.144   7
   4  -3  13 14.8285 54.6899   6
   3  -4  13-81.8917 139.052  16
  -3  -4  13 53.5247 59.8709  16
   4  -3  13-2.15961 56.9529   8
  -3  -4  13 109.916 115.403   6
   4  -3  13 121.905 116.556  14
  -4   3 -13 127.949 169.651   9
   4   3 -13-32.8547 75.5132   1
   4  -3  13 24.9117 80.1660  16
   3  -4  13-30.1197 81.2277   2
   4   3 -13 37.4928 193.232  10
  -4  -3  14 472.288 203.092   5
  -4   3 -14 107.564 75.1095  10
  -3  -4  14 300.757 211.980  16
  -4   3 -14 131.576 95.2457  19
  -4   3 -14 122.386 107.956   9
   4  -3  14 461.125 189.172   8
  -4  -3  14 402.861 225.811   2
   3   4 -14 297.724 151.918  11
   3   4 -14 163.044 132.427   1
  -3  -4  14 527.926 248.301   5
  -3  -4  14 24.4063 48.2096   6
   4   3 -14 384.012 220.452  11
  -3   4 -14 397.788 161.083  11
   3   4 -14 212.056 175.942  20
  -3   4 -14 178.510 163.416  20
  -4   3 -14 23.4772 62.4224  20
   4   3 -14-43.9366 51.3775  14
  -3  -4  14 487.187 255.589   2
   4   3 -14 246.130 185.651  10
   4   3 -14 381.388 254.097   9
   3  -4  14 406.691 193.842   2
  -4  -3  14 487.651 277.858  16
  -4  -3  14 349.879 101.827   4
  -4   3 -14-819.333 438.493   7
  -3   4 -14 262.115 134.570  10
   4   3 -14 256.059 163.210  18
  -4   3 -14-151.832 335.398  15
   3  -4  14 588.770 192.809  17
  -4  -3  14 352.944 192.466  17
   4   3 -14 147.201 133.073   1
   3  -4  14 489.199 173.256   8
   4   3 -14 30.9964 107.006  20
  -3   4 -14 165.679 194.495   7
  -3   4 -14 260.298 119.928  19
   4  -3  14 610.480 332.657  16
  -3   4 -14 240.770 124.353  18
   3  -4  14 437.004 271.442  16
   3  -4  14 503.030 228.944  14
   4  -3  14 436.448 195.455   2
  -3   4 -14 690.239 304.196   9
  -3   4 -14 565.426 407.350  15
   3   4 -14 717.342 372.655   9
   4  -3  14 307.291 214.154  14
   3   4 -14 291.093 154.835  18
   4  -3  14 459.867 280.190   6
   3   4 -14 252.236 229.570  10
   3  -4  14 321.110 220.522   6
  -3  -4  14 439.447 211.344  17
   4  -3  15 57.9851 171.544  16
  -4   3 -15-82.0154 75.2645  10
   3   4 -15 214.943 213.657  20
   3   4 -15 119.262 221.582   9
  -4  -3  15 172.649 188.147   2
  -4  -3  15-73.0878 59.2119  17
  -4  -3  15 20.2435 50.0173   5
   3   4 -15-23.2576 34.4750   1
   3  -4  15 91.8038 79.3982   8
   3   4 -15-2.50375 31.9706  18
  -3  -4  15 43.2505 85.8778   5
   4   3 -15 18.2463 74.2387  11
   3   4 -15 2.89165 83.4180  11
   3  -4  15 11.9200 75.3612   2
  -3  -4  15 32.7730 27.6430  17
  -4   3 -15 3.89865 48.2886  20
   4  -3  15 1.90294 70.4428   2
  -3   4 -15-169.224 281.251   7
   3  -4  15 82.7412 137.633   6
  -3   4 -15 92.8763 169.196   9
   4  -3  15 0.71092 74.2610   8
  -3   4 -15-64.5070 207.070  15
  -4   3 -15 158.110 166.805  19
   4   3 -15-102.504 244.554  20
   4   3 -15 51.7545 40.1837   1
   3   4 -15 71.0576 130.321  10
   3  -4  15 20.9231 57.0841  17
  -4  -3  15 32.8019 37.4469   4
   3  -4  15 33.1488 50.3845  14
   3  -4  15 80.6372 127.253  16
  -3  -4  15 37.6142 122.715  16
  -3  -4  15-51.6331 129.948   6
  -4  -3  15 121.446 172.960  16
  -3   4 -15 37.5452 51.3673  11
  -3   4 -15 50.2033 77.1901  19
   4  -3  15 61.3042 117.551  14
   4   3 -15 9.00493 46.0202  18
   4   3 -15 12.7897 29.8596  14
  -3  -4  15 55.6905 126.142   2
  -3   4 -15 64.5106 91.1928  10
  -3   4 -15 54.1128 126.177  20
  -4   3 -15-16.1188 46.7653   9
   4   3 -15 195.505 226.263   9
   4  -3  15 141.318 158.888   6
   4   3 -15-159.310 142.836  10
  -3  -4  16 88.9568 113.500  17
  -3   4 -16 62.9596 91.2913  10
   4   3 -16 208.689 253.288   9
  -4   3 -16 39.3116 54.1961   9
  -4   3 -16 169.367 161.077  19
   4   3 -16 95.3352 123.461  11
  -4   3 -16 36.5041 79.6863  20
  -3   4 -16-2.93146 78.2737  11
   3   4 -16 28.6302 58.9099   1
   3   4 -16 126.540 59.2910   9
  -4  -3  16 73.4798 55.2623   5
  -3  -4  16 137.339 80.4296   2
  -3   4 -16-242.600 494.087  15
   3  -4  16 371.368 313.052  16
  -3   4 -16 30.2379 78.7084  20
   4  -3  16 174.400 161.485   2
  -3  -4  16 124.596 237.773  16
  -4   3 -16 57.6671 112.680  10
   4  -3  16 314.374 303.192  16
  -3   4 -16 145.356 109.355   9
  -4  -3  16 90.5390 57.0779   4
   4   3 -16-103.652 238.527  10
  -3   4 -16-372.727 564.258   7
   3   4 -16-45.6823 147.596  10
   4   3 -16 63.8130 84.3785  18
   3  -4  16-16.6044 249.211  17
   4  -3  16 120.462 83.8142   8
  -4  -3  16 75.8865 154.736  16
  -3   4 -16 53.6734 47.9469  19
   3  -4  16 157.424 136.551   8
   3  -4  16 69.6398 45.7427  14
  -4  -3  16 204.610 148.471   2
  -3  -4  16-35.4601 106.656   6
   3   4 -16 53.7861 72.3276  18
   3   4 -16-49.0479 24.2685  20
  -3  -4  16 291.357 202.649   5
   4  -3  16 114.081 148.937   6
   4   3 -16-228.856 469.129  20
   4   3 -16 44.6176 64.4014   1
   3  -4  16 314.761 238.091   6
  -4  -3  16 50.8756 74.2237  17
   3  -4  16 68.7901 138.854   2
   3   4 -16 66.4524 100.686  11
  -4   3 -17 207.040 151.673   9
  -3  -4  17 1298.59 415.358  17
  -4  -3  17 1654.77 371.481   5
   4   3 -17 301.530 356.991  10
  -3   4 -17 646.336 269.006   9
  -4  -3  17 1893.46 558.845   2
   4  -3  17 1559.24 538.331   6
   3   4 -17 958.971 343.908  11
   4   3 -17 615.745 297.843  11
  -3   4 -17 542.812 219.712  11
   3   4 -17 514.817 288.242  10
   3   4 -17 301.474 151.739  20
  -4  -3  17 1470.02 481.078  17
   4   3 -17-446.427 694.407  20
   3  -4  17 1685.65 629.632   6
  -3   4 -17 704.417 304.452  10
  -4   3 -17 295.176 203.376  10
  -3  -4  17 1500.83 578.175  16
  -4   3 -17 67.9270 164.174  19
   3  -4  17 1888.38 476.414   2
  -3   4 -17 259.723 166.174  20
   4   3 -17 778.494 481.433   9
   3   4 -17 1014.43 419.579   9
   4   3 -17 433.572 234.740   1
   4  -3  17 1736.35 607.098  16
  -3  -4  17 1551.29 500.477   2
  -4  -3  17 1623.90 633.938  16
  -3  -4  17-159.151 240.717   6
   3   4 -17 777.669 321.106  18
  -4   3 -17 249.831 183.810  20
   4  -3  17 1659.24 394.632   2
   3  -4  17 1690.10 578.732  16
   3  -4  17 1640.94 370.131   8
   3   4 -17 384.030 212.474   1
  -3  -4  17 1641.14 387.247   5
  -3   4 -17 484.882 214.425  19
   4   3 -17 567.653 267.778  18
   4  -3  17 1385.32 410.421   8
  -4  -3  18 698.506 235.722   5
   3  -4  18 657.552 262.331   8
   3   4 -18 475.475 330.759   9
   4   3 -18-133.411 268.542   9
   4   3 -18-269.247 351.772  10
  -3  -4  18 794.771 255.828   5
   3   4 -18 288.778 172.962  11
  -4   3 -18 20.3598 171.386  10
   4   3 -18 80.6902 86.2379  11
   3   4 -18 188.411 168.227  18
  -4   3 -18 141.131 147.904  19
  -4   3 -18-174.135 279.419   9
  -3  -4  18 927.497 437.969  16
   3  -4  18 818.969 420.717  16
   3   4 -18 106.440 86.3463   1
   4  -3  18 557.516 324.162   6
  -3  -4  18 706.753 305.244   2
   3  -4  18 734.055 288.253   2
  -3   4 -18 211.361 147.589  11
  -3   4 -18-32.7173 72.4666  10
  -4   3 -18 6.74407 126.474  20
   3   4 -18 87.7201 103.618  10
   4   3 -18 211.950 171.846  18
  -3  -4  18 542.976 284.867  17
  -4  -3  18 435.232 198.629  17
  -3   4 -18-17.9198 119.931   9
  -3   4 -18 135.711 117.050  19
  -4  -3  18 818.951 419.926  16
   3  -4  18 344.941 166.736   6
   4  -3  18 876.137 299.181   2
  -3   4 -18 94.4137 64.8365  20
   4   3 -18 170.214 126.373   1
   4  -3  18 751.600 267.381   8
  -4  -3  18 685.245 358.816   2
   4  -3  18 939.938 492.492  16
   3   4 -18-19.7395 174.186  20
   3   4 -19 780.421 357.591   9
  -4  -3  19 3016.01 527.947   5
   3  -4  19 3049.77 647.726   2
  -3  -4  19 2895.34 701.786   2
   4  -3  19 2857.08 557.776   2
   3   4 -19 494.898 342.544  10
  -4   3 -19-137.094 307.390  20
   3   4 -19 50.6423 286.441  20
   4   3 -19 156.705 69.7267   9
  -4   3 -19 34.6227 76.4323  19
   3   4 -19 687.334 297.337   1
   4   3 -19 645.186 347.311  11
  -4   3 -19 136.114 236.821  10
  -3   4 -19 501.214 224.939   9
  -4  -3  19 3095.28 759.632   2
   4  -3  19 2796.75 611.778   8
   3  -4  19 3210.97 569.504   8
  -4  -3  19 2798.10 702.538  17
  -3  -4  19 2904.31 844.214  16
   3   4 -19 975.568 379.382  18
  -3  -4  19 2278.75 596.897  17
   4  -3  19 3019.11 881.997  16
  -3   4 -19 870.547 351.605  10
   4   3 -19 467.507 264.230   1
  -3   4 -19 336.763 266.688  20
  -4  -3  19 3110.55 910.713  16
   3  -4  19 3050.65 851.322  16
   4  -3  19 2509.78 782.920   6
   3  -4  19 2669.83 838.641   6
   4   3 -19-286.885 551.839  10
   3   4 -19 988.794 384.334  11
   4   3 -19 703.462 329.007  18
   4  -4   3-120.720 180.166   6
   4   4  -3-74.0524 195.289   1
  -4   4  -3-7.23674 68.7436  12
  -4   4  -4 332.472 168.215   3
  -4   4  -4 407.281 172.520  12
   4  -4   4 204.646 138.856   6
   4  -4   4 275.157 162.614  14
  -4   4  -4 484.516 182.720  19
   4   4  -4 152.290 109.287  18
   4   4  -4 107.254 93.1490   1
   4   4  -4 469.793 240.702  13
  -4  -4   4 120.886 147.528  17
   4  -4   4 219.353 144.005   8
  -4  -4   5-110.501 217.665   2
   4   4  -5 3.10121 52.8593  18
  -4  -4   5-28.3414 37.2251  17
  -4   4  -5 0.15306 53.4551  12
   4  -4   5 6.56925 32.3738   8
   4   4  -5 6.69887 41.0018   1
   4  -4   5 1.94678 56.7190   6
   4   4  -5 9.52213 39.5117  13
  -4   4  -5 30.0047 54.5059   3
  -4   4  -5 1.09266 23.5712  19
   4  -4   5 7.15039 57.3889  14
  -4  -4   6 1225.87 367.507   2
  -4   4  -6 2519.86 319.419   5
  -4   4  -6 169.599 100.512  13
  -4   4  -6 3098.92 529.189   3
   4  -4   6 1736.92 285.322   1
   4  -4   6 2412.21 416.565   6
  -4   4  -6 3096.07 458.690  19
  -4  -4   6 1336.02 425.203  17
   4   4  -6 2656.65 434.845   3
  -4   4  -6 2562.45 361.777   4
  -4   4  -6 2358.93 379.667  12
   4  -4   6 1977.55 355.827   8
  -4  -4   6 1297.38 210.328   6
   4   4  -6 2565.00 447.250  13
   4   4  -6 2057.03 546.263   1
   4   4  -6 2881.31 562.837  18
   4  -4   6 2217.41 367.201  14
  -4   4  -7-28.3865 39.5469   3
  -4   4  -7 40.8269 179.882  13
  -4  -4   7-18.1100 11.3267   6
   4   4  -7 7.46585 24.8347  13
   4  -4   7-10.8922 33.0145   1
   4  -4   7 9.63419 43.9233   6
   4  -4   7-58.4639 241.577  16
   4   4  -7 29.9086 46.9397   8
   4   4  -7-8.80579 41.7073   3
  -4   4  -7-31.2998 34.3304   5
  -4   4  -7 34.2211 77.3680  12
  -4  -4   7-7.30498 7.69017   2
  -4  -4   7-53.0469 75.9471  17
   4   4  -7 19.0702 58.5284  18
  -4  -4   7-77.6347 163.438  16
  -4   4  -7 3.05878 40.7124   4
   4  -4   7-1.88415 53.4710  14
   4  -4   7-10.5119 35.7500   8
   4   4  -7 97.0538 181.806   1
  -4  -4   7 7.08684 70.6132  19
  -4   4  -7 19.1574 65.5753  19
  -4   4  -8 2142.95 569.449  13
   4   4  -8 2483.99 408.826  13
  -4   4  -8 2200.50 272.172   5
  -4  -4   8 1936.35 479.012  17
   4  -4   8 2209.49 214.463   1
   4  -4   8 2667.96 595.482  16
  -4  -4   8 1880.68 425.564   2
  -4   4  -8 2345.89 376.716  12
   4  -4   8 2428.15 382.843   8
   4  -4   8 2655.17 445.702   6
  -4   4  -8 2398.32 451.182   3
   4   4  -8 3147.89 410.402   3
  -4   4  -8 2984.47 412.158  19
   4  -4   8 2895.02 317.631  17
  -4  -4   8 1891.00 263.530  19
   4   4  -8 2742.64 490.454  18
  -4  -4   8 1568.39 256.473   6
  -4  -4   8 1765.10 381.008  16
   4  -4   8 2635.26 357.814  14
  -4   4  -8 2609.26 371.721   4
  -4   4  -8 2206.33 227.614  18
  -4   4  -9-4.70505 6.87893  18
   4  -4   9 37.6253 48.7534   8
   4  -4   9 45.7904 93.3519   6
   4   4  -9 70.2722 103.438  15
  -4   4  -9 21.2341 31.5343  12
   4   4  -9-6.62703 46.1895   3
   4   4  -9-9.36498 40.0503  12
   4  -4   9 9.83990 35.8207   1
  -4   4  -9 2.56445 35.4481   5
   4  -4   9 23.2847 34.0538  17
  -4  -4   9 7.00664 20.1213  19
  -4   4  -9-14.3484 42.6574   3
  -4   4  -9 28.8905 50.8679  19
   4   4  -9-58.0310 72.8244  18
   4   4  -9 38.7617 78.6594  13
  -4  -4   9 41.1377 96.2522   2
  -4  -4   9-23.5947 39.6224  16
   4   4  -9 33.9489 143.748   7
   4  -4   9 34.4503 106.197  16
  -4  -4   9 126.631 178.820  17
  -4   4  -9 20.5838 36.3609   4
   4   4  -9 39.2039 96.3663   1
   4  -4   9-27.3799 34.0321  14
  -4   4  -9-62.6668 127.516  13
  -4  -4   9-3.75652 58.5330   6
   4   4 -10 1024.46 281.195  13
  -4   4 -10 969.828 168.883  11
  -4   4 -10 785.980 244.963  12
  -4  -4  10 653.861 130.994  19
  -4  -4  10 832.568 274.522  16
   4  -4  10 1008.97 235.924   8
  -4   4 -10 753.963 300.094  13
   4   4 -10 1296.03 368.159  11
   4  -4  10 1167.81 322.997   6
  -4   4 -10 945.645 137.354  18
  -4   4 -10 932.974 258.656   4
  -4   4 -10 988.066 258.543   5
   4   4 -10 955.664 285.049  18
   4   4 -10 1132.50 186.554  12
   4  -4  10 1069.96 223.430  14
   4   4 -10 1125.99 252.093   3
   4  -4  10 1277.04 410.383  16
   4   4 -10 781.395 310.159   1
  -4  -4  10-5.69098 128.514   6
  -4   4 -10 1063.99 231.355  19
  -4   4 -10 826.843 254.914   3
  -4  -4  10 892.546 299.393  17
  -4  -4  10 914.741 293.730   2
   4  -4  10 1085.85 161.439  17
  -4   4 -11 1697.87 502.159  13
   4   4 -11 516.662 286.171  20
   4   4 -11 272.816 274.360   1
  -4   4 -11 635.046 195.275  11
  -4  -4  11 611.150 357.776   5
   4   4 -11 296.638 209.464  11
  -4   4 -11 1095.42 357.466   4
   4  -4  11 518.354 169.300  14
  -4  -4  11 658.761 330.141   2
   4   4 -11 227.447 118.157  18
  -4  -4  11 1379.00 386.643  17
   4  -4  11 1606.23 544.104   2
  -4  -4  11 1028.77 418.148   6
  -4  -4  11 527.937 285.221  16
   4  -4  11 889.894 394.313  16
   4   4 -11 307.067 68.8104  12
   4  -4  11 1387.19 387.976   6
   4   4 -12 115.884 116.757   3
   4  -4  12 145.159 189.252   2
  -4   4 -12-106.593 184.079   4
  -4   4 -12 41.6859 32.2038  18
   4  -4  12 37.4486 36.3037   8
  -4   4 -12 151.487 171.651  12
  -4  -4  12 198.411 165.694   5
   4   4 -12 149.586 132.348  11
  -4   4 -12 83.4583 90.6871  10
  -4   4 -12 47.5296 67.5034   3
   4  -4  12 101.918 82.7664  16
  -4  -4  12 77.2542 98.5899   2
   4   4 -12 149.086 162.357  20
  -4   4 -12-35.3591 85.3646  19
   4  -4  12 129.553 48.4079  17
  -4   4 -12 261.629 264.957  15
  -4  -4  12 89.0357 119.427  16
  -4  -4  12 41.4178 73.0082  17
  -4   4 -12 263.013 283.862   7
   4  -4  12 177.754 147.093   6
  -4   4 -12 18.4878 43.3965  20
   4   4 -12 186.698 176.497   1
   4   4 -12 103.019 56.6401  12
  -4   4 -12 99.9671 175.512  13
  -4  -4  12 51.2360 37.9545   6
   4   4 -12 118.138 92.3374  18
  -4   4 -12 89.6605 62.8437  11
   4  -4  12 85.9128 72.9259  14
   4   4 -12 213.330 251.209  10
  -4   4 -13 80.9454 92.1641  19
   4  -4  13-40.9735 108.014   2
   4   4 -13-0.19589 23.7210   1
   4   4 -13 86.5586 128.519   3
   4   4 -13 27.0571 127.297  11
  -4   4 -13-5.59904 69.6338  11
  -4   4 -13 47.1127 126.675  10
   4  -4  13 48.2953 86.7377  14
   4   4 -13 8.72439 63.3309  18
   4   4 -13 71.4012 150.329  10
  -4  -4  13 14.7686 70.2361   2
   4  -4  13 73.7013 108.893  17
  -4   4 -13 21.6871 46.9697  20
   4  -4  13 70.8577 173.380  16
  -4  -4  13-97.0418 125.339  16
   4  -4  13 33.3648 29.4587   8
   4   4 -13-8.02659 102.450  20
  -4   4 -13-499.030 451.160   4
  -4   4 -13 56.1642 102.007  13
  -4  -4  13-46.1386 70.6114   5
  -4   4 -13-31.3765 148.935  15
  -4  -4  13-27.2146 92.3073   6
  -4  -4  13-70.8990 112.918  17
  -4   4 -13 143.638 278.218   7
   4  -4  13 50.6656 125.176   6
   4   4 -13 100.620 97.2391  12
  -4   4 -13 174.702 197.039  12
   4   4 -14 318.065 294.294   9
  -4   4 -14 263.548 208.036   9
   4   4 -14 39.5946 92.1605  11
  -4   4 -14-36.3925 104.119  11
  -4   4 -14-42.0349 107.091  20
   4  -4  14-29.7260 21.5245   2
   4  -4  14 136.394 105.174   8
   4   4 -14 87.0797 190.582  20
  -4  -4  14-31.5535 38.8136  16
  -4  -4  14-3.46053 87.6009   5
  -4   4 -14 11.7569 73.5702  10
   4   4 -14 61.0959 92.8929  18
   4   4 -14 109.196 149.542   1
  -4  -4  14 18.4102 18.8292  17
   4  -4  14-143.929 253.325  17
  -4   4 -14-150.090 200.012   7
  -4   4 -14 16.1881 77.7848  19
  -4   4 -14 133.074 221.943  15
   4  -4  14 137.530 175.288  16
  -4  -4  14-59.0078 129.879   6
  -4  -4  14 12.2372 31.5532   2
   4  -4  14 61.6012 124.763  14
   4   4 -14 213.503 230.972  10
   4  -4  14-2.43869 65.4921   6
  -4  -4  15 77.9579 134.490  16
  -4   4 -15 86.6934 85.4151  19
  -4   4 -15-223.752 297.021   7
  -4   4 -15 19.6291 46.2305  11
  -4   4 -15-62.0835 63.3227   9
   4   4 -15 44.7265 69.1599  11
  -4   4 -15 93.0545 151.040  10
   4   4 -15 211.142 227.660  10
  -4  -4  15-49.7911 46.9608   2
  -4  -4  15 35.3745 83.8245   5
   4  -4  15 41.0628 74.2563   8
   4   4 -15-18.2237 123.585   9
  -4  -4  15-47.9336 115.011  17
   4   4 -15 133.030 132.702   1
   4  -4  15 33.7736 138.190   2
   4   4 -15-105.211 168.649  20
   4  -4  15-19.7413 77.4074  16
   4   4 -15 40.3169 90.6814  18
   4  -4  15 65.6644 163.891  14
   4  -4  15-8.90780 83.2983   6
  -4   4 -15 133.017 158.297  20
  -4   4 -15-71.8548 258.227  15
  -4   4 -16 113.831 92.3792  19
   4  -4  16 351.144 198.899   8
  -4   4 -16 215.537 199.773  10
  -4  -4  16 224.168 176.105  17
  -4   4 -16 114.787 108.290   9
   4   4 -16 342.752 230.664  11
  -4  -4  16 326.351 201.489   5
  -4   4 -16 202.363 179.413  11
   4   4 -16 322.830 286.864  10
   4   4 -16-28.9291 140.588  20
   4   4 -16 292.285 191.947  18
   4  -4  16 406.619 242.523   2
  -4   4 -16-466.998 573.400  15
   4   4 -16 399.113 287.188   9
  -4   4 -16-532.764 382.744   7
  -4  -4  16 303.692 242.916  16
  -4   4 -16 208.371 185.474  20
   4  -4  16 467.393 304.841  16
   4  -4  16 279.363 246.128  14
   4   4 -16 238.604 188.602   1
   4  -4  16 439.918 326.321   6
  -4  -4  16 364.253 256.959   2
  -4  -4  17 114.932 164.298   2
   4   4 -17-75.7365 155.638  11
  -4  -4  17 190.455 201.502   5
  -4   4 -17 36.2261 84.7036  10
  -4   4 -17-29.3720 61.4746  11
   4  -4  17 51.5213 172.098  16
   4   4 -17 6.75899 47.7592  18
  -4   4 -17-4.23515 78.9160   9
  -4  -4  17 8.99845 95.6083  17
   4  -4  17 7.64156 43.9493   8
   4   4 -17-8.99248 66.3141  20
   4  -4  17 4.40917 159.316   2
  -4   4 -17-26.5004 65.2072  19
   4   4 -17-17.0187 104.979  10
   4   4 -17 208.047 218.777   9
   4  -4  17-46.7701 117.044   6
  -4   4 -17 16.8855 39.8291  20
   4  -4  17-11.0248 132.492  14
  -4  -4  17 30.6134 88.2303  16
   4   4 -17 100.218 137.115   1
  -4  -4  18 2724.31 554.769   5
   4  -4  18 2998.66 645.796   2
   4  -4  18 2831.10 542.466   8
  -4  -4  18 2387.03 681.146   2
   4   4 -18 879.592 347.320   1
   4   4 -18 1253.22 436.138  11
  -4   4 -18 577.042 323.820  20
   4   4 -18 662.665 445.608  10
  -4   4 -18 622.382 257.266  19
   4   4 -18 1398.31 438.927  18
  -4  -4  18 2503.01 616.427  17
  -4   4 -18 728.534 277.526   9
   4   4 -18 1581.14 574.055   9
   4  -4  18 2365.85 807.928   6
  -4  -4  18 2482.47 769.113  16
   4  -4  18 2915.59 827.519  16
   4   4 -18 63.6896 336.268  20
  -4   4 -18 748.303 302.673  10
  -4   4 -19 211.561 142.778  19
  -4   4 -19 92.6053 178.364   9
   4   4 -19-150.612 170.146  11
   4   4 -19 151.281 241.701  10
   4   4 -19 72.7842 104.724   1
   4   4 -19-320.807 279.982   9
   4   4 -19-91.1364 151.548  18
  -4   4 -19 29.8919 102.631  20
   4  -4  19 86.7156 158.821   8
   4  -4  19 123.154 151.732   2
  -4  -4  19-94.7691 135.072   2
   4  -4  19-72.3467 187.393   6
  -4   4 -19-7.83421 112.705  10
  -4  -4  19 5.20167 44.6078  17
  -4  -4  19 59.7108 140.627  16
   4  -4  19-33.6000 185.938  16
   5   0   0 17.3883 50.1240  11
  -5   0   0-4.83968 15.4326  12
  -5   0   0-0.67780 42.0389  17
  -5   0   0-3.79062 11.8619   2
  -5   0   0-6.04572 30.0871  19
  -5   0   0-10.2090 47.5927   4
   5   0   0 0.84743 16.6881   6
   5   0   0-2.69795 21.4058  18
  -5   0   0-2.71277 24.7486   3
   5   0   0 44.0826 54.8995   1
  -5   0   0-18.7890 34.3315   5
   5   0   0-3.80546 34.8332   8
   5   0   0 0.08490 19.4667  14
  -5   0  -1 336.093 100.088   2
   5   0  -1 393.102 98.8544   6
   5   0   1 441.998 108.030  11
   5   0  -1 419.208 136.824  11
  -5   0  -1 275.872 134.593   5
  -5   0   1 304.725 113.228  19
  -5   0  -1 332.077 92.6368   3
   5   0  -1 324.618 110.733   8
   5   0   1 412.445 114.762  18
  -5   0   1 373.425 131.739   4
   5   0  -1 331.889 124.081   1
   5   0   1 410.269 148.587   1
  -5   0  -1 262.079 113.501  17
  -5   0   1 322.968 141.213  17
   5   0   1 395.841 138.802   8
   5   0  -1 358.528 131.183  14
  -5   0  -1 270.260 139.879   4
   5   0   1 394.059 161.083  14
   5   0   1 452.302 130.852   6
  -5   0   1 309.359 91.5550   2
   5   0  -1 404.010 133.096  18
  -5   0   1 249.133 93.0477  12
  -5   0   1 351.508 136.774   5
  -5   0  -1 302.488 136.642  19
  -5   0   2 4.88579 34.3834   4
  -5   0  -2-23.5327 52.7585  19
   5   0   2 20.9680 48.0648   1
   5   0   2-19.6166 43.6322   6
  -5   0  -2 9.87951 42.5848  17
   5   0  -2-8.31098 18.8112   1
  -5   0   2-21.5888 85.9000  12
  -5   0   2 5.76902 30.3327  19
  -5   0  -2-10.5534 38.6845   5
  -5   0  -2 31.0979 109.581  15
   5   0  -2 0.05203 22.4956  14
   5   0  -2-9.24568 11.5202   8
  -5   0  -2 29.0015 111.572   7
  -5   0  -2-27.7585 18.4467   4
   5   0   2 10.7571 23.1058  18
   5   0  -2-23.1403 38.1448  11
   5   0  -2 7.79043 44.8558  18
  -5   0   2-19.4847 47.7298   5
   5   0  -2 3.53583 7.74290   6
   5   0   2 13.1874 28.6119  16
  -5   0   2 20.1606 78.0235  17
  -5   0   2 6.97456 25.9937   2
   5   0   2-14.1064 42.8429   8
   5   0   2 17.9562 51.8896  14
   5   0  -3 31.5807 39.8874  18
   5   0  -3 19.0065 61.9386  11
   5   0   3 56.2595 80.8813   1
  -5   0   3 57.6979 61.6540   5
   5   0  -3 40.1954 68.7219   1
  -5   0   3 57.6088 86.5002  17
   5   0   3 52.9729 56.7462  18
  -5   0  -3 64.1482 42.6350  15
  -5   0  -3 31.5457 42.6095  17
  -5   0  -3 53.5666 90.7789   5
  -5   0   3 39.4288 42.9114  19
   5   0   3 58.1686 54.3148  16
  -5   0  -3-6.71168 14.5921  19
  -5   0   3 19.2082 28.1923   4
  -5   0  -3 121.589 133.623   7
   5   0   3 91.2730 61.2936   8
   5   0  -3 48.3437 34.9620   8
   5   0  -3 55.0048 60.5076  14
   5   0   3 45.9408 78.0248   6
  -5   0  -3 14.3240 63.3438   4
   5   0   3 47.8060 56.8368  14
   5   0  -3 20.8810 41.4288   6
  -5   0   3 43.8294 41.6821   2
  -5   0  -4 21.1294 24.1053   4
   5   0  -4 12.2418 42.7201  14
   5   0  -4 42.2254 119.005  11
   5   0  -4 9.29528 73.2390  18
   5   0   4-25.8011 36.8780  18
  -5   0   4 37.9426 81.8752   5
   5   0  -4-15.7707 41.9571   8
  -5   0  -4-116.614 238.887  15
   5   0   4 20.1634 56.5644  16
  -5   0   4 2.38377 38.5483  19
  -5   0   4 43.4513 91.7790  17
  -5   0  -4-45.9468 153.486   7
  -5   0  -4-12.7378 71.4206  17
   5   0   4 26.0492 52.1376   8
   5   0  -4 10.9735 41.2938   1
  -5   0   4 40.3673 59.0423   2
   5   0   4-2.07169 28.5206   1
  -5   0  -4 6.30793 11.2701  19
  -5   0   4-8.27090 43.1907   4
   5   0   4 8.08632 18.4842   6
   5   0   4-0.34658 22.4976  14
   5   0   5 157.842 123.500  16
   0   5  -5-35.3189 305.896  13
   0   5  -5 39.7249 72.4668   3
   5   0  -5 93.6783 115.297  11
   5   0  -5 115.839 84.4727   1
  -5   0   5 166.494 109.657   5
  -5   0  -5-151.645 289.035  15
   5   0  -5 82.6037 74.5095  18
   5   0   5 49.7815 60.2202   1
   5   0  -5-105.260 354.331   8
   5   0   5 179.580 150.717   8
  -5   0  -5-115.863 194.731   4
  -5   0   5 110.870 87.4484  19
  -5   0   5 166.732 147.848  17
  -5   0  -5-93.5384 230.216   7
  -5   0   5 76.2917 37.1914   4
   5   0   5 159.881 139.528  14
  -5   0   5 94.4349 89.4243   2
   5   0   5 96.3624 72.4295   6
   5   0  -5 82.6866 70.3984  14
  -5   0  -5 45.1944 128.733  19
   0  -5   6-39.8109 81.8337   6
   5   0  -6 37.8242 50.6190  11
   5   0   6-31.0588 139.534   1
   5   0  -6-12.2507 76.9556  18
   5   0   6 16.3130 3.89648  16
   5   0   6 17.7170 63.3047   6
   5   0  -6 28.0947 69.4383   1
  -5   0   6 104.324 119.989   2
  -5   0   6 59.1242 95.3658  17
  -5   0   6 45.0927 85.4431   5
   5   0   6 31.2437 130.298   8
   5   0   6 77.6671 147.734  14
  -5   0   6-354.320 644.025  16
  -5   0   6 54.8248 81.7640  19
   0   5  -6 2.75487 47.7938   3
   5   0  -6 104.497 91.2886  14
   0   5  -6-53.5496 119.739  13
  -5   0   7 4602.83 616.639   5
   0   5  -7 4467.72 548.494  12
   5   0  -7 1645.84 450.984  11
   5   0  -7 2905.58 551.426   1
  -5   0   7 4370.15 635.129   2
  -5   0   7 4502.51 760.879  17
   5   0  -7 2255.57 495.317  18
   5   0   7 3708.88 732.303  14
   5   0   7 3534.26 723.210   8
   0   5  -7 4538.38 826.958  13
   5   0   7 3944.06 730.337  16
   5   0   7 3630.60 681.985   6
  -5   0   7 1721.93 593.036  16
   0   5  -7 4417.17 588.579   3
   0  -5   7 1755.32 369.303   6
   5   0  -7 3216.53 456.968  14
   0   5  -8 45.4946 74.9399  18
   0  -5   8-2.95131 44.4777   6
   0   5  -8 2.33003 38.8478  12
   0   5  -8-62.4806 124.847  13
   5   0  -8 115.042 181.908  11
   5   0  -8-12.0502 51.4984  14
   5   0   8-49.1684 96.7045   8
   0  -5   8-129.907 227.503  16
   5   0   8 49.5149 50.0911  16
  -5   0   8-82.2297 175.841   5
   5   0  -8-35.9704 95.6049   1
   5   0  -8-3.25750 67.3400  18
   5   0   8-11.4461 111.753   6
   5   0   8 41.3581 21.7929  14
  -5   0   8 35.7273 110.268  17
   0  -5   8 28.5323 30.1546  17
  -5   0   8 13.5881 83.8796   2
  -5   0   8-373.331 688.012  16
   0   5  -8 6.51699 51.6602   3
   0   5  -9 486.927 158.820  12
   0   5  -9 571.685 211.428   3
   5   0  -9 198.539 210.746  11
   5   0   9 432.660 232.716   6
   5   0  -9 183.773 159.767  18
   0  -5   9 396.347 217.812  16
   5   0   9 262.042 151.207   8
   5   0   9 628.755 323.781  16
   5   0  -9 390.527 189.557  14
   0   5  -9 488.883 233.896  13
   0   5  -9 560.854 228.389  18
  -5   0   9 864.314 336.859  17
   0  -5   9 100.575 239.004   2
   0  -5   9 455.273 228.917  17
  -5   0   9-150.773 479.722  16
  -5   0   9 595.641 262.924   2
   0  -5   9 477.016 195.479   6
   5   0   9 332.986 202.100  14
   5   0  -9 267.295 185.768   1
   5   0 -10 0.17530 39.6553   1
   0   5 -10-12.7106 50.3523   3
  -5   0  10-78.6752 193.678  16
   0  -5  10-31.2262 53.8749  17
   5   0  10-20.2670 191.680   8
   0   5 -10 30.9365 43.3299  18
   0  -5  10 12.5820 52.1293   6
   0  -5  10 40.2978 127.251  16
   0   5 -10-20.6598 68.5845  13
   0   5 -10 8.91329 43.5043  12
   5   0 -10 24.0153 102.368  11
   5   0  10 7.07794 113.556  16
  -5   0  10 36.8272 130.758  17
   0  -5  10-28.5565 106.520   2
   0   5 -10 21.0424 27.9977   4
   5   0 -10-50.8539 93.6855  14
   5   0  10-16.0594 12.2661   6
  -5   0  10-7.94608 87.3360   2
   0  -5  11 46.5773 73.4693   6
   0   5 -11 8.87326 25.1589  12
  -5   0  11 31.0930 91.2971  17
   5   0  11 96.4691 196.052  16
   0  -5  11-64.3298 59.8700   2
   0   5 -11 38.3930 61.2632  18
   0   5 -11 0.33928 7.30335   4
   5   0  11-129.905 182.916   8
   0  -5  11-36.6195 43.1228  17
   0  -5  11 3.47450 9.87248  14
   0  -5  11-40.6576 34.5672  16
   5   0 -11 35.4198 113.252   1
   5   0  11 15.9807 121.458   6
   0   5 -11-28.3633 86.3497   3
   0   5 -11-8.94410 72.9329  13
  -5   0  11-32.9457 68.8911   2
   0   5 -12 311.001 305.659  13
   0   5 -12 194.577 194.135   3
  -5   0  12-11.1806 198.517  17
  -5   0  12 11.5436 82.7140   2
   5   0  12-5.53965 142.345   8
   0   5 -12 95.9343 112.201  18
   0  -5  12 234.198 170.353  17
   5   0  12 96.8031 117.159   6
   0   5 -12 134.059 186.649  12
   0  -5  12 99.4387 127.017   2
   0  -5  12 161.860 195.845   6
   0  -5  12 203.376 243.365  16
   0  -5  12-43.6791 21.5023  14
   5   0 -12-5.07574 99.6283   1
   5   0  12 43.9497 283.673  16
   0   5 -13 658.182 252.579   3
   0   5 -13 680.904 205.019  12
   0   5 -13 954.942 257.422  11
   0   5 -13 1339.57 592.697  15
   5   0  13 588.651 338.065   8
   0  -5  13 835.678 334.415  16
   0  -5  13 723.860 302.398   6
   0   5 -13 555.385 239.014  13
   5   0  13 568.767 377.909  16
   0  -5  13 519.048 122.417  14
  -5   0  13 820.612 294.450  17
   0  -5  13 920.821 255.145   8
   0  -5  13 678.811 237.442  17
   5   0  13 458.953 297.330   6
   0  -5  13 862.068 339.098   2
   0   5 -13 689.839 203.027  18
  -5   0  13 872.016 450.279   2
   0  -5  14-38.2204 50.5180   2
   0  -5  14 115.641 157.476   6
   0   5 -14 154.847 160.577  20
   5   0  14-302.860 393.016   8
   5   0  14 137.978 193.776  16
   0   5 -14 80.8016 259.399  15
   0   5 -14 35.2116 52.8209  18
   0   5 -14-9.18981 26.4587  11
   0   5 -14 50.1785 122.342   3
   0  -5  14 19.1557 154.800  16
   0  -5  14-101.348 82.4048   8
   0   5 -14 20.6640 142.872  13
   0   5 -14 292.659 374.208   7
  -5   0  14 11.5914 55.6410   2
   5   0  14 42.4629 142.196   6
   0   5 -14 61.7312 106.608  12
   0  -5  14 4.93635 18.9770  17
   5   0  15-260.522 301.993   6
   0   5 -15 259.568 217.609  13
   0   5 -15 164.541 162.794  12
   0  -5  15 58.2323 27.3232  17
   0   5 -15 121.022 277.001  15
   0   5 -15 167.873 131.011  11
   0  -5  15 158.773 172.892   2
   0  -5  15 85.2015 163.272  16
   0   5 -15 1.86436 48.1693  18
   0   5 -15 254.772 221.409  20
   0  -5  15 42.5030 39.1632   8
   0   5 -15 87.6229 147.882   7
   0   5 -15 420.921 317.778  10
   5   0  15 240.116 287.913  16
   0   5 -15 93.2513 166.700   3
   0  -5  15-51.2542 53.4647   6
   0   5 -16-4.96783 49.4354  18
   0  -5  16-18.3775 117.444   6
   0   5 -16 160.488 199.971  12
   0   5 -16 18.8929 64.2079  20
   0  -5  16 40.6757 145.692   2
   0  -5  16 167.447 171.916  16
   0  -5  16 52.5836 83.6151   8
   0   5 -16-243.830 472.980   7
   5   0  16 240.750 321.406  16
   0  -5  16 31.5462 101.044  17
   0   5 -16-298.933 560.249  15
   5   0  16-281.421 383.622   6
   0   5 -16 94.3658 99.3030  11
   0   5 -16 39.3596 30.4303  10
   0   5 -16 65.8364 174.858   3
   0   5 -17 84.1374 142.273  20
   0   5 -17 287.496 236.547  12
   0   5 -17 276.784 153.852  11
   0  -5  17 450.246 283.111  16
   0  -5  17 229.513 151.138  17
   0  -5  17 357.299 146.444   8
   0  -5  17 120.541 51.9738   6
   0   5 -17 730.791 364.138   9
   0   5 -17 189.426 150.598  18
   0   5 -17 343.541 277.679  10
   0  -5  17 316.385 246.016   2
   0   5 -18 151.292 189.680   9
   0  -5  18 105.284 180.241  17
   0   5 -18 82.2108 147.389  10
   0  -5  18-18.9080 203.744   2
   0   5 -18 53.9896 77.8449  20
   0  -5  18 201.004 247.192  16
   0   5 -18 67.3650 72.8459  18
   0  -5  18-29.8968 128.780   6
   0  -5  18 87.4135 31.4074   8
   0   5 -18 274.265 183.635  11
   0  -5  19 1631.48 575.035  16
   0  -5  19 1436.49 457.870  17
   0   5 -19 532.515 259.126   9
   0   5 -19 1031.49 304.288  11
   0   5 -19 879.664 337.815  18
   0   5 -19 778.096 385.479  20
   0  -5  19 934.517 533.511   6
   0  -5  19 1835.77 589.700   2
   0   5 -19 542.423 373.412  10
   5   1   0 354.798 162.870   1
   5   1   0 356.434 132.918  18
  -5   1   0 258.288 103.989  12
  -5  -1   0 244.952 136.082   4
  -5  -1   0 193.142 112.580   5
  -5   1   0 283.182 90.3005   2
  -5   1   0 273.399 114.185   5
  -5  -1   0 211.724 108.885   2
   5  -1   0 290.048 117.363   1
   5   1   0 389.685 154.963   8
   5  -1   0 396.396 119.446   6
   5  -1   0 264.618 133.216  18
  -5   1   0 308.510 121.156   4
  -5  -1   0 250.185 156.573  19
  -5  -1   0 196.897 110.034  17
  -5   1   0 275.241 157.160  17
   5  -1   0 215.322 96.7338   8
   5   1   0 309.176 174.082  14
   5  -1   0 276.892 111.029  14
  -5   1   0 294.162 117.222  19
   5   1   0 294.562 134.872   6
   5   1  -1 3339.87 335.450  13
  -5   1   1 1625.80 331.403  12
  -5  -1  -1 1476.45 375.510   5
   5   1  -1 3427.58 467.359   1
  -5  -1  -1 1407.94 333.320  17
  -5   1  -1 2650.11 343.174   5
   5   1   1 3603.19 562.069   1
  -5   1   1 2848.48 387.613   5
   5  -1   1 2683.56 342.782   1
   5   1   1 3183.57 502.008   8
   5  -1   1 3144.42 390.555  14
   5  -1  -1 2996.22 409.748   1
  -5   1  -1 2625.54 210.127   2
   5  -1   1 2703.30 341.400   8
  -5  -1  -1 1296.00 355.083   4
   5   1   1 3149.38 562.739  14
  -5  -1  -1 1514.99 388.410  19
  -5  -1   1 2075.49 366.548  19
   5   1  -1 3172.95 390.297   8
  -5  -1   1 1953.58 356.329  17
   5  -1   1 3467.19 466.641  18
  -5   1  -1 2799.35 358.700   4
   5  -1   1 3004.15 323.577   6
   5  -1  -1 3144.47 402.038  14
   5  -1  -1 2444.57 484.960  18
  -5   1  -1 2731.87 359.980  19
  -5  -1   1 1803.35 364.612   4
   5   1  -1 2928.74 364.010  18
  -5  -1   1 2224.38 395.139   5
  -5   1  -1 2128.20 402.049  17
  -5   1   1 2867.96 364.914  19
   5   1  -1 2859.04 469.282  14
  -5   1  -1 2639.13 333.888  12
  -5   1   1 2685.02 358.532   4
   5   1   1 1931.26 390.434   6
   5   1  -1 2613.74 360.133   6
  -5  -1   1 1910.64 382.612  15
  -5   1  -1 2410.31 387.252   3
   5   1   1 3227.23 435.675  18
  -5   1   1 2404.28 524.231  17
   5  -1  -1 3202.04 367.678   6
  -5  -1   1 2233.94 310.734   2
  -5   1   1 3220.26 380.595   2
   5  -1  -1 2410.93 330.442   8
   5  -1   2 13.2835 5.08471   8
  -5   1  -2 2.38370 3.67610   2
   5   1  -2 35.5109 42.6993  13
  -5   1   2 17.5406 39.0220  19
  -5   1  -2 17.4135 61.7746  12
   5   1   2-58.6584 138.935  18
   5  -1   2 24.9572 59.9793   1
  -5   1  -2 32.1737 51.6162   3
   5   1  -2 69.7917 111.161  11
  -5  -1   2 17.8570 30.5338   2
   5   1  -2 2.45994 6.88668   8
  -5  -1   2 8.79416 15.2064   5
  -5  -1  -2 29.4499 72.9255  19
  -5   1  -2 20.7738 39.4562   5
  -5   1   2 5.12967 37.0212   5
  -5  -1   2 0.67920 31.5338  17
   5   1  -2 17.6467 46.8697  18
  -5  -1   2-17.5433 50.2692   4
   5   1  -2 188.026 94.3160  10
  -5  -1  -2-20.8678 33.8529  17
  -5   1   2-14.9812 72.2454   4
   5  -1  -2-26.0114 77.8654  18
  -5   1  -2-4.23149 10.3004  17
  -5   1   2-46.1279 120.599   2
  -5   1  -2-20.3823 42.4707   4
  -5  -1   2 25.7890 49.1679  19
   5  -1  -2 35.5018 47.0978   8
  -5  -1  -2-40.7955 136.795   4
  -5  -1   2-3.03867 7.25807  12
   5   1  -2 11.4630 33.6247   1
   5   1   2-28.5457 95.0334   1
  -5  -1   2 21.2072 60.3159   7
  -5   1  -2 4.57579 36.0999  19
   5  -1   2 5.94036 27.1394  18
   5  -1   2-2.16806 8.46723   6
   5  -1  -2 20.3562 18.6447   1
  -5  -1   2 11.4682 42.9493  15
   5   1   2-33.9019 72.6206   6
   5   1   2 46.4852 87.2172   8
   5   1   2 6.88479 68.6836  14
  -5   1   2-38.5021 82.8659  17
   5   1  -2 22.7253 82.9399  14
   5   1  -2-1.78919 27.0833   6
   5  -1   2 27.0739 67.7054  14
   5  -1  -2 33.2017 69.1674  14
  -5   1   3-96.2681 178.781   2
   5  -1   3 36.8304 44.2071   8
   5  -1  -3-5.00001 37.9183   8
  -5   1  -3 12.2709 62.2958   3
  -5  -1   3-0.73711 22.5162   4
   5   1  -3 2.68046 19.1969  11
   5   1  -3 38.3568 51.5051   8
  -5   1   3-1.15367 24.5972  19
  -5   1  -3 29.4400 52.4415   5
   5   1  -3 99.4090 78.4674  10
   5   1  -3 336.196 179.229   9
   5   1  -3 4.70343 13.3798   1
   5   1  -3-1.33628 43.4192  18
   5  -1   3 15.3069 7.20303  18
  -5   1  -3 56.0902 67.7786  10
  -5  -1   3 8.21871 5.19358   5
  -5  -1   3 5.99803 18.1702  19
   5  -1   3 9.39899 23.5244   1
  -5   1  -3 9.44810 7.94924   4
  -5   1  -3-1.06409 16.0318  17
   5  -1   3 6.29041 40.4661   6
  -5  -1   3-14.8319 52.5766  17
   5  -1   3 32.5028 20.4766  16
   5  -1  -3-12.0184 37.5694  14
  -5   1   3-55.1566 146.301  17
   5   1   3-26.9212 114.257   8
  -5  -1   3 11.1425 25.9529   2
   5  -1  -3 26.3915 60.6700   1
   5   1   3-1.85877 76.2885   1
   5   1   3 4.25678 60.0676   6
  -5   1  -3 50.8631 83.1787  12
   5   1   3 71.0819 110.925  14
   5   1  -3 4.11231 31.2168  14
   5  -1   3 35.5292 51.2385  14
  -5   1   3-60.5634 100.701   5
  -5   1  -3-6.63652 46.1844  19
   5   1   4 587.007 288.681  14
   5  -1   4 855.972 215.897   1
  -5   1  -4 466.512 137.674  20
   5   1  -4 633.771 192.882   1
   5   1  -4 888.966 223.080  11
   5   1  -4 902.555 235.098   9
  -5  -1   4 596.176 158.000   2
  -5  -1   4 606.732 160.884  19
   5  -1  -4 665.451 270.052   1
  -5   1  -4 453.856 170.637   5
   5  -1   4 829.584 221.708   8
  -5   1  -4 515.341 182.204   4
  -5   1  -4 656.507 160.979  10
  -5  -1   4 583.852 169.284   4
   5  -1   4 888.875 221.198  16
   5   1   4 571.128 291.545   8
   5  -1   4 892.237 139.663  18
  -5  -1   4 637.694 121.579  16
   5   1  -4 668.247 200.282  10
  -5   1   4 650.857 317.572  17
   5  -1   4 832.457 207.660   6
  -5   1   4 883.402 252.612  19
   5   1   4 296.890 190.259   6
   5  -1   4 832.675 219.701  14
   5   1  -4 652.247 196.552  14
   5  -1  -4 649.964 218.866  14
  -5   1  -4 394.377 174.060  19
   5   1  -4 625.230 146.214   8
  -5  -1   4 583.566 209.981  17
  -5  -1   4 734.526 211.284   5
  -5   1  -4 403.776 108.957  17
   5   1  -4 771.907 208.012  18
   5   1   4 227.416 166.875   1
  -1   5  -5 387.401 179.175   3
  -5   1  -5 438.057 240.302   7
  -5   1  -5 173.010 80.4078  10
  -5   1  -5 210.844 137.160   5
   5   1  -5 411.296 161.602  11
  -5   1  -5 169.607 84.0333  20
   5   1   5 470.609 298.853   8
  -5   1  -5 146.718 79.3022  19
  -5   1  -5 223.998 130.881   4
   5   1  -5 383.198 180.629   9
   5  -1   5 502.109 175.434   6
   5  -1   5 424.055 166.393  14
  -5  -1   5 271.325 133.840  17
  -5  -1   5 413.627 124.277  16
   5   1  -5 168.278 133.815  10
  -5  -1   5 328.083 125.855   4
   5  -1   5 378.071 166.614   8
   1   5  -5 211.874 189.380  13
  -5   1   5 345.091 207.781  17
   5   1  -5 380.329 160.167   1
   5   1  -5 296.395 144.136  14
   5  -1   5 494.251 198.836   1
   5  -1   5 548.186 179.635  16
   5   1  -5 390.693 127.046   8
  -5  -1   5 334.919 129.861   2
   5   1  -5 380.633 151.921  18
  -5  -1   5 323.149 114.605  19
   5   1   5 273.976 179.663  14
  -5  -1   5 356.912 146.395   5
   5   1   5 129.214 106.997   6
  -5   1  -5 400.841 234.241  15
   5  -1  -5 314.317 202.669   1
   5  -1  -5 346.976 172.322  14
  -1   5  -6 2764.40 496.298   3
   1  -5   6 669.065 243.672   6
   5  -1   6 2101.68 474.127   1
   5   1  -6 2162.56 401.967  11
  -5  -1   6 2150.91 357.920   2
  -5   1   6 2303.79 641.291  17
  -5  -1   6 2185.18 312.355  19
  -5  -1   6 2031.26 416.068  17
  -1   5  -6 2667.65 448.514  12
   5   1   6 725.094 311.632   6
   5   1  -6 791.301 329.323  10
   5  -1  -6 1611.99 401.760  14
  -5  -1   6 2045.93 342.584  16
  -5   1  -6 1912.09 512.962  15
   5   1  -6 2033.84 424.642   8
  -5   1  -6 1819.58 452.724   7
   5  -1   6 2264.53 420.072   8
   5  -1   6 2559.86 440.213  16
   5  -1   6 2528.49 430.110  14
   5   1  -6 1584.86 400.641   9
  -5   1  -6 1055.65 339.921   4
  -5   1  -6 918.279 288.916  10
   5   1  -6 1992.22 369.724   1
   5  -1   6 2701.05 453.344   6
   1   5  -6 2410.69 447.686   3
   5   1   6 1086.45 429.582  14
  -5  -1   6 2286.64 370.329   5
   5  -1  -6 1414.10 464.481   1
  -5   1  -6 862.229 248.674  20
  -5   1  -6 1129.36 320.134  19
  -5  -1   6 2201.63 302.782   4
   5   1  -6 2101.44 331.897  14
   5   1  -6 2005.62 372.705  18
  -1   5  -6 1954.55 644.520  13
   1   5  -6 2811.17 668.438  13
  -5  -1   7 303.457 113.446   4
   1   5  -7 304.049 193.028  13
  -5  -1   7 202.150 145.982  16
  -1   5  -7 334.156 214.625  13
   1  -5   7 132.549 99.4842   6
  -1  -5   7 96.0469 60.3127   6
   5  -1   7 333.886 171.889  16
  -1   5  -7 294.173 130.341  12
   5  -1  -7-189.432 331.464   1
  -5   1  -7 54.6185 38.1817  20
   1   5  -7 274.588 74.9266  12
   5   1  -7 196.721 127.770  11
  -5   1  -7 128.732 107.990  19
  -5   1  -7 152.556 109.174  15
  -5  -1   7 229.100 112.740   5
  -5   1  -7 53.9762 88.4555  10
  -5  -1   7 327.220 130.358  19
   5   1  -7 220.021 118.340   1
   5   1  -7 244.408 131.903  18
  -1  -5   7 53.7059 106.094  17
  -1   5  -7 315.370 155.840   3
   5  -1   7 341.915 174.433   8
   1   5  -7 347.529 158.678   3
  -5   1   7 56.2936 249.960  17
   5   1  -7-63.2175 194.670  10
   5  -1   7 275.718 162.628   6
  -5   1  -7 203.621 133.526   7
  -5   1  -7 48.9334 17.2753   4
  -5  -1   7 320.827 177.699  17
   5   1   7 32.9472 8.91376   6
   5   1  -7 125.932 95.4900   9
   5  -1   7 387.991 195.031  14
   1   5  -7 67.6060 141.399  18
   5  -1   7 64.5797 37.5113   1
   5   1  -7 221.726 106.400  14
  -5  -1   7 239.457 137.774   2
  -1   5  -8 2540.70 601.815  13
   5  -1   8 2868.62 565.943  16
  -5  -1   8 2293.51 492.556  17
   1  -5   8 1010.73 334.675  16
   5   1  -8 1893.91 431.099  11
   5   1  -8 1835.85 394.111   1
   1   5  -8 2710.70 445.031   3
   5  -1   8 2713.61 274.427   2
  -5  -1   8 2323.03 322.476   4
  -1  -5   8 1163.57 443.637  17
  -5   1  -8 535.735 237.877  20
   1   5  -8 2491.63 528.199  13
   5   1  -8 1896.86 313.174  14
  -5  -1   8 2745.86 531.321  16
  -1   5  -8 2750.62 527.284  18
  -1   5  -8 2223.71 352.582  12
   1   5  -8 2826.27 405.584  12
   5   1  -8 261.583 239.016  10
  -5   1  -8 651.459 273.552  19
   5  -1   8 2613.98 535.810  14
  -1  -5   8 932.549 324.204  16
   1  -5   8 1442.71 357.601   6
  -5   1  -8 874.136 294.463   7
   5   1   8 634.696 287.163   6
   5   1  -8 1974.77 412.348  18
  -5  -1   8 2668.52 425.564   5
   5  -1   8 2606.62 524.868   6
  -5   1  -8 1007.29 383.688  15
  -1  -5   8 1368.58 315.547   6
   1   5  -8 2861.48 563.814  18
   5   1  -8 895.186 378.136   9
  -1   5  -8 2708.12 468.983   3
  -5  -1   8 2363.19 425.278   2
   5  -1   8 2638.14 534.269   8
   1  -5   8 1289.35 461.027  17
  -1  -5   8 315.299 130.839   2
  -1  -5   9 599.542 202.269   6
   1   5  -9 738.311 263.871  13
   1   5  -9 865.211 210.573  12
  -5  -1   9 1079.34 287.510   5
  -5  -1   9 890.919 282.924   2
   5  -1   9 832.871 329.980  14
   5   1  -9 634.476 244.407  11
   5  -1   9 1090.29 196.550   2
   1  -5   9 809.265 289.370  17
   1   5  -9 822.493 276.932  18
   5  -1   9 876.326 315.682   8
  -5   1  -9 113.580 61.2013  19
   5   1  -9-268.423 531.041  10
   5   1  -9 414.411 253.723   9
  -1   5  -9 989.829 279.348   3
   5   1   9 257.287 104.102   6
  -1   5  -9 696.642 134.743   4
  -1   5  -9 770.506 200.276  12
  -5   1  -9-160.462 423.827  10
   1   5  -9 945.920 262.259   3
  -1   5  -9 1060.71 279.415  18
  -1  -5   9 381.728 188.828   2
  -5  -1   9 951.635 327.586  17
  -1  -5   9 586.305 286.287  17
  -1  -5   9 375.046 200.501  16
  -1   5  -9 736.778 304.042  13
   1  -5   9 507.592 250.250  16
   5  -1   9 1040.68 365.542  16
   5  -1   9 1096.96 367.589   6
  -5  -1   9 1039.59 361.339  16
   1  -5   9 718.512 255.905   6
   5   1  -9 648.999 251.186  18
   5   1  -9 706.044 199.098  14
  -5   1  -9-40.9825 290.123  15
   5   1  -9 602.341 233.958   1
  -5   1  -9 59.2139 106.479  20
   5  -1  10 63.8433 96.1707  16
  -1  -5  10 162.874 137.108  17
  -5  -1  10 149.807 90.9194   5
  -1  -5  10 126.370 98.2983   6
  -1   5 -10 43.5379 93.7592  13
   1   5 -10 68.7880 104.934  13
   5   1 -10 145.418 139.886   1
   1  -5  10-212.709 333.378   2
   1   5 -10 106.022 76.2672  12
  -1   5 -10 110.636 70.5081   3
   5   1 -10 59.2611 64.3195  11
  -5  -1  10 143.716 134.006  17
  -5   1 -10-105.854 244.046  20
  -5   1 -10-34.7474 123.924  19
   5   1 -10 110.316 126.490  18
  -1   5 -10 93.0110 83.5745  12
   5  -1  10 191.192 167.425   6
  -1  -5  10 133.023 136.398  16
  -1   5 -10 124.312 79.5163  18
   1   5 -10 91.8275 66.7460  18
   5   1 -10-20.9772 249.342   9
   5  -1  10 78.3119 51.5967   8
  -1  -5  10 78.6084 127.057   2
   1   5 -10 97.9157 93.3985   3
   1  -5  10 207.445 135.615  17
   1  -5  10 166.265 161.088  16
  -5  -1  10 109.623 89.4395   2
  -5  -1  10 174.617 187.947  16
   1  -5  10 259.173 166.107   6
   5   1  10-116.445 259.336   6
   5  -1  10 72.5018 97.3699  14
   5  -1  10 41.4103 109.914   2
  -1   5 -10 139.064 64.7405   4
   5   1 -10 139.424 104.745  14
   1  -5  10 106.719 57.2722  14
   1  -5  11 291.740 177.059   6
  -1   5 -11 426.555 293.530  13
   1   5 -11 407.543 187.642   3
  -1   5 -11 451.802 204.527   3
   1   5 -11 388.020 223.088  13
  -1   5 -11 452.789 151.021  18
  -1   5 -11 790.671 227.585  12
   1  -5  11 498.736 176.887  17
   5   1 -11 166.955 134.481  11
  -1  -5  11 386.609 218.499  17
   1  -5  11 27.1625 196.555   2
  -1  -5  11 220.369 80.2839   2
  -5  -1  11 494.960 205.939   5
   5   1 -11-151.469 452.092   9
   1   5 -11 318.994 160.250  18
  -1  -5  11 324.041 176.193   6
  -5  -1  11 554.397 354.566  16
  -5   1 -11-133.374 206.394  19
   5  -1  11 397.606 146.891   8
   1  -5  11 515.094 220.937   8
  -1   5 -11 457.603 148.773   4
  -5  -1  11 490.241 257.879  17
   1  -5  11 349.536 194.551  16
  -1  -5  11 263.459 167.840  16
   1   5 -11 395.704 157.937  12
   5  -1  11 535.591 264.072  16
   5   1 -11 154.378 156.803   1
   1  -5  11 407.229 91.4293  14
  -5  -1  11 547.440 256.078   2
   5   1  11-43.0415 258.535   6
   5  -1  11 351.837 236.986  14
   5   1 -11 204.957 135.187  18
   5  -1  11 305.172 185.091   6
   5   1 -11 255.239 114.047  14
   5  -1  11 525.714 121.665   2
   1  -5  12 334.877 202.498   6
  -1   5 -12 117.985 299.099  12
  -1   5 -12 1077.82 422.163  13
  -1  -5  12 130.364 181.545   2
   5  -1  12 121.176 67.7025   8
   5   1 -12-43.9233 137.666  11
   5   1 -12-86.0269 136.994   1
   1   5 -12 166.020 246.209  13
  -5  -1  12 232.179 249.270  16
   1  -5  12 305.956 342.363   2
   5  -1  12 33.2606 111.877   6
   1  -5  12 634.740 249.212  17
   1   5 -12 90.1848 106.714  18
   5  -1  12 27.1254 196.842   2
   5   1 -12 18.7756 20.2148  18
  -1   5 -12 215.557 254.876   4
  -1  -5  12-62.9731 98.8399  16
  -5  -1  12 67.9240 56.2212   5
   1   5 -12 218.831 171.975  12
  -5  -1  12 88.4155 100.390  17
   1  -5  12 764.508 244.983   8
  -1  -5  12 301.731 192.581   6
   1  -5  12 229.860 178.757  16
   1   5 -12 142.669 162.349   3
   5  -1  12-34.5852 181.758  14
  -5  -1  12 173.180 179.601   2
  -1   5 -12 455.323 313.806   3
  -1   5 -12 183.228 136.493  18
   5  -1  12 149.124 161.367  16
   1  -5  12 177.960 78.9283  14
  -1  -5  12 239.162 153.865  17
   5   1 -12 18.8003 30.2462  14
   1   5 -13-112.321 144.604   1
  -1   5 -13 645.016 192.152  11
   1   5 -13 605.727 244.970   3
  -1   5 -13 415.500 236.313  13
   1  -5  13 707.023 213.323  17
   1   5 -13 620.959 197.769  12
   1  -5  13 595.142 184.691   8
   5   1 -13 288.442 138.177  14
   1   5 -13 758.351 243.546  11
   1   5 -13 1149.24 590.260   7
   1   5 -13 657.815 273.639  13
  -1  -5  13 732.013 243.881  17
   5   1 -13 227.244 171.159   1
   1  -5  13 684.587 318.190   2
  -5  -1  13 497.347 288.516   2
  -1   5 -13 1609.15 636.328  15
  -5  -1  13 606.928 321.962  16
  -1  -5  13 792.060 365.945   2
   5  -1  13 647.724 335.906   6
   5   1 -13 152.683 135.079  18
   5  -1  13 749.771 354.535   8
  -1   5 -13 567.623 172.949  18
   1  -5  13 551.648 264.725  16
   5  -1  13 683.251 210.757   2
  -5  -1  13 723.312 350.509  17
  -1  -5  13 553.137 270.277  16
   1  -5  13 642.570 287.542   6
   5  -1  13 648.613 386.779  16
   1   5 -13 936.141 544.623  15
   1  -5  13 653.684 153.938  14
   5   1 -13 178.971 162.005  11
  -1   5 -13 549.775 239.597   3
   1   5 -13 520.780 199.688  18
  -5  -1  13 719.181 260.475   5
  -1  -5  13 594.027 281.125   6
  -1   5 -13 614.056 201.863  12
  -1  -5  14 524.600 290.890  16
  -1   5 -14 806.909 489.809   7
  -1   5 -14 445.961 226.683   3
   5  -1  14 408.164 257.594   8
  -1   5 -14 434.140 243.072  13
   1   5 -14 511.021 239.710   3
   1   5 -14 461.389 278.034  20
  -1   5 -14 433.025 188.736  12
   1   5 -14 449.575 182.345  12
  -5  -1  14 601.019 211.979   5
   1  -5  14 589.951 308.269   2
   1   5 -14 715.755 235.564  11
  -1   5 -14 595.304 198.540  11
   5   1 -14 156.962 174.097  11
   1  -5  14 726.506 320.922  16
  -1  -5  14 541.736 297.320   2
   1   5 -14 672.323 388.806  15
   1   5 -14 459.276 199.954  18
  -1   5 -14 422.613 223.210  20
   1   5 -14 412.520 243.453  13
  -1   5 -14 457.703 152.919  18
   1   5 -14 18.8769 64.7085   1
   5   1 -14 247.388 125.386  14
   5   1 -14 277.597 216.757   1
   1  -5  14 608.132 194.185  17
   1  -5  14 531.783 176.093   8
  -5  -1  14 702.275 357.284  17
   1   5 -14 470.141 357.677   7
   5  -1  14 797.804 422.114  16
  -5  -1  14 688.421 452.003  16
  -1   5 -14 732.979 483.806  15
   5  -1  14 496.679 309.557   6
  -5  -1  14 643.332 327.358   2
   1  -5  14 494.720 173.336  14
  -1  -5  14 377.211 241.957   6
   1  -5  14 623.874 302.591   6
   5  -1  14 670.118 225.680   2
  -1  -5  14 732.460 263.856  17
  -1   5 -15 518.129 306.619  13
  -1  -5  15 683.957 246.956  17
   1   5 -15-73.0127 47.3386   1
   1   5 -15 826.563 382.420  10
   1   5 -15 473.106 209.243  12
   1  -5  15 690.382 336.869  16
   1   5 -15 540.160 278.293   3
   1   5 -15 323.175 193.964  20
  -1   5 -15 513.438 366.524   7
   1   5 -15 337.620 153.292  11
  -1   5 -15 492.014 161.406  11
   1  -5  15 666.912 320.761   2
   1  -5  15 672.198 195.002   8
   1  -5  15 759.834 389.374   6
   1   5 -15 456.976 212.725  18
  -1   5 -15 358.162 229.820  20
   5  -1  15 570.264 329.057   8
  -1   5 -15 506.253 180.158  18
  -5  -1  15 757.776 347.850  17
   5  -1  15 745.266 259.999   2
   1   5 -15 97.7010 427.958   7
   1   5 -15 310.580 281.798  15
   1  -5  15 578.716 215.351  17
  -5  -1  15 701.172 205.344   5
  -1   5 -15 519.119 233.028  12
  -1   5 -15 536.378 288.403   3
  -1  -5  15 522.965 58.7199   8
  -1   5 -15 605.286 339.326  10
  -1  -5  15 547.481 329.367   6
  -5  -1  15 836.620 536.046  16
   5  -1  15 807.257 452.184  16
   5   1 -15 124.972 132.604  11
   5  -1  15 520.026 303.961   6
   1  -5  15 26.2275 56.0505  14
  -1   5 -15 752.765 505.512  15
  -5  -1  15 752.643 344.103   2
  -1   5 -15-66.0197 292.954  19
  -1  -5  15 620.908 350.783   2
  -1  -5  15 653.638 325.212  16
   5   1 -15 123.158 140.234   1
   5   1 -15 225.079 129.827  14
   5  -1  16-85.6323 144.468   8
   1  -5  16 94.4706 87.4673   8
  -1   5 -16 737.204 409.123   9
   5   1 -16-74.3219 127.390   1
  -1  -5  16 123.629 221.695   6
  -1   5 -16 44.2855 95.1731  18
   1   5 -16 281.612 270.212   3
  -1   5 -16 217.279 245.077  12
   5  -1  16 63.2839 151.061   6
   1   5 -16 97.2974 135.605  12
  -1   5 -16-70.2365 176.696  19
   1   5 -16 95.9941 155.872  11
  -1   5 -16 214.618 147.718  11
   1   5 -16 648.926 351.696   9
   1   5 -16 303.730 230.051  10
   5  -1  16 88.5186 145.106   2
  -1   5 -16 19.8639 148.615  20
   1   5 -16 95.8842 112.737  18
  -1   5 -16-504.478 550.605  15
  -5  -1  16-182.809 285.120   5
  -1   5 -16 184.786 226.548   3
   1  -5  16 215.906 234.674   2
  -1  -5  16 87.3033 145.278   2
  -1  -5  16 97.8176 56.5527   8
   1  -5  16 220.949 290.485  16
  -1   5 -16 177.204 190.718  10
   1  -5  16 135.462 147.267  17
  -1  -5  16 124.903 154.857  17
  -5  -1  16 314.568 269.988   2
  -1  -5  16 19.1139 45.2920  16
  -1   5 -16 1.28699 116.682   7
   5  -1  16 353.924 372.932  16
  -5  -1  16 294.280 464.646  16
   1   5 -16 62.3737 96.3712   1
  -5  -1  16 46.8232 85.0567  17
   1   5 -16-19.9707 87.6347  20
   1  -5  16 236.882 299.148   6
   5   1 -16 28.4327 68.1894  14
   1   5 -17 100.889 102.131   1
   1  -5  17 594.657 358.497  16
   1   5 -17 593.362 295.276  12
   5   1 -17 168.493 229.163   1
  -1   5 -17 581.829 340.323  12
  -1  -5  17 613.363 269.301  17
   5  -1  17 659.478 405.578  16
  -1   5 -17 69.2873 344.073  15
   1   5 -17 383.598 201.673  11
   1   5 -17 415.273 269.849  10
   1  -5  17 718.892 296.110  17
  -1   5 -17 400.758 275.779  10
  -1   5 -17 430.298 206.479  18
   1   5 -17 884.742 413.843   9
  -5  -1  17 441.575 155.016  17
   5  -1  17 562.319 357.387   8
   1   5 -17 296.644 184.502  18
   1   5 -17 394.502 252.982  20
   1  -5  17 922.868 416.034   2
   1  -5  17 660.136 188.194   8
  -1  -5  17 773.358 210.034   8
  -1  -5  17 713.562 360.775  16
  -1  -5  17 425.412 258.617   6
  -1   5 -17-348.357 576.627   7
  -5  -1  17 1037.51 736.163  16
  -1   5 -17 275.340 182.135  20
   5  -1  17 512.638 315.891   6
  -5  -1  17 689.115 349.105   2
  -1   5 -17 873.207 377.439   9
  -1  -5  17 764.279 405.291   2
   1  -5  17 633.161 377.300   6
  -1   5 -17 583.586 214.934  11
   5  -1  17 1006.43 368.134   2
  -1  -5  18 838.234 337.972  17
   1   5 -18 314.447 258.957  20
  -1   5 -18 630.530 301.826   9
   1   5 -18 597.263 333.460  10
  -1  -5  18 979.721 410.391   2
   1   5 -18 610.792 252.075  11
  -1   5 -18 647.300 260.022  11
  -1  -5  18 263.119 241.714   6
   5  -1  18 319.191 198.956   6
  -1  -5  18 749.870 433.985  16
  -1   5 -18 345.861 273.219  10
   1  -5  18 771.759 421.597  16
   5  -1  18 627.874 354.554   8
   1  -5  18 1048.99 437.552   2
   1  -5  18 1106.66 389.615  17
  -1   5 -18 371.546 232.898  20
   1   5 -18 381.787 199.707   9
   1   5 -18 589.538 230.867  18
   5  -1  18 1279.66 538.370  16
  -5  -1  18 1515.40 973.331  16
   1  -5  18 917.450 249.160   8
  -1   5 -18 642.306 264.995  18
  -5  -1  18 1213.52 520.392   2
   1  -5  18 572.688 212.741   6
   5  -1  18 1348.33 457.604   2
  -1   5 -19 547.911 428.872  10
  -1   5 -19 457.561 279.743  18
   1   5 -19 505.652 379.175  10
  -1  -5  19 753.140 372.986  16
  -1   5 -19 540.471 334.423  20
   1   5 -19 450.572 171.863  11
  -1   5 -19 586.254 242.065  11
  -1  -5  19 501.410 268.281  17
   1   5 -19 382.391 256.091   9
   5  -1  19 311.439 226.871   8
   1   5 -19 419.312 222.705  18
  -1  -5  19 589.847 323.017   2
   1  -5  19 580.959 309.448   2
   5  -1  19 634.278 458.631  16
   1  -5  19 698.017 234.389   8
   1  -5  19 684.459 333.054  17
   1  -5  19 590.006 383.938  16
  -1   5 -19 597.154 301.145   9
   5  -1  19 143.501 152.972   6
  -5  -1  19 446.748 405.068   2
  -1  -5  19 440.795 372.974   6
   1  -5  19 292.224 321.605   6
   1   5 -19 390.513 311.508  20
   5  -2   0 3883.91 484.365   8
  -5   2   0 3539.21 556.278  12
  -5   2   0 5089.60 549.370   5
   5  -2   0 4366.95 565.476   1
  -5   2   0 4902.96 515.449  19
   5   2   0 5487.21 828.024   1
   5   2   0 3994.89 643.495   8
   5  -2   0 4418.29 569.503   6
   5   2   0 3054.21 687.598  14
   5  -2   0 4463.99 529.251  14
   5   2   0 5168.02 693.012  18
   5  -2  -1 335.806 161.444  14
  -5   2  -1 296.834 135.336  12
   5   2  -1 313.013 212.515  14
  -5   2  -1 346.629 134.235   5
   5  -2  -1 241.543 133.830   1
   5   2   1 277.709 152.746   1
   5  -2   1 398.621 154.560  14
  -5  -2   1 44.9118 158.885   2
   5   2  -1 383.080 192.292  18
   5   2   1 244.140 163.095   8
  -5   2  -1 384.590 144.221   4
  -5  -2   1 82.1353 16.1418  19
   5   2  -1 401.319 184.130   8
  -5  -2   1 265.158 207.526  17
  -5   2  -1 418.323 145.797  19
   5  -2   1 330.876 129.078   8
  -5   2   1 397.512 148.415  19
   5  -2  -1 225.525 134.207   8
   5   2  -1 451.058 227.544   1
   5  -2   1 456.005 158.807   6
   5  -2   1 382.776 152.201   1
   5   2   1 190.879 187.272  14
   5   2  -1 74.6292 119.304  13
   5   2  -2 2278.94 386.555  13
  -5  -2   2 900.797 305.354   5
  -5   2  -2 1748.06 282.211   5
  -5   2  -2 1777.28 309.446  12
   5  -2   2 1807.59 290.308   1
   5  -2  -2 717.540 289.808   8
   5   2  -2 2160.42 392.017  18
   5   2  -2 2016.25 357.955   8
   5   2   2 905.420 310.138   1
   5  -2  -2 1112.37 357.880   1
  -5   2  -2 1796.78 299.157  19
   5   2  -2 1362.41 414.747  14
  -5   2  -2 1695.90 288.247   4
  -5  -2   2 1068.30 312.917  19
  -5  -2   2 972.938 297.888  17
  -5  -2   2 1010.58 278.679   2
  -5   2   2 2370.39 413.564  19
   5   2  -2 1900.74 423.942   1
  -5   2  -2 1641.67 395.149   3
   5  -2   2 2009.47 311.597   6
   5  -2   2 1590.40 279.850   8
   5  -2   2 1934.15 318.658  14
   5  -2  -2 1239.46 319.718  14
   5   2   2 637.660 321.144  14
  -5  -2   2 671.203 252.163   4
   5   2  -3 2219.79 441.348   1
  -5  -2   3 1382.36 301.159  19
  -5  -2   3 1438.50 358.217   5
  -5   2  -3 2010.08 316.187   4
  -5  -2   3 1444.32 298.553   2
  -5   2  -3 1998.13 293.652   5
   5  -2   3 1953.87 282.082   1
   5   2   3 167.900 108.030   1
   5   2  -3 2138.68 302.469  13
   5   2  -3 2393.32 328.616   8
  -5  -2   3 1216.44 331.429   4
   5   2  -3 2138.88 366.753  18
   5  -2   3 1743.92 290.406   8
  -5   2  -3 1969.79 313.742  12
  -5   2  -3 1843.87 303.469  19
  -5  -2   3 1363.82 348.501  17
   5  -2   3 2273.20 330.157   6
   5  -2  -3 994.230 367.218   1
  -5   2  -3 2188.85 390.294   3
   5   2  -3 1552.70 434.235  14
   5  -2   3 2072.68 323.901  14
   5  -2  -3 1206.88 325.107  14
   5   2  -4 730.790 166.509  13
   5   2  -4 940.219 251.410  18
   5  -2   4 985.156 303.526  16
  -5   2  -4 802.306 216.447   3
  -5   2  -4 695.673 187.284  12
  -5  -2   4 466.670 126.872  16
   5   2  -4 777.994 250.960   1
  -5  -2   4 707.708 242.534   5
  -5   2  -4 671.513 179.243   5
  -5  -2   4 654.974 193.067   2
   5  -2   4 790.033 176.303   1
   5  -2   4 928.811 218.604   6
   5  -2   4 779.755 202.474   8
  -5  -2   4 631.637 225.328   4
   5   2  -4 660.579 264.973  14
  -5   2  -4 732.591 197.054   4
  -5   2  -4 790.466 205.663  19
  -5  -2   4 577.773 218.515  17
   5   2  -4 916.200 179.752   8
  -5  -2   4 608.435 179.514  19
   5  -2   4 885.261 211.897  14
  -5  -2   5 1423.80 308.610   4
  -5   2  -5 315.891 160.579  13
  -5   2  -5 1261.66 273.707  12
  -2   5  -5 1799.77 426.398   3
   5  -2   5 1673.95 261.429   1
  -2   5  -5 1970.62 413.564  12
   2  -5   5 267.276 90.7269   6
  -5  -2   5 1487.44 342.378   5
  -5   2  -5 1457.95 268.582   5
   5   2  -5 1982.37 366.259  11
   5   2  -5 1370.71 262.042  20
   5   2  -5 1555.69 214.749   8
   5   2  -5 1690.09 328.990  18
   5  -2   5 1574.91 291.464   8
  -5  -2   5 1447.94 252.144  19
  -5   2  -5 1347.90 276.772  19
   5  -2   5 1952.49 321.602   6
   5  -2   5 2184.42 420.494  16
  -5  -2   5 1295.82 268.682   2
  -5  -2   5 1340.35 332.542  17
   5   2  -5 1671.87 354.498   1
   5   2  -5 2101.38 218.977   3
   2   5  -5 1970.93 606.232  13
  -5   2  -5 1405.36 287.914   4
   5  -2   5 1576.15 283.382  14
  -5  -2   5 1448.47 232.665  16
  -5   2  -5 1338.61 277.437   3
   5   2  -5 1295.29 363.271  14
   5   2  -6 1264.42 310.262   1
  -5  -2   6 993.708 293.098  17
  -5   2  -6 836.241 247.878  12
   5   2  -6 1200.00 195.936   8
  -2   5  -6 1327.75 305.089  12
   5  -2   6 1548.13 284.137   1
   2  -5   6 501.444 211.644   6
  -5   2  -6 1014.89 252.442   5
  -5  -2   6 1172.06 303.857   5
   5   2  -6 1353.24 304.255  11
   5   2  -6 990.466 268.882  20
  -5   2  -6 1001.67 253.146  19
  -5  -2   6 1162.21 211.878  19
  -5   2  -6 852.719 242.344   4
   5  -2   6 1223.42 259.385  14
   5   2  -6 1429.16 339.283  10
  -2   5  -6 419.351 195.118  13
  -5  -2   6 1107.49 251.918   4
   2   5  -6 1615.13 479.104  13
   2   5  -6 1241.17 319.239   3
   5  -2   6 1481.63 342.184  16
  -5  -2   6 1105.57 212.371  16
   5   2  -6 1164.68 274.419  18
   5  -2   6 1394.60 298.048   6
  -2   5  -6 1532.38 381.106   3
  -5  -2   6 973.850 235.814   2
   5   2  -6 788.952 275.226  14
   5   2  -6 1327.67 170.094   3
   5  -2   6 1255.89 276.134   8
  -5   2  -6 888.096 250.342   3
  -5   2  -6 787.823 215.063  13
  -5   2  -7 1721.29 299.796  13
  -2  -5   7 1346.46 299.958   6
  -5   2  -7 3268.61 366.193   9
   5   2  -7 3765.14 515.648  11
  -5   2  -7 2403.54 457.588   5
  -5  -2   7 3105.24 446.251   2
  -5   2  -7 2583.37 392.180  10
  -5  -2   7 3320.16 409.717   4
  -5  -2   7 3282.75 488.017   5
  -5   2  -7 2379.20 407.672  19
   5   2  -7 2066.32 439.102  20
   5   2  -7 3464.50 577.674  10
  -5  -2   7 3085.63 398.521  16
  -5   2  -7 2317.77 446.596   4
   5   2  -7 4160.60 635.273   9
   5   2  -7 3235.02 497.158   1
   2   5  -7 4190.74 684.345  13
   5  -2   7 4046.11 586.516  16
   5   2  -7 3325.79 426.079   8
   5  -2   7 3717.96 474.372  14
   5  -2   7 3788.81 494.596   8
   5  -2   7 4558.03 612.444   1
  -2   5  -7 3278.61 807.617  13
   5   2  -7 2353.29 443.048  14
  -5  -2   7 3017.07 521.087  17
  -2   5  -7 3757.66 488.418  12
  -2  -5   7 699.726 379.611  17
   5  -2   7 3976.79 532.962   6
   2   5  -7 4472.61 584.422   3
  -2   5  -7 3987.42 593.501   3
   2  -5   7 1898.06 390.906   6
   2   5  -7 3672.44 685.675  18
  -5   2  -7 1875.32 332.886  20
  -5  -2   7 3343.61 359.759  19
   5   2  -7 3233.63 471.232  18
   5   2  -8 448.660 251.806  20
   2   5  -8 1185.21 346.686  13
  -2   5  -8 1230.00 324.291   3
  -2   5  -8 1083.06 244.955  12
   2   5  -8 1205.23 301.972  12
   5  -2   8 1011.02 215.316   2
  -5  -2   8 970.403 268.766   5
   2   5  -8 1327.49 399.746  18
   5   2  -8 887.865 256.596   1
  -5   2  -8 838.034 207.275   9
  -5   2  -8 682.871 255.943   4
   5   2  -8 976.839 271.047  11
  -5  -2   8 901.164 258.121   2
  -5   2  -8 604.035 209.461  19
   5   2  -8 959.618 279.877  18
  -2  -5   8 351.914 115.610   2
  -5   2  -8 724.229 213.348  10
   5  -2   8 1355.68 325.834   6
  -2  -5   8 722.962 407.519  17
  -5   2  -8 1139.89 431.202  15
  -2  -5   8 650.938 211.406   6
   5   2  -8 1258.51 394.089   9
  -5  -2   8 904.260 294.904  17
   2  -5   8 393.773 116.569  16
   5   2  -8 783.742 242.871  14
   5  -2   8 1274.56 354.604  16
  -5  -2   8 1017.75 216.338   4
  -2   5  -8 1141.28 435.343  13
  -5  -2   8 899.070 203.230  19
  -5   2  -8 1114.20 388.244   7
   5  -2   8 509.383 223.836   1
  -5   2  -8 591.904 208.799  20
   2  -5   8 708.039 250.303   6
   2   5  -8 1187.68 286.759   3
   5   2  -8 1025.49 350.483  10
   5  -2   8 1281.30 298.767  14
   2  -5   8 379.947 93.5849   8
  -5  -2   8 945.758 246.463  16
   5  -2   8 1189.39 293.149   8
   2  -5   8 761.776 252.170  14
  -2  -5   8 212.273 96.0963  16
   2   5  -9 1182.63 325.221  13
   5   2  -9 167.914 164.264  20
  -2   5  -9 1055.60 384.863  13
   5  -2   9 1410.97 348.605   8
   2   5  -9 1202.08 256.222  12
   5   2  -9 1023.26 294.246   1
  -5   2  -9 530.702 200.937  20
   5   2  -9 1133.86 315.859  11
  -5  -2   9 1225.70 297.798   5
  -5  -2   9 1034.76 280.519  19
  -5  -2   9 953.352 294.135   2
   2  -5   9 1000.51 299.094   8
   5   2  -9 1008.30 283.974  18
  -5   2  -9 562.257 204.644  19
  -2  -5   9 541.982 279.880   2
  -5   2  -9 724.744 213.187   9
  -2   5  -9 1102.45 201.984   4
  -2   5  -9 1447.28 321.452  18
   2   5  -9 1270.37 364.948  18
  -2  -5   9 817.400 310.203  17
  -2   5  -9 1360.93 337.061   3
  -5   2  -9 403.776 226.161   4
   2  -5   9 586.308 228.420  16
   2  -5   9 1109.01 337.623  17
   2   5  -9 1319.78 304.090   3
  -5  -2   9 1286.91 241.781   4
  -5  -2   9 1061.04 334.154  17
   5  -2   9 1634.36 436.469  16
  -5  -2   9 1245.48 314.407  16
  -2  -5   9 513.334 215.161  16
   5   2  -9 845.371 336.156  10
  -5   2  -9 731.277 301.502   7
   5  -2   9 1317.82 352.585   6
  -2  -5   9 831.776 234.201   6
   2  -5   9 848.214 270.471   6
   5   2  -9 847.281 244.832  14
  -2   5  -9 1007.50 239.825  12
   5  -2   9 1377.51 219.849   2
   5   2  -9 1010.79 378.315   9
   2  -5   9 1095.67 248.448  14
  -5   2  -9 736.948 246.624  10
  -5   2  -9 795.331 369.535  15
   5  -2   9 1149.45 310.416  14
   5   2 -10 655.753 330.225  10
   5  -2  10 1692.95 235.495   2
  -2  -5  10 813.579 301.512  16
  -2   5 -10 1053.67 341.167  13
  -2   5 -10 1457.48 262.822  18
  -2   5 -10 1264.01 275.097  12
  -5  -2  10 1646.20 353.440   5
   5   2 -10 1094.80 328.748   1
   2   5 -10 1226.54 334.787  13
  -5  -2  10 1463.15 370.185   2
  -5  -2  10 1495.59 252.388   4
   2  -5  10 1602.17 319.006  17
   2  -5  10 1499.63 338.593   6
  -2   5 -10 1487.65 245.575   4
  -5  -2  10 1493.96 374.652  16
  -5   2 -10 555.264 182.339  19
  -5   2 -10 545.799 189.241   9
   5   2 -10 805.294 235.781  14
   2   5 -10 1231.03 324.109  18
   2   5 -10-145.293 194.473   1
   5  -2  10 1392.59 344.975   8
  -5   2 -10 475.593 162.371  10
  -5  -2  10 1431.85 399.112  17
  -2  -5  10 932.311 335.030  17
   2   5 -10 1441.80 260.532  12
   5   2 -10 1179.31 338.652  11
   2  -5  10 1157.61 385.988  16
  -5   2 -10 717.898 270.591   7
   5   2 -10 112.387 112.413  20
   5  -2  10 1726.10 420.738   6
  -2  -5  10 975.349 255.671   6
  -5   2 -10 928.100 386.540  15
   5  -2  10 1879.93 471.378  16
   5  -2  10 1538.42 392.048  14
   2   5 -10 1554.64 331.715   3
   2  -5  10 1266.59 212.979  14
  -2  -5  10 786.949 317.729   2
   5   2 -10 1127.79 392.423   9
  -5   2 -10 435.075 180.501  20
   5   2 -10 1186.66 323.275  18
  -2   5 -10 1375.76 340.882   3
   2   5 -11 674.386 357.883  13
  -2   5 -11 111.848 103.158  18
   2   5 -11 446.868 384.524   1
  -5   2 -11 16.6882 201.945  20
  -2   5 -11 281.061 407.261  13
   2  -5  11 359.610 265.837   8
  -2   5 -11 869.224 283.680  12
   2   5 -11 279.978 197.852  12
   5   2 -11 94.9383 92.0579  14
   5  -2  11 145.660 171.363   2
   5   2 -11 105.717 111.968  18
   5   2 -11 202.357 191.719  11
   5   2 -11 63.8338 55.0101  10
  -5   2 -11 191.978 377.462  10
   5   2 -11-493.598 656.463  20
   5  -2  11 323.952 331.334   8
  -2  -5  11 72.1708 185.512  16
   2  -5  11-8.67535 170.392  17
  -5  -2  11 79.9438 133.729   2
  -2  -5  11 114.448 272.547   2
   5  -2  11 135.732 387.109  14
   5  -2  11 301.024 376.280  16
  -5   2 -11 412.155 514.282   9
  -5   2 -11-280.367 342.175  15
  -5   2 -11-607.445 376.614   7
   5   2 -11 184.875 163.542   1
  -2  -5  11 90.3062 164.304   6
  -2   5 -11 114.866 162.731   4
  -2   5 -11 366.083 322.628   3
  -5  -2  11 95.7311 192.159  17
   2   5 -11 123.721 141.813  18
  -5   2 -11-17.0010 137.307  19
   2  -5  11 408.277 348.264  16
  -5  -2  11 56.2506 64.8689   4
   2  -5  11 448.855 290.744   6
   5   2 -11 164.768 200.594   9
  -5  -2  11 142.140 172.130  16
  -2  -5  11 165.240 259.776  17
   2  -5  11 442.581 148.952  14
  -5  -2  11 70.1242 116.026   5
   5  -2  11 476.170 393.895   6
  -5  -2  12 2167.45 508.438  17
   2   5 -12 1596.74 393.572  13
   5   2 -12 1223.44 361.469  11
   2   5 -12 2044.04 390.963  18
   5   2 -12 974.477 373.576   9
  -2   5 -12 1653.81 347.818  12
  -2  -5  12 1630.30 493.371   2
  -5  -2  12 2329.00 431.072   5
   2   5 -12 2277.26 473.717  11
   5   2 -12 1207.54 353.926   1
  -5   2 -12 283.900 166.908  19
   5  -2  12 2509.72 332.618   2
  -5  -2  12 2152.33 487.420   2
   2  -5  12 1760.36 494.820   2
  -5   2 -12 542.724 260.874  10
  -2  -5  12 1379.24 430.982  16
  -2   5 -12 1741.06 264.988  18
  -5   2 -12 280.630 122.789   9
   2   5 -12 2057.09 318.464  12
   5   2 -12 1267.04 347.947  18
  -2  -5  12 1444.47 386.828   6
   2   5 -12-55.4035 130.199   1
   5  -2  12 2686.48 649.430  16
  -5  -2  12 2129.97 312.018   4
   2  -5  12 1830.61 518.297  16
  -5   2 -12-100.525 328.525   7
  -5   2 -12 392.960 152.504  20
  -2  -5  12 1706.56 390.513  17
   5   2 -12 942.849 230.468  14
  -5  -2  12 2154.12 545.392  16
   5   2 -12 509.692 314.456  10
   2   5 -12 3354.95 840.301  15
  -2   5 -12 1278.76 396.683  13
   5  -2  12 2290.73 537.253   6
  -5   2 -12-281.639 460.409  15
   5  -2  12 2723.40 541.397   8
   5  -2  12 2293.79 577.357  14
  -2   5 -12 1705.75 399.631   3
   2  -5  12 2035.93 255.488  14
   2   5 -12 1917.84 392.873   3
   2  -5  12 1959.44 488.906   6
   5   2 -13-57.7249 198.737  10
  -2  -5  13 275.140 155.367  17
   2   5 -13 253.480 151.392  13
  -2   5 -13 344.609 118.748  18
   2   5 -13 290.746 155.945   3
   5  -2  13 476.077 258.426  16
  -5   2 -13-105.423 146.970  19
   2   5 -13 244.322 134.410  11
  -2   5 -13 459.133 147.262  11
   5   2 -13 143.790 141.608  11
   2   5 -13 341.790 141.045  12
   2  -5  13 438.021 270.878   2
   5   2 -13 143.984 109.872  18
  -5   2 -13-59.9090 134.234  20
  -5   2 -13 7.28341 95.5600  10
   5  -2  13 300.234 212.004  14
  -5  -2  13 421.069 193.627   5
   5   2 -13 150.246 116.308   1
   5   2 -13 213.262 177.755   9
   2   5 -13 517.310 388.667  15
   2  -5  13 228.621 178.903   6
  -2   5 -13 107.201 169.085   4
   2   5 -13 473.911 276.107  20
   2   5 -13 49.9559 70.3676   1
   2   5 -13 648.664 405.365   7
   5  -2  13 476.634 265.060   8
   5  -2  13 433.380 152.022   2
  -5  -2  13 644.396 367.758  16
   2  -5  13 441.661 159.458  17
  -2   5 -13 305.358 156.527  12
   2  -5  13 393.524 160.923   8
  -5  -2  13 311.536 188.356  17
  -2   5 -13 305.083 186.726   3
   2  -5  13 294.196 195.943  16
  -2  -5  13 189.882 145.953  16
  -2   5 -13 187.139 152.758  13
  -5  -2  13 304.289 92.0656   4
  -5  -2  13 229.050 147.616   2
   5  -2  13 375.053 238.378   6
  -2   5 -13 349.963 163.949  19
   2   5 -13 314.011 146.778  18
   5   2 -13 163.205 101.000  14
  -2  -5  13 353.398 189.931   6
   2  -5  13 390.212 131.460  14
  -2  -5  13 263.749 166.233   2
  -2   5 -14 853.377 208.644  18
   5   2 -14 498.902 256.958   1
  -2  -5  14 971.912 316.467  17
  -2   5 -14 414.494 242.226  13
   2   5 -14 753.344 327.756  13
   2   5 -14 23.1443 65.3883   1
   2   5 -14 903.605 238.569  12
  -2   5 -14 758.366 306.389   3
  -2  -5  14 935.856 383.575   2
   2   5 -14 1275.96 333.188  11
  -2   5 -14 993.353 231.601  11
   5  -2  14 1193.61 260.326   2
   5   2 -14 527.420 280.908  11
   2  -5  14 1004.56 417.667  16
   2   5 -14 848.666 349.442  20
   2   5 -14 553.189 336.809   7
  -2   5 -14 1657.64 669.151  15
  -5   2 -14-58.5423 138.449  19
  -5  -2  14 1253.56 348.171   5
   5  -2  14 1145.10 475.106  16
   5   2 -14 582.000 266.312  18
   2   5 -14 1002.47 526.329  15
   2  -5  14 1099.06 245.260   8
  -2   5 -14 670.516 287.837  20
   2  -5  14 916.733 237.911  17
  -2   5 -14 636.280 244.497  12
   5  -2  14 565.723 300.412  14
  -5  -2  14 1177.35 403.108  17
   2  -5  14 1421.93 462.373   2
  -2   5 -14 1622.73 631.252   7
  -5  -2  14 1323.00 513.047  16
  -5   2 -14-203.980 291.896  10
   2  -5  14 1102.64 275.807  14
  -5  -2  14 1151.41 380.194   2
   5  -2  14 1147.05 372.898   8
   2   5 -14 993.706 314.272   3
   2   5 -14 1062.96 306.387  18
   5   2 -14 374.852 306.974   9
   5  -2  14 1041.17 434.222   6
  -5   2 -14 57.9335 136.901  20
  -2  -5  14 1003.22 395.883  16
  -2  -5  14 726.495 327.684   6
  -2   5 -14 1053.94 277.036  19
   5   2 -14 394.224 147.253  14
   5   2 -14-118.945 421.528  10
   2  -5  14 1082.36 383.669   6
   2   5 -15 17.3054 78.8254   1
   5  -2  15 58.6124 82.2813   6
  -2   5 -15 83.2776 121.401  12
   2   5 -15 98.9129 144.974   3
   2   5 -15 41.8393 82.4768  12
  -5   2 -15-90.1376 173.778  19
   2   5 -15 52.5058 89.2191  11
  -2   5 -15 39.4778 53.1569  11
  -5  -2  15 80.1599 140.237   5
   5   2 -15-7.93712 48.8163  11
  -2   5 -15 115.453 169.614   3
   5  -2  15 18.7323 35.8993  16
  -2  -5  15-66.9543 88.6401   2
  -5  -2  15-52.7811 134.193  17
   2  -5  15 184.623 182.847  16
   2  -5  15 77.7755 67.0606   2
   5   2 -15-296.042 249.572   9
  -5  -2  15 62.8438 139.660   2
   2  -5  15 160.021 198.900   6
   5  -2  15 45.2099 134.465   8
   2   5 -15 17.4694 73.2938  20
  -2   5 -15 38.5397 39.6497  18
  -2   5 -15 166.916 185.228  10
   5   2 -15 32.2543 68.2867  18
   5   2 -15-751.439 891.357  10
   2   5 -15 196.505 265.557  10
  -2  -5  15 16.5273 13.1849  17
   2  -5  15 17.6730 31.3181   8
   2  -5  15-20.1958 48.6459  17
  -2   5 -15 12.4580 88.6227  13
   2   5 -15-858.815 729.223   7
   2  -5  15-18.8142 26.2939  14
   2   5 -15 40.6577 88.4700  18
  -2   5 -15 32.0244 63.4472  19
  -2   5 -15 241.279 379.109   7
  -5  -2  15-36.4323 134.437  16
   5  -2  15 140.953 127.449   2
   2   5 -15-779.306 752.032  15
  -2   5 -15 11.4598 47.7317  15
   5   2 -15 84.8211 123.970   1
   5   2 -15 6.00656 9.57229  14
  -2   5 -15 24.9791 55.4342  20
  -2  -5  15 5.11768 119.217   6
  -5   2 -15-490.116 516.771  10
  -2  -5  15 22.1627 35.9371  16
  -5   2 -15-484.504 281.345  20
   2   5 -16 755.017 398.013  20
  -2   5 -16 768.896 383.032  13
  -2   5 -16 858.418 355.682  20
  -2   5 -16 922.478 330.936  12
  -2   5 -16 1036.46 386.145   3
   5   2 -16-1149.06 1096.02  10
   2  -5  16 2013.21 585.027   2
  -5  -2  16 2045.60 712.947  16
  -2   5 -16 1158.25 272.174  19
  -5  -2  16 2068.20 565.494   2
   5  -2  16 1869.70 355.628   2
   2   5 -16 1255.54 351.217  11
  -5   2 -16-574.183 426.656  20
   5   2 -16 513.022 317.403  11
  -2  -5  16 1596.75 502.046   2
  -5   2 -16 99.0800 145.369  19
  -2   5 -16 1030.76 355.879  10
   5  -2  16 1853.94 542.429   8
   2   5 -16 2607.20 667.978   9
   2  -5  16 236.502 143.336  14
   2   5 -16 1146.05 326.089  18
  -2   5 -16 1109.08 291.484  18
   5   2 -16-181.549 360.627   9
  -2  -5  16 1747.31 447.918  17
   2  -5  16 1648.40 394.416  17
  -5  -2  16 1731.44 539.519  17
   5   2 -16 331.757 135.916  14
  -2   5 -16 1833.29 480.489   9
  -2  -5  16 463.177 301.428   6
  -5  -2  16 2162.74 458.284   5
   5   2 -16 541.422 302.804   1
   2   5 -16 975.347 447.166  10
   2  -5  16 1606.21 335.516   8
   2   5 -16 1305.00 343.642  12
   2   5 -16 327.648 236.244   1
   2  -5  16 1507.03 551.396  16
  -2  -5  16 1567.15 525.385  16
  -2   5 -16 1445.83 602.544   7
   5  -2  16 2027.60 642.086  16
   2  -5  16 2239.09 647.742   6
  -2   5 -16 1443.38 320.287  11
  -2   5 -16 1516.70 646.410  15
   2   5 -16 1308.38 406.300   3
   5  -2  16 1543.52 556.767   6
   5   2 -16 691.216 335.537  18
   5  -2  17 783.781 413.341  16
  -2  -5  17 509.651 250.170  17
   2   5 -17 299.447 277.872  10
   2   5 -17 181.823 225.362  20
  -2   5 -17 536.388 332.278  12
   2   5 -17 558.894 269.944  12
  -2   5 -17 484.841 308.964   3
   5  -2  17 434.334 321.594   6
   2  -5  17 555.595 215.227   8
   5   2 -17 223.224 166.997  18
   2   5 -17 396.989 215.234  11
  -2   5 -17 326.940 170.548  11
   5   2 -17 284.435 271.190  11
  -2   5 -17 462.770 293.153  10
  -5   2 -17 40.1809 146.549  19
   2   5 -17 916.136 412.241   9
  -2   5 -17 462.387 222.098  18
   2   5 -17 359.200 237.131  18
   2  -5  17 550.921 328.582   2
  -2  -5  17 695.368 353.514   2
  -2   5 -17 424.673 165.760  19
   5  -2  17 506.461 303.907   8
   2  -5  17 565.739 249.243  17
   2   5 -17 530.965 305.070   3
  -5  -2  17 751.442 354.318  17
  -5  -2  17 609.994 384.735   2
   5   2 -17 167.837 199.696   1
  -5  -2  17 683.656 483.036  16
  -2   5 -17-250.616 436.647   7
  -2  -5  17 364.688 280.762   6
  -2  -5  17 540.279 328.097  16
   2   5 -17 44.6983 134.644   1
   5  -2  17 530.092 224.550   2
  -5  -2  17 681.507 263.226   5
  -2   5 -17-58.6907 250.246  15
  -2   5 -17 225.604 205.928  20
   2  -5  17 725.615 413.019  16
   2  -5  17 479.212 362.347   6
  -2   5 -17 859.548 356.261   9
  -2   5 -18 548.788 327.552  20
   2   5 -18 887.999 313.324  12
   2   5 -18 704.466 235.920  11
   2   5 -18 922.953 389.816   9
   5  -2  18 1290.41 346.703   2
  -2   5 -18 835.536 280.340  11
   2  -5  18 1375.83 436.642  17
   5   2 -18 145.705 162.894  11
  -2   5 -18 633.974 376.295  10
  -5  -2  18 1491.01 398.098   5
   2   5 -18 819.051 435.011  10
   2  -5  18 1310.47 339.969   8
  -2  -5  18 873.661 337.699  17
  -2   5 -18-632.853 887.195  15
   2   5 -18 537.109 331.382  20
   2   5 -18 680.264 276.118  18
  -2  -5  18 1280.87 484.561   2
  -2  -5  18 1272.15 523.494  16
  -2   5 -18 483.450 225.966  18
  -5   2 -18-23.7435 68.8078  19
   5  -2  18 929.926 365.464   8
  -2   5 -18 895.643 360.392   9
   2  -5  18 1143.00 568.471   6
   2  -5  18 1429.79 531.899   2
  -5  -2  18 1092.71 436.253  17
   2  -5  18 1374.23 610.545  16
   5  -2  18 1765.69 650.739  16
  -5  -2  18 1339.93 645.395  16
  -5  -2  18 1527.03 527.977   2
   2   5 -18 274.506 245.985   1
   5  -2  18 1118.31 504.884   6
  -2  -5  18 506.105 510.079   6
   5   2 -18 230.029 221.445   1
   2  -5  19 2576.69 683.816   2
  -2   5 -19 937.099 377.705   9
  -5  -2  19 2287.46 511.817   5
  -5  -2  19 2336.19 672.698   2
   5  -2  19 2349.99 485.258   2
   2   5 -19 1017.71 348.137  11
  -5   2 -19 39.5050 145.819  19
  -2   5 -19 885.119 284.471  11
  -2   5 -19 622.375 379.222  10
   2   5 -19 952.496 451.586  20
   2   5 -19 1021.45 405.438  10
   2   5 -19 1308.73 380.353  18
   2  -5  19 2142.00 738.022  16
   2  -5  19 2054.78 402.185   8
   5   2 -19 368.745 335.183  11
   2   5 -19 924.089 367.096   9
   5   2 -19 161.875 167.144   1
  -2  -5  19 2078.84 547.869  17
  -5  -2  19 1760.00 587.805  17
  -2  -5  19 2124.15 613.918   2
  -2  -5  19-131.030 101.462   6
  -5  -2  19 2564.88 861.443  16
  -2  -5  19 2127.22 675.392  16
   2  -5  19 2372.48 585.879  17
   5  -2  19 2086.18 741.649  16
   5  -2  19 1824.51 645.233   6
   2  -5  19 1898.82 705.797   6
  -2   5 -19 693.950 378.956  20
   5  -2  19 1748.63 499.729   8
   5   3   0-35.2242 119.797   1
   5  -3   0 44.3930 101.438  14
   5  -3   0-51.4223 199.298   8
  -5   3   0-19.9702 96.9342  19
   5  -3   1 772.719 247.988   1
   5   3   1 101.388 164.000   1
   5  -3   1 1014.92 308.907   6
  -5   3  -1 1845.85 360.163  19
   5  -3   1 962.756 286.463   8
  -5   3  -1 1255.43 327.885  12
   5   3  -1 851.123 365.878   1
   5  -3   1 1114.73 293.875  14
   5   3  -2 121.253 154.530  13
   5   3  -2 288.167 163.102  18
   5  -3   2 259.348 149.086   6
  -5  -3   2 44.6674 126.097  17
  -5   3  -2 379.995 155.272  19
   5  -3   2 265.246 139.985   8
   5  -3   2 186.392 101.654   1
   5   3  -2 218.742 167.760   1
   5  -3   2 281.474 149.504  14
  -5   3  -2 268.238 139.913  12
   5   3  -3 4.94222 145.224  14
   5   3  -3 2346.07 564.728   1
  -5   3  -3 2117.77 370.172  12
   5   3  -3 1761.88 375.571   8
  -5   3  -3 2331.43 348.843   5
   5  -3   3 1811.32 328.606   8
   5   3  -3 2669.67 511.776  18
  -5  -3   3 654.364 248.000   2
  -5   3  -3 2256.68 503.593   3
  -5   3  -3 2320.30 367.044  19
   5  -3   3 1777.93 322.929   1
   5  -3   3 2037.49 357.649  14
  -5  -3   3 759.199 307.323  17
  -5   3  -3 2181.33 354.491   4
   5  -3   3 2152.69 379.789   6
   5   3  -3 2712.76 508.121  13
   5  -3   4 568.787 180.519   8
   5  -3   4 612.116 191.267  14
  -5   3  -4 617.173 209.094  12
  -5   3  -4 663.771 183.283   5
   5  -3   4 586.294 173.438   1
  -5   3  -4 626.299 198.509  19
  -5  -3   4 355.090 193.772  19
   5   3  -4 696.341 262.055  18
   5   3  -4 769.903 233.646  13
  -5   3  -4 613.825 190.567   4
   5   3  -4 613.523 199.106   8
  -5  -3   4 418.124 212.246  17
  -5  -3   4 293.400 161.704   2
   5   3  -4 596.719 266.696   1
   5  -3   4 708.773 214.692   6
   5   3  -4-16.8138 74.7264  14
  -5   3  -4 672.747 239.188   3
  -5   3  -5 895.716 232.831  12
  -3   5  -5 1053.84 289.051  12
  -5  -3   5 573.573 205.024   2
   5   3  -5 980.897 234.528  13
  -5   3  -5 1049.39 292.105   3
  -5  -3   5 482.661 217.425   5
   5  -3   5 812.540 173.528   1
  -5   3  -5 963.473 234.892  19
  -5  -3   5 611.065 195.559  19
  -5   3  -5 865.111 193.185   5
  -5  -3   5 610.934 245.882  17
   5   3  -5 917.863 200.072   8
   5  -3   5 940.601 239.802   6
  -5   3  -5 918.363 223.351   4
   3  -5   5 247.103 141.376   6
   5  -3   5 871.244 215.072   8
   5   3  -5 1040.81 302.988  18
  -3   5  -5 966.934 327.287   3
   5   3  -5 895.668 308.359   1
   5   3  -5 45.1931 60.6262  14
   5  -3   5 955.060 231.139  14
   3   5  -5 1072.74 403.628  13
   5   3  -6 3003.95 398.802  13
  -5   3  -6 3119.08 422.003  19
  -5   3  -6 2642.93 412.535  12
   5   3  -6 3179.13 571.048   1
  -3   5  -6 3645.65 512.235  12
  -5  -3   6 2292.05 411.396   2
  -5  -3   6 2194.43 481.863   5
  -5   3  -6 2897.53 354.506   5
  -5  -3   6 2253.30 497.827  17
   5  -3   6 3070.16 319.008   1
  -5  -3   6 2204.32 344.024  19
  -5  -3   6 2058.13 356.119  16
   3   5  -6 2752.50 575.478  18
  -5   3  -6 3050.50 421.962   4
   3  -5   6 1551.66 383.871   6
  -3  -5   6 148.174 197.218  17
   3   5  -6 4236.41 727.728  13
   5  -3   6 2714.87 396.554   8
   5   3  -6 3497.29 517.788  18
   5   3  -6 3519.08 321.668   8
   5  -3   6 3525.81 673.664  16
   5  -3   6 3327.23 454.031   6
  -5   3  -6 2989.71 478.190   3
  -3   5  -6 3752.48 632.228   3
   5   3  -6 3951.88 420.924   3
   5  -3   6 3102.55 403.903  14
   5   3  -6 173.525 139.892  14
  -5   3  -6 306.487 162.959  13
   3   5  -7 1533.92 399.794  13
   5   3  -7 1100.73 250.731  13
  -5  -3   7 958.225 239.358  16
  -3   5  -7 1145.77 267.725  12
  -5  -3   7 542.681 195.045   4
  -5   3  -7 884.459 236.773  12
   5   3  -7 1105.57 328.983   1
   5   3  -7 1262.02 309.122  18
  -3  -5   7 425.496 169.750   6
   5  -3   7 1238.65 212.216   1
  -5   3  -7 1059.15 228.451   5
  -5  -3   7 878.234 260.996   2
  -5   3  -7 962.234 117.242  11
  -5   3  -7 1088.45 267.905   4
  -5   3  -7 1050.71 251.585  19
  -5  -3   7 833.468 298.659   5
   3  -5   7 882.377 298.630  14
   5  -3   7 1190.95 249.353  14
  -5  -3   7 906.518 195.631  19
   5   3  -7 46.2723 63.4779  14
  -3  -5   7 312.802 225.272  17
   5   3  -7 1213.28 172.773   8
  -5  -3   7 895.674 307.698  17
  -3  -5   7-23.4782 207.490   2
   3  -5   7 592.581 199.849   8
   3   5  -7 1281.37 408.822  18
   5  -3   7 1385.99 402.787  16
  -3   5  -7 1480.24 377.515   3
  -5   3  -7 614.909 270.627  13
   3   5  -7 1313.77 326.301   3
   5  -3   7 1303.76 298.849   6
   3  -5   7 744.010 263.648   6
   5   3  -7 1511.19 235.163   3
  -5   3  -7 957.443 272.457   3
  -3   5  -7 632.949 353.313  13
   5  -3   7 1091.94 262.139   8
   3   5  -8 2861.40 518.736  13
  -5   3  -8 1698.89 397.627  13
  -3  -5   8 1737.65 319.560   6
  -5   3  -8 2025.94 381.465  12
   5  -3   8 3362.83 427.396   1
  -3   5  -8 2842.74 423.023  12
   5   3  -8 2699.45 509.985   1
  -5  -3   8 2336.36 376.445  16
  -5   3  -8 2359.31 385.466   5
  -5  -3   8 2206.31 419.508   2
  -5  -3   8 2338.10 487.190   5
   5   3  -8 3219.42 507.850  11
  -5   3  -8 2533.66 242.135  11
  -5  -3   8 1888.59 417.220   4
   5   3  -8 2247.03 441.428  20
  -3  -5   8 1445.15 463.466  17
  -5  -3   8 2251.26 288.002  19
  -3   5  -8 3305.27 556.519   3
  -5  -3   8 2328.41 491.230  17
  -5   3  -8 2117.41 406.499   4
   5  -3   8 2736.23 409.439   8
   5   3  -8 2751.85 314.393   8
   5  -3   8 2815.38 396.058  14
   3  -5   8 2113.84 413.675   6
   3   5  -8-25.0997 117.794   1
  -5   3  -8 2241.16 378.229  19
   5  -3   8 3310.78 613.219  16
   5   3  -8 192.305 155.003  14
   3  -5   8 1224.87 390.480  16
  -3   5  -8 2759.99 370.407   4
   5   3  -8 2857.50 329.389   3
   5  -3   8 3215.80 497.174   6
   3   5  -8 3261.22 483.640   3
   3   5  -8 3334.65 622.722  18
   3  -5   8 2407.29 430.209  14
  -5   3  -8 2060.45 404.553   3
  -3  -5   8 920.870 347.509   2
   5   3  -8 2750.43 472.445  18
   3  -5   8 2156.12 443.324   8
  -3   5  -8 2575.71 730.353  13
   3   5  -9 1767.51 388.140  13
  -3  -5   9 996.850 360.490   2
  -5   3  -9 1298.74 348.405   5
  -3   5  -9 1637.19 517.939  13
   5  -3   9 1367.25 374.380   1
  -5   3  -9 792.847 244.169  13
  -5   3  -9 1138.15 316.289  12
   5   3  -9 1446.87 159.494  12
   3   5  -9 1928.59 383.772  12
   5   3  -9 1417.93 372.858   1
   3   5  -9 1847.29 448.024  18
  -5  -3   9 1235.97 329.104   2
   5   3  -9 1614.05 373.120  11
  -5   3  -9 1178.60 216.694  11
  -5  -3   9 1361.45 377.534   5
  -3   5  -9 2371.93 473.947  19
  -3   5  -9 1990.45 322.097  18
  -3  -5   9 1113.12 406.269  17
  -5   3  -9 1094.34 265.920  19
  -3   5  -9 1826.96 403.215   3
  -3   5  -9 1683.34 277.245   4
  -5   3  -9 1204.95 328.207   4
   3  -5   9 1227.74 318.424   8
  -5   3  -9 804.495 231.765  20
   5   3  -9 1541.20 356.461  18
  -5  -3   9 1305.48 221.371  19
  -3  -5   9 899.395 288.645  16
   5  -3   9 1637.86 330.624   8
   3  -5   9 1848.60 393.776  17
   5   3  -9 1260.17 363.335  20
  -5  -3   9 1377.60 314.108   4
   5  -3   9 1978.11 478.730  16
   5   3  -9 1643.49 435.226  10
  -5  -3   9 1369.17 310.502  16
   3   5  -9 106.339 89.9259   1
   5  -3   9 1920.33 397.644   6
   5   3  -9 153.191 143.451  14
  -3  -5   9 1058.26 245.921   6
   3  -5   9 1460.77 361.235   6
   3   5  -9 1849.42 356.611   3
   5  -3   9 1615.65 315.428  14
   3  -5   9 1418.14 282.791  14
   5   3  -9 1665.44 262.595   3
  -5   3  -9 1172.24 318.154   3
   3  -5   9 1051.03 382.893  16
  -5  -3   9 1544.79 401.152  17
  -3   5  -9 1412.38 302.067  12
  -3   5  -9 1475.15 198.597   5
  -5   3 -10 524.053 350.955  15
  -3  -5  10 279.778 132.494   6
  -3   5 -10 368.257 201.818   3
   3  -5  10 412.845 192.340   6
   5   3 -10 567.196 325.728   9
  -3   5 -10 204.831 231.972  13
   3   5 -10 465.849 253.612  13
  -5   3 -10 133.513 163.053  13
   5   3 -10 372.537 95.9069  12
  -3  -5  10 266.980 220.914   2
  -5  -3  10 249.352 175.951   2
  -3   5 -10 350.541 144.298  12
   5   3 -10 122.279 61.3739  20
  -3   5 -10 341.337 87.5558   5
   3   5 -10 444.354 175.535  12
   5   3 -10 410.924 157.141  11
   5  -3  10 64.9611 196.165   2
  -5  -3  10 288.820 176.786   5
  -5   3 -10 160.804 248.695  11
   5  -3  10-77.3599 98.4550   1
  -5   3 -10 379.218 222.443  10
   5  -3  10 453.245 201.082   6
   5   3 -10 317.910 171.953  18
  -3   5 -10 399.011 162.383  19
  -5  -3  10 276.754 156.038  17
  -3   5 -10 372.444 99.7477  18
   3   5 -10 435.272 234.044  18
  -5   3 -10 225.585 160.662  20
  -5  -3  10 323.223 189.496  19
  -5  -3  10 348.336 136.309   4
   3  -5  10 369.480 140.510  17
  -3  -5  10 150.701 150.068  17
   5  -3  10 438.239 198.924   8
   3   5 -10-77.1110 146.882   1
   3  -5  10 223.087 72.3279  16
   3  -5  10 558.317 185.377   8
  -3   5 -10 458.941 159.408   4
  -3  -5  10 269.075 189.154  16
  -5   3 -10 616.537 263.934   9
   5  -3  10 456.997 227.903  16
  -5  -3  10 288.085 160.895  16
   5   3 -10 179.338 144.305  10
  -5   3 -10 676.717 371.272   7
   3   5 -10 532.709 220.069   3
   5   3 -10 300.696 175.110   1
  -5   3 -10 391.356 237.365  19
   5   3 -10-14.3714 42.1092  14
   5  -3  10 427.335 192.573  14
  -5   3 -10 131.861 89.6356   4
   3  -5  10 375.336 130.389  14
  -3   5 -11 1346.87 241.990   5
  -5  -3  11 1170.94 258.855   4
  -5  -3  11 1280.72 351.000   5
  -5  -3  11 1214.16 349.662   2
   5  -3  11 1547.35 360.592   8
  -5   3 -11 2108.12 597.713  11
   5   3 -11 1117.75 327.745  11
  -3   5 -11 2499.29 437.072  19
   5   3 -11-118.806 146.445  14
  -5   3 -11 990.542 349.206  20
   3  -5  11 1593.49 501.950  16
   5   3 -11 1363.28 437.534   9
  -3   5 -11 1862.22 372.712   4
  -5   3 -11 1144.18 375.116  10
  -3   5 -11 1367.71 204.593  18
   3   5 -11 1658.27 436.319  18
  -3  -5  11 1058.84 416.169   2
   5   3 -11 900.328 301.129  18
   3  -5  11 2198.97 377.651   8
  -5  -3  11 1231.28 371.544  16
   3  -5  11 1757.84 277.106  17
  -5  -3  11 1518.29 458.960  17
   3   5 -11 575.473 454.582   1
  -3  -5  11 1069.06 391.965  16
  -5   3 -11 782.339 446.418   4
   5   3 -11 851.786 274.063   1
  -5   3 -11 1594.16 572.165   7
  -3  -5  11 1288.15 441.229  17
  -3  -5  11 879.250 283.584   6
   5  -3  11 1239.25 391.340   6
   3  -5  11 1417.33 415.675   6
  -5   3 -11 1151.42 500.977  15
   5  -3  11 1497.42 385.611  14
   5   3 -11 685.090 355.408  20
   3  -5  11 1515.38 250.732  14
  -3   5 -11 1720.86 442.931   3
  -3   5 -11 1802.00 390.079  12
   5   3 -11 821.641 357.755  10
  -3   5 -11 2373.11 600.810  13
   5  -3  11 1668.69 500.094  16
   3  -5  12 122.603 160.493   6
   3  -5  12 150.689 82.4289  17
   3   5 -12 57.4910 75.6938   3
  -3   5 -12 36.7761 102.617  13
  -3  -5  12 105.457 144.850  16
   3   5 -12 17.6332 49.0354  18
  -3   5 -12 55.4172 62.5987  12
  -3   5 -12 86.0121 70.8899  11
   5   3 -12 104.141 152.173  11
   3  -5  12 274.612 206.711  16
  -5   3 -12 172.489 163.870  10
  -5   3 -12 86.2096 140.324   9
  -5   3 -12 157.414 141.995  19
  -3  -5  12 58.8547 80.2393   2
  -3   5 -12 76.6218 52.6317  18
   5   3 -12-23.4973 116.625   9
   3   5 -12-11.9621 76.6466   1
  -5  -3  12 83.7614 115.311   5
   3   5 -12 35.7383 16.1490  12
  -3   5 -12-54.6150 95.4213   3
   5   3 -12 58.8431 33.5834  18
  -3  -5  12 81.2814 125.404  17
   5   3 -12 8.51826 50.2435   1
  -5   3 -12 171.082 297.189  15
  -3   5 -12-3.25538 87.2030   4
   5   3 -12-27.2556 96.9593  20
   3   5 -12 153.798 189.862  11
  -5  -3  12 52.6909 70.2154  17
  -5  -3  12 58.7890 79.8276   2
   3  -5  12 34.4871 36.2405   8
  -5  -3  12 86.6467 98.7020   4
   5  -3  12 54.8273 34.0641  14
   3   5 -12 289.035 307.046   7
   5  -3  12 92.2005 98.6839  16
  -5  -3  12 34.1855 11.9572  16
  -5   3 -12 92.7978 116.020  20
   5  -3  12 68.5989 116.385   2
   5   3 -12-51.8230 87.4826  14
   3   5 -12 110.671 226.321  15
  -3   5 -12-44.5484 91.8918  19
   5   3 -12 183.240 192.464  10
  -5   3 -12-20.9755 101.954   7
   3  -5  12-342.169 494.009   2
   5  -3  12 70.8258 89.9153   8
   3  -5  12 76.7283 56.3785  14
   5  -3  12-2.55525 33.7183   6
  -3  -5  12 155.491 198.887   6
   3   5 -12 65.0024 90.0191  13
   3   5 -13 1757.51 427.333  13
   3  -5  13 2277.71 345.382  14
   5  -3  13 2920.40 467.793   2
  -3   5 -13 1270.65 417.808  13
  -3   5 -13 1458.92 351.399  12
   3   5 -13 2146.44 326.854  12
  -5   3 -13 860.334 277.700  19
  -5  -3  13 2516.27 484.674   5
   5   3 -13 1480.18 401.546   1
   5   3 -13 1729.58 445.611  11
   3   5 -13 1471.22 462.182  20
  -3   5 -13 1698.30 443.588   4
   3  -5  13 1793.02 545.112   2
  -5  -3  13 2054.61 319.601   4
  -3  -5  13 918.446 350.360   6
   3  -5  13 2000.44 567.979  16
   5   3 -13 1171.26 462.670  10
  -5   3 -13 1134.12 314.036   9
   3   5 -13 1877.46 420.669  18
   5   3 -13 1746.08 505.293   9
  -3   5 -13 1888.88 272.113  18
  -5   3 -13 936.672 407.826   7
   3   5 -13 2270.14 432.156   3
   5  -3  13 2673.50 499.432   8
  -5  -3  13 2065.74 512.366  17
   5  -3  13 2622.46 601.638   6
  -3  -5  13 2020.26 493.189  17
   3  -5  13 2231.19 319.418  17
  -3  -5  13 1764.48 484.820  16
  -5  -3  13 2421.21 555.543  16
  -5  -3  13 2195.44 491.633   2
   5   3 -13 527.642 357.458  20
   3   5 -13 2252.91 466.852  11
  -5   3 -13 974.128 336.125  10
   3   5 -13 2065.26 636.380   7
  -5   3 -13 743.207 268.324  20
   5   3 -13 1639.23 413.503  18
   3  -5  13 2425.74 557.043   6
   3   5 -13 1900.88 673.660  15
  -5   3 -13 1121.42 464.160  15
   5  -3  13 2753.13 618.623  14
  -3   5 -13 1472.04 406.807   3
   3   5 -13 884.997 351.813   1
  -3  -5  13 1857.04 508.537   2
   5  -3  13 2657.87 648.192  16
   5   3 -14-135.827 198.345  20
  -3   5 -14 96.9641 175.281  13
   3   5 -14 252.885 236.640  13
   3  -5  14 376.536 256.392  16
  -3   5 -14 212.742 209.410   3
  -3   5 -14 219.280 148.617  12
   3   5 -14 168.519 111.749  12
  -5   3 -14 0.16098 60.9492  19
   3   5 -14 102.338 66.4719  11
  -5  -3  14 220.563 106.402   4
  -3   5 -14 169.258 83.9795  11
   5   3 -14 165.374 139.084  11
  -3   5 -14 274.025 185.470  20
  -3   5 -14 269.140 134.793  19
  -5  -3  14 315.980 194.258   5
  -5   3 -14 16.4898 72.9626  20
   3  -5  14 170.350 274.849   2
  -3   5 -14-307.644 403.974   4
   5   3 -14 90.5418 49.7093   9
  -3   5 -14 239.744 108.015  18
  -5   3 -14-96.8525 133.100   9
   3  -5  14 287.635 151.883   8
   3   5 -14 235.155 174.802  18
  -5   3 -14-238.132 341.968  15
   5  -3  14 263.430 218.768   6
  -3  -5  14 201.236 163.776   2
   5  -3  14 293.908 197.912  14
  -5  -3  14 198.795 162.518   2
   5  -3  14 340.986 196.797   8
   3  -5  14 221.939 128.575  17
  -5  -3  14 215.487 173.419  17
   5   3 -14 65.6063 94.3752  18
   5   3 -14 43.6920 56.9114   1
  -3  -5  14 179.944 164.374  16
   5  -3  14 317.603 257.726  16
   3   5 -14 2.66247 15.5613   1
  -5  -3  14 325.120 233.259  16
  -5   3 -14-584.546 364.693   7
   5   3 -14 67.7005 129.079  10
   5  -3  14 322.535 203.611   2
  -3   5 -14 374.649 378.287  15
   3   5 -14 559.186 381.055  10
  -3  -5  14 217.113 154.367  17
   5   3 -14 46.2635 100.320  14
   3   5 -14 191.695 153.236   3
   3  -5  14 201.060 116.637  14
  -3  -5  14-54.7212 163.091   6
  -5   3 -14-97.8361 148.891  10
   3   5 -14 161.584 157.149  20
  -3   5 -14 526.467 470.373   7
   3  -5  14 205.523 210.523   6
   5   3 -15 236.556 212.874   9
   5  -3  15 623.291 267.929   8
  -3   5 -15 420.714 170.658  19
  -3   5 -15 364.373 255.402  13
   3  -5  15 538.920 181.064   8
   3   5 -15 417.267 216.094   3
   5  -3  15 669.771 381.633   6
  -3   5 -15 321.913 202.332  12
   3  -5  15 650.867 362.300   2
  -5   3 -15 22.1659 99.6519  19
  -3   5 -15 518.219 164.197  11
   5   3 -15 236.750 192.239  11
   5   3 -15-215.759 534.282  20
   3   5 -15 440.065 222.793  11
   3   5 -15 248.793 165.923  18
  -3   5 -15 488.848 269.505  10
  -5   3 -15 126.646 193.381  20
  -3   5 -15 449.763 177.332  18
   5   3 -15 257.143 187.802  18
  -5  -3  15 457.184 234.529  17
   3   5 -15 364.239 263.237  20
  -5   3 -15 169.234 153.889   9
  -5   3 -15 326.010 231.790  10
   3   5 -15 506.294 194.077  12
  -3  -5  15 168.854 178.391   6
  -3  -5  15 618.138 294.655   2
   3   5 -15 859.548 393.242  10
  -5  -3  15 691.132 267.011   5
   5  -3  15 554.114 227.153   2
   3  -5  15 679.333 364.556  16
  -5  -3  15 563.492 156.472   4
  -3  -5  15 393.934 201.421  17
   3  -5  15 485.152 197.189  17
   5   3 -15 355.728 308.615  10
  -3   5 -15 395.294 239.114  20
  -5  -3  15 436.358 255.342   2
   5  -3  15 692.119 366.737  16
  -5  -3  15 876.173 394.648  16
   5   3 -15 215.263 151.903   1
  -3   5 -15 880.516 499.604   7
   3   5 -15 225.152 234.437   1
  -3  -5  15 494.636 294.718  16
  -3   5 -15 592.395 380.967  15
   5  -3  15 506.931 311.209  14
   5   3 -15 10.5024 50.0104  14
   3  -5  15 612.841 266.498  14
  -3   5 -15 474.629 278.657   3
   3  -5  15 470.177 274.136   6
   3   5 -16 230.218 259.494  20
   3  -5  16 256.965 146.641  17
  -3   5 -16 234.975 216.639  12
  -3   5 -16 252.140 296.639  13
   3   5 -16 165.617 136.974  12
   3   5 -16 266.307 204.187   3
  -5   3 -16-168.697 198.318   9
   3   5 -16 191.419 166.285  11
  -3   5 -16 94.0506 62.5113  11
   5   3 -16 144.311 184.882  11
   5   3 -16-720.143 798.179  20
  -5   3 -16-53.3132 127.128  20
  -5   3 -16 68.3495 83.4176  10
  -3   5 -16 479.921 287.143   9
  -3   5 -16 35.6043 37.7240  19
  -3   5 -16 272.329 244.225   3
   5   3 -16 322.913 313.247   9
   3  -5  16 276.051 276.415   2
   3   5 -16 101.741 133.141  18
   5   3 -16-25.3637 126.390  10
  -5  -3  16 376.683 196.183   5
  -3   5 -16 74.7227 116.343  15
  -3   5 -16 80.4795 53.9258  18
  -3  -5  16 111.624 138.541   2
   5  -3  16 219.848 183.532   8
  -3   5 -16 235.994 212.610  10
   5  -3  16 148.611 124.535   2
   3  -5  16 162.057 132.022   8
  -5  -3  16 136.455 77.5029   4
  -5  -3  16 193.234 190.989   2
   3  -5  16 162.997 233.871  16
  -3  -5  16 136.797 171.576  16
   5   3 -16 167.923 180.790  18
  -3   5 -16 340.490 379.785   7
   5  -3  16 357.083 266.572  16
  -5  -3  16 257.834 245.991  16
  -3   5 -16 89.8003 80.0641  20
   3   5 -16 208.829 228.833  10
   5   3 -16 86.7939 102.237   1
   3   5 -16-106.192 141.382   1
  -5   3 -16 254.024 221.336  19
   5  -3  16-18.5761 247.663  14
  -3  -5  16 42.3595 104.330   6
   3  -5  16 119.165 94.5733  14
   5  -3  16 145.368 50.8650   6
   3  -5  16 277.029 258.350   6
  -5  -3  16 303.476 198.641  17
   3   5 -16 1027.69 513.270   9
  -3  -5  16-71.4654 140.227  17
   5   3 -17 80.1877 103.431  10
  -3   5 -17 641.628 394.834  13
   3   5 -17 1086.56 308.184  12
  -3   5 -17 610.100 306.702  12
  -5  -3  17 1562.84 407.173   5
  -5   3 -17-159.229 299.962   9
   3  -5  17 1436.67 406.035  17
   5  -3  17 1346.21 375.961   2
  -3  -5  17-26.9331 100.597   6
  -3   5 -17 546.665 342.663   7
  -3   5 -17 885.102 271.906  11
   5   3 -17 412.160 239.081  18
   5   3 -17 526.717 299.497  11
   3   5 -17 1219.94 487.482  10
   3   5 -17 381.645 206.246   1
  -5   3 -17 83.8352 153.139  20
  -3   5 -17 596.527 303.073  10
  -3   5 -17 767.934 411.401   3
  -3   5 -17 710.555 229.166  19
   3   5 -17 1280.16 482.386   9
   3   5 -17 1027.93 390.038   3
   3  -5  17 1756.58 575.574   2
   3   5 -17 829.231 263.890  18
   3  -5  17 1239.92 334.059   8
  -5   3 -17 260.389 166.303  19
  -3  -5  17 1338.27 508.231   2
   5  -3  17 1400.97 433.742   8
  -5  -3  17 1170.93 445.328   2
   3   5 -17 456.125 333.931  20
   3  -5  17 1289.66 503.620  16
  -5   3 -17 280.755 290.735  10
   5   3 -17 359.988 313.175   9
  -3  -5  17 1213.49 382.829  17
  -3   5 -17 850.785 310.609   9
  -5  -3  17 1296.85 450.972  17
  -3  -5  17 1004.94 448.316  16
   3   5 -17 815.981 320.731  11
   5  -3  17 1413.12 552.079  16
  -5  -3  17 1372.37 548.617  16
  -3   5 -17 619.599 452.480  15
   5   3 -17 590.619 291.158   1
   3  -5  17 291.780 196.488  14
  -3   5 -17 558.263 291.122  20
   5  -3  17 1440.44 561.112   6
   3  -5  17 1307.25 518.377   6
  -3   5 -17 485.752 236.691  18
  -5  -3  18 1513.50 532.681  17
  -5   3 -18-193.909 341.443  10
  -3   5 -18 885.099 396.299  12
  -3   5 -18 626.412 298.727  20
  -5  -3  18 1713.19 419.551   5
   3   5 -18 1079.02 379.473  18
   5  -3  18 1432.02 379.249   2
   3   5 -18 1084.58 365.826  11
  -3   5 -18 845.255 247.513  11
   5   3 -18 984.964 423.763  11
   3   5 -18 604.824 394.751  20
   3  -5  18 1484.23 371.031   8
  -3  -5  18 1511.79 447.450  17
   3   5 -18 1023.40 497.294  10
   3   5 -18 1412.42 557.530   9
   3  -5  18 1999.90 634.222   2
   5   3 -18 585.860 340.070  18
  -3   5 -18-197.016 689.531   7
   3  -5  18 2016.18 561.674  17
   5  -3  18 1412.64 425.883   8
   5   3 -18 1012.11 511.212   9
  -5   3 -18-202.568 262.363  20
  -5  -3  18 1636.36 587.095   2
  -5   3 -18 96.0713 44.0242  19
   3  -5  18 1588.93 628.717  16
  -3  -5  18 1850.31 611.071  16
   5  -3  18 1641.31 617.770  16
  -5  -3  18 1337.57 544.282  16
  -3   5 -18-178.254 611.947  15
  -3  -5  18 267.276 200.210   6
  -3  -5  18 1624.54 576.996   2
   5   3 -18 334.399 211.556   1
   5  -3  18 1167.75 477.152   6
   5   3 -18-184.856 504.227  10
   3   5 -18 341.599 271.329   1
   3   5 -18 1021.41 265.762  12
  -3   5 -18 593.300 308.828  10
   3  -5  18 1421.96 574.164   6
  -3   5 -18 778.629 304.528   9
   3   5 -19 1163.48 399.605  12
  -3   5 -19 462.974 332.108  10
   3  -5  19 1430.42 514.886   2
   3   5 -19 422.939 430.388  10
   5  -3  19 1261.01 422.508   8
   5  -3  19 1375.37 371.709   2
   3   5 -19 711.424 327.931  11
  -3  -5  19 1211.23 532.804  16
  -3   5 -19 374.579 167.371  11
   5   3 -19 346.961 255.597  11
   3   5 -19 522.947 376.468  20
  -5  -3  19 1285.90 359.476   5
  -5  -3  19 1340.59 474.589  17
   5   3 -19-976.309 881.414  10
   3   5 -19 1266.69 516.806   9
  -3  -5  19 80.4878 65.5276   6
   3  -5  19 1117.64 329.826   8
  -5   3 -19 158.987 161.841  19
   5   3 -19-371.369 487.027   9
   3  -5  19 960.774 575.732  16
  -3  -5  19 1187.24 417.071  17
   3   5 -19 660.209 297.517  18
  -3   5 -19 648.923 326.049   9
  -5   3 -19-395.678 400.626  20
   3  -5  19 864.771 233.847  17
   5  -3  19 1126.96 522.434   6
  -5  -3  19 1341.38 487.097   2
  -5  -3  19 953.310 516.940  16
   5   3 -19 314.475 191.259  18
  -3   5 -19 334.360 246.251  20
   5   3 -19 192.428 172.369   1
   5  -3  19 1771.97 651.946  16
   3  -5  19 1398.55 605.208   6
  -3  -5  19 1303.50 498.355   2
   5  -4   2 73.0550 195.746   6
  -5   4  -2 636.491 227.941  19
   5   4  -2 95.5309 128.558   1
   5  -4   2 94.5297 201.343   8
   5   4  -3 316.696 128.813  13
   5  -4   3 230.229 137.622   8
  -5   4  -3 410.612 193.353  12
   5  -4   3 188.780 133.303   6
   5   4  -3 310.909 135.167  18
  -5   4  -3 545.644 215.417  19
   5   4  -3 259.101 216.483   1
  -5  -4   3 13.7710 96.6886  17
   5  -4   3 272.822 164.640  14
   4   5  -4 114.302 264.811  13
   5   4  -4 368.576 191.303  13
  -5   4  -4 324.819 162.114  19
   5  -4   4 164.872 115.221   6
   5   4  -4 377.425 225.715  18
   4  -5   4-77.8923 180.276   6
  -5   4  -4 338.267 172.324  12
  -4   5  -4 246.416 21.5393  12
  -5  -4   4-4.36983 118.061  17
   5   4  -4 302.807 200.641   1
  -5   4  -4 337.600 204.809   3
   5  -4   4 212.946 131.749   8
   5  -4   4 257.542 160.596  14
   5   4  -5 985.220 290.694  13
  -5   4  -5 1026.06 343.847   3
   4   5  -5 858.841 355.966  13
   5  -4   5 681.782 226.558   6
  -4   5  -5 885.804 271.385  12
   4  -5   5 280.266 173.943   6
   4   5  -5 417.478 162.681  18
  -5   4  -5 745.070 202.645   5
   5  -4   5 514.693 173.506   1
  -5   4  -5 804.376 237.687  12
   4  -5   5 120.196 313.577   8
   5   4  -5 608.252 294.018   1
  -4  -5   5 14.2651 63.7853  17
  -5  -4   5 226.323 203.149  17
   5  -4   5 589.650 206.714   8
  -5   4  -5 1006.47 267.789  19
   5   4  -5 597.943 222.563   8
   5   4  -5 896.758 329.291  18
  -5  -4   5 196.561 123.204   2
  -4   5  -5 806.569 311.771   3
  -5   4  -5 800.541 218.698   4
   5  -4   5 781.320 237.783  14
   5   4  -6 685.660 227.349  13
  -4   5  -6 730.573 240.855  12
   4  -5   6 339.071 178.914   6
  -5   4  -6 520.063 186.845  12
  -5   4  -6 710.656 272.108   3
   5  -4   6 533.082 162.260   1
   5  -4   6 583.870 205.990   6
  -5   4  -6 755.047 231.749  19
   5  -4   6 573.164 203.329   8
  -5  -4   6 374.056 202.143   2
  -5  -4   6 277.567 211.009  19
  -5   4  -6 633.693 206.246   4
   4  -5   6 440.580 252.853  14
   5   4  -6 812.271 307.780  18
  -4  -5   6 157.041 202.149  17
  -5   4  -6 659.260 178.248   5
  -5  -4   6 285.878 197.685  17
   4  -5   6 273.299 139.824   8
   5   4  -6 837.371 362.775   1
   4   5  -6 748.751 314.145  18
   4   5  -6-64.5060 207.788   1
   5  -4   6 681.103 216.305  14
  -4   5  -6 694.399 287.535   3
   4   5  -6 844.161 315.699  13
   5   4  -6 720.771 217.807   8
   4   5  -7 2964.47 539.292  13
  -4   5  -7 37.0153 229.758  13
  -5   4  -7 173.536 139.258  13
   4  -5   7 1757.05 402.816   6
   5   4  -7 2473.14 425.575  13
  -5   4  -7 2277.07 391.734  12
  -4   5  -7 2656.40 424.813  12
  -5  -4   7 1586.18 390.075   2
  -5   4  -7 2480.29 328.828   5
   5  -4   7 2185.33 278.808   1
   5  -4   7 2217.32 393.108   8
  -5  -4   7 1430.60 296.483  19
  -4   5  -7 2983.80 556.651   3
  -4   5  -7 3734.21 629.839  19
  -4   5  -7 2484.19 403.733   4
   5  -4   7 1552.96 486.574  16
   5   4  -7 2648.73 520.335  18
  -4  -5   7 822.461 207.288   6
   4  -5   7 1813.26 419.248   8
  -5   4  -7 2496.16 385.603   4
   4   5  -7 491.941 251.682   1
   5   4  -7 3038.06 322.646   8
   4   5  -7 2782.34 601.945  18
   4   5  -7 2465.15 460.566   3
   5   4  -7 3014.39 460.798   3
   5  -4   7 2721.42 454.257   6
  -5   4  -7 2630.57 507.652   3
   5  -4   7 2351.37 377.037  14
   4  -5   7 1956.46 426.186  14
  -4  -5   7 712.417 366.643  17
  -5  -4   7 1397.40 451.002  17
  -5   4  -7 2683.00 428.895  19
   5   4  -7 2407.74 592.111   1
  -4   5  -8 131.777 167.075  13
  -5   4  -8 87.2959 176.622  13
  -5   4  -8 174.540 122.959   3
   5   4  -8 182.439 92.1784  13
  -4   5  -8 331.612 167.643  19
  -4  -5   8 170.956 81.3579  17
  -4   5  -8 135.455 28.0000   5
  -5   4  -8 173.706 99.0434  12
   5  -4   8 227.652 115.780  14
   5  -4   8 208.378 119.100   6
   4  -5   8 135.339 97.6764   6
   5   4  -8 263.948 141.655  15
  -4   5  -8 100.397 91.9959  12
   4   5  -8 196.037 120.610  18
  -5  -4   8 235.390 114.058  19
   4   5  -8 318.968 151.812   3
   4   5  -8 33.0770 42.4986   1
  -4   5  -8 195.326 131.772   3
   5   4  -8 216.400 73.1594   8
   5   4  -8 194.916 157.164  18
  -4  -5   8 153.230 91.8993   6
  -4  -5   8 29.2449 94.8543   2
  -5  -4   8 245.403 192.278  17
   4   5  -8 192.594 127.824  13
  -5  -4   8 195.787 157.992   2
   4  -5   8 185.280 128.362   8
   5  -4   8 160.751 91.5801   8
  -5   4  -8 255.076 131.980   4
   5   4  -8 79.9899 61.9982   7
  -4   5  -8 252.700 136.967   4
  -5   4  -8 214.585 93.6486   5
  -5   4  -8 207.678 102.978  19
   5   4  -8 191.850 150.459   1
   5  -4   8 213.226 89.2532   1
   5  -4   8 216.371 100.580  16
  -5  -4   8 35.7634 60.2306   6
   5   4  -8 257.441 117.291   3
  -5  -4   8 73.1500 53.1454  16
   4  -5   8 220.581 129.892  14
   4   5  -9 1299.60 343.888  13
   5   4  -9 1230.66 320.084  13
  -4   5  -9 1049.57 427.744  13
   5  -4   9 1540.05 363.851   6
  -5   4  -9 687.486 364.530  13
  -4   5  -9 1221.31 290.968  12
   5  -4   9 1297.95 208.701   1
  -5   4  -9 1159.39 241.111   5
   4   5  -9 1303.14 381.437  18
  -4   5  -9 1213.12 204.793   5
   4  -5   9 1384.88 296.469  17
  -4  -5   9 551.727 259.470   2
   4  -5   9 1004.66 166.477   1
   4  -5   9 500.829 196.861  16
  -5   4  -9 1290.22 307.056  19
   5   4  -9 1024.97 161.355   8
  -4   5  -9 1390.27 280.254   4
   5  -4   9 1126.35 276.970   8
  -4  -5   9 635.553 182.539   6
  -4  -5   9 715.969 307.734  17
  -4   5  -9 1535.40 254.496  18
  -5   4  -9 1107.78 288.373   4
  -5  -4   9 975.013 297.798  16
  -5  -4   9 722.299 272.897   2
   5  -4   9 1266.08 438.374  16
   4   5  -9 488.554 195.646   1
  -5  -4   9 984.066 345.616  17
  -4  -5   9 267.711 127.935  16
  -5  -4   9-47.3114 84.0037   6
  -4   5  -9 1472.72 359.055  19
  -5  -4   9 925.507 192.184  19
   4  -5   9 1162.31 337.147   6
   4   5  -9 1456.64 321.649   3
   5   4  -9 1662.45 311.949   3
   4  -5   9 1282.81 274.272  14
   5  -4   9 1197.87 260.062  14
  -5   4  -9 1036.55 335.605   3
   4  -5   9 1148.93 288.877   8
  -4  -5   9 604.908 170.303  19
  -4   5  -9 1390.66 369.066   3
   5   4  -9 1126.58 434.293   1
   5   4  -9 1363.81 384.054  18
   5   4 -10 1033.40 415.849   1
   4   5 -10 1551.85 411.206  13
  -4   5 -10 1217.10 480.183  13
   4   5 -10 1071.02 341.776  18
  -4   5 -10 1140.23 284.410  12
   4  -5  10 940.698 221.573  14
  -4   5 -10 940.837 180.661   5
   4  -5  10 682.014 112.910   1
   4   5 -10 939.084 143.109  12
   5   4 -10 1362.84 418.674  11
  -5  -4  10 1144.40 481.674   5
  -4  -5  10 555.962 184.403   6
  -4   5 -10 898.054 150.707  18
  -5   4 -10 1722.04 230.139  11
  -4  -5  10 1065.69 414.861  17
  -5   4 -10 1183.00 340.919   5
  -4  -5  10 634.280 145.205  19
   4  -5  10 1128.19 267.200   8
   5  -4  10 1041.72 262.763  14
   5  -4  10 2017.29 401.229   8
   4  -5  10 1156.57 329.087   6
  -4   5 -10 1016.41 251.473   4
   4  -5  10 728.806 253.259  16
  -5  -4  10 903.448 321.525   2
  -5  -4  10 1342.86 457.244  17
  -4   5 -10 1141.79 365.194   3
   5  -4  10 1386.13 510.378  16
  -4  -5  10 637.104 250.826  16
  -4  -5  10 617.263 291.854   2
   5  -4  10 1106.32 339.195   6
   4   5 -10 364.711 249.479   1
   5  -4  10 983.498 327.103   1
   4   5 -10 1689.70 369.758   3
   5  -4  10 1450.61 203.619  17
   4  -5  10 1144.87 194.690  17
   5   4 -10 1069.74 333.086  18
   5   4 -10 971.637 384.546  20
  -5  -4  10 222.234 181.258   6
   4   5 -11 27.6420 24.6868   3
   4  -5  11 30.9316 52.9130   6
   5   4 -11 91.1128 160.878  20
  -4   5 -11-101.180 131.255  13
   5   4 -11 24.8364 64.7781   1
  -5   4 -11 51.1537 162.836  13
  -5   4 -11 41.6857 75.7984  12
  -4   5 -11 17.2852 74.4761  12
  -5  -4  11 3.63862 9.04691  19
   5   4 -11 32.3430 45.5906  12
   4   5 -11-1.86806 25.6295  12
  -5  -4  11 67.8016 180.382   5
   5   4 -11 51.9706 141.236  11
  -5   4 -11 6.37471 18.9387  11
   4   5 -11-19.9985 54.6520  13
  -4   5 -11 33.7253 35.4777  18
   5  -4  11-26.1418 56.4308   1
  -5   4 -11 4.61129 36.1818  19
  -5  -4  11-91.1665 129.151  17
  -4  -5  11 20.4434 30.3207  19
  -5  -4  11-50.4701 84.6134   6
   4  -5  11 36.0855 77.1039  14
   5   4 -11-50.5097 100.772  18
   5  -4  11 10.1061 55.9363   6
   4   5 -11 115.368 145.267  18
  -5   4 -11-4.28653 22.2007  20
  -5   4 -11 85.1883 106.570   4
   4  -5  11 129.216 75.3967  17
  -4  -5  11 62.7254 109.074   2
  -4  -5  11 162.623 201.459  17
   5  -4  11 0.30707 46.6177   8
  -4   5 -11 40.8690 104.923   4
   4  -5  11 119.655 184.645  16
  -5  -4  11 41.6162 95.5760   2
   4  -5  11 53.8636 25.8393   8
   5  -4  11-19.5991 45.4936  17
   4   5 -11-97.8095 161.328   1
  -5   4 -11 33.5984 80.6124   3
  -4  -5  11 69.0427 129.009  16
  -4   5 -11 5.89725 93.7231   3
   5  -4  11 159.628 185.768  16
  -5  -4  11 57.0878 97.1910  16
   4   5 -11 464.134 383.860   7
  -4   5 -11 47.3247 86.9838   5
   4   5 -11 140.280 228.286  15
   5  -4  11-11.3760 63.8420  14
  -4   5 -11 117.743 117.427  19
   5   4 -11 42.1237 44.8950   3
   5   4 -11 114.746 195.129  10
  -4  -5  11 109.896 122.112   6
   4  -5  12 396.247 234.124   6
   4   5 -12 475.358 231.277  18
  -4   5 -12 219.614 156.316  12
   4   5 -12 385.965 177.441   3
   5  -4  12 622.762 303.480  16
   4   5 -12 558.842 151.259  12
  -4   5 -12 228.540 171.401   3
  -5   4 -12 283.197 212.476  13
   4   5 -12 409.925 207.740  13
  -4  -5  12 31.8714 70.2519   6
  -5   4 -12 290.688 210.699  12
  -5   4 -12 226.942 212.160   3
   5   4 -12 462.291 106.966  12
   4   5 -12 410.819 203.910  11
  -4   5 -12 512.723 136.968  11
   5   4 -12 522.244 243.807  11
  -5  -4  12 535.834 252.498   5
  -5   4 -12 408.006 129.551  11
   5  -4  12-256.586 378.512   2
  -5   4 -12 234.903 144.406  20
   4  -5  12 495.081 201.351   8
   5   4 -12 506.335 306.151  10
  -4   5 -12 545.076 204.925  19
  -4   5 -12 448.497 114.875  18
  -5   4 -12 380.996 162.569  19
  -5   4 -12 582.497 242.798  10
  -5  -4  12 397.541 221.666   2
  -4  -5  12 330.002 200.379   2
   4  -5  12 434.695 133.052  17
  -5   4 -12 121.792 70.6875   4
  -4   5 -12 320.119 177.324   4
   5   4 -12 323.755 206.157   1
  -4   5 -12 387.346 280.479  13
  -4  -5  12 445.287 260.800  17
   5  -4  12 416.146 185.831   8
  -5  -4  12 281.894 196.211  17
   5   4 -12 335.008 196.553  18
   5   4 -12 472.461 181.379   3
   5   4 -12 267.957 198.286  20
   4  -5  12 508.709 299.092  16
  -4  -5  12 283.839 195.433  16
  -5  -4  12 422.329 213.586  16
   4   5 -12 193.202 20.8879   7
   4   5 -12 222.671 135.023   1
  -5   4 -12 880.865 419.729   7
   4   5 -12 197.116 138.843  15
  -5   4 -12 733.707 406.624  15
   5  -4  12 538.171 210.793  14
   4  -5  12 492.678 170.654  14
   5  -4  12 442.198 253.180   6
   5  -4  13 631.793 357.643  16
  -4   5 -13 305.809 188.096  12
  -5   4 -13 294.260 207.265  13
   4   5 -13 490.370 253.182  13
  -4   5 -13 317.471 188.596   3
  -5   4 -13 492.556 259.644  12
   5   4 -13 585.946 217.728   3
   5   4 -13 501.250 129.332  12
  -5   4 -13 445.130 266.073   3
   5  -4  13 437.591 173.668   8
   4   5 -13 586.290 164.185  12
   5   4 -13 1188.40 491.878   9
   5   4 -13 261.410 203.085   1
   4   5 -13 603.922 285.632  11
  -4   5 -13 443.436 128.984  11
   5   4 -13 263.298 128.352  11
  -5  -4  13 493.169 268.730   5
  -5   4 -13 686.399 284.442   9
  -5   4 -13 302.348 116.172  11
  -4  -5  13 336.854 210.328  17
   5   4 -13 384.037 256.700  10
   5  -4  13 241.495 104.212   2
  -4   5 -13 537.868 180.242  19
  -4   5 -13 211.322 212.409  13
  -4   5 -13 422.028 119.319  18
  -5   4 -13 603.248 356.176   7
  -5   4 -13 525.171 397.777  15
   4   5 -13 434.077 211.276  18
  -4   5 -13 464.555 277.033   4
   5   4 -13 369.638 207.469  18
   4  -5  13 464.996 172.372  14
  -5  -4  13 428.633 282.610   2
  -5  -4  13 254.564 156.357  17
   4  -5  13 577.315 168.092  17
   4  -5  13 461.796 169.121   8
  -5   4 -13 420.726 191.333  19
  -5   4 -13 46.1678 213.957   4
  -4  -5  13 507.248 239.565  16
   5   4 -13 481.920 291.431  20
  -5  -4  13 463.174 251.270  16
   4   5 -13 357.568 258.746   1
  -5   4 -13 344.138 189.459  10
   4  -5  13 520.490 319.926  16
  -4  -5  13 426.102 244.926   2
   4   5 -13 483.736 191.418   3
  -4  -5  13-26.2212 99.4075   6
   5  -4  13 625.806 240.773  14
   4   5 -13 390.757 282.361  20
   5  -4  13 543.412 263.091   6
  -5   4 -13 79.0149 34.3876  20
   4  -5  13 461.151 232.874   6
   5  -4  14 430.837 166.598   8
  -4   5 -14 178.341 178.453  13
   4   5 -14 246.527 117.407  12
   4   5 -14 375.816 170.956   3
  -4   5 -14 297.374 219.093   3
   5   4 -14 353.468 133.894  12
  -4   5 -14 220.378 167.725  12
   4  -5  14-182.621 377.464   2
   5   4 -14 691.066 400.947   9
  -4   5 -14 341.916 167.266  19
   4  -5  14 339.466 165.486   8
   4   5 -14 495.271 256.588  11
   5   4 -14 208.681 128.589   1
   5  -4  14 436.249 269.806   2
  -4   5 -14 371.647 128.657  11
   5   4 -14 282.270 195.361  11
  -5  -4  14 239.099 184.963   5
  -4   5 -14 182.264 174.086  20
  -5   4 -14 217.791 76.9624  11
  -4   5 -14 41.3124 205.489   4
  -5   4 -14 236.204 151.358   9
   4   5 -14 421.649 361.665  10
  -5   4 -14 203.668 194.444  10
   5   4 -14 310.588 307.674  10
   5  -4  14 383.879 205.707  14
   4  -5  14 553.648 307.452  16
   4   5 -14 290.662 262.974   1
  -5   4 -14 136.845 207.342   7
   4   5 -14 398.498 215.071  18
   5   4 -14 249.304 162.966  18
  -4  -5  14 345.903 237.320   2
  -4   5 -14 319.696 122.744  18
   4   5 -14 388.358 253.409  13
  -5   4 -14 116.896 127.178  20
  -5  -4  14 349.428 208.603  17
  -5  -4  14 296.565 204.658   2
  -4  -5  14 438.546 249.638  17
   4  -5  14 366.912 136.472  17
   5  -4  14 432.810 313.996  16
  -5  -4  14 273.683 187.552  16
   4   5 -14 439.509 304.178  20
  -5   4 -14 168.848 180.599  13
  -4   5 -14 787.331 489.204   7
  -5   4 -14 313.555 288.685  15
  -4   5 -14 620.139 474.165  15
   5   4 -14 115.190 183.400  20
  -4   5 -14 480.949 284.184  10
  -4  -5  14 7.04431 55.0737   6
   4  -5  14 379.208 181.453  14
  -5   4 -14 192.941 128.026  19
   5  -4  14 420.873 257.864   6
  -4  -5  14 209.901 174.946  16
   4  -5  14 470.464 289.502   6
  -5  -4  15 90.9210 99.3982  16
  -4   5 -15-24.0036 62.7122  13
   4   5 -15 166.826 201.754  13
   4   5 -15 121.360 132.029   3
  -4   5 -15 170.336 174.405   3
  -4   5 -15 3.93445 83.7054  12
   4   5 -15 62.5301 75.2210  12
  -4  -5  15 156.797 175.385   2
   4   5 -15 90.5868 259.877  10
  -5   4 -15 76.2895 127.118  10
   4   5 -15 94.8388 137.132  11
   5   4 -15-84.5135 137.231  11
  -4   5 -15 12.1679 62.2304  11
  -5  -4  15-18.0805 82.8970   5
   4   5 -15 138.390 234.278  20
   5   4 -15 43.1814 89.7977   1
  -4   5 -15 204.270 184.227  10
   4  -5  15 17.1779 93.7699   6
   5   4 -15 41.5702 135.182  10
   5  -4  15 127.664 117.305  14
   4  -5  15 8.44856 218.377   2
  -5   4 -15-31.3710 37.7412  19
  -5   4 -15 43.2333 75.1296   9
   5  -4  15 80.4825 192.713   2
   4  -5  15 15.9158 88.7237   8
  -5  -4  15 91.1030 164.273   2
   5   4 -15 2.57514 21.7849  18
  -4   5 -15 3.81179 62.7753  18
  -5   4 -15 43.7808 103.444  20
  -5   4 -15 36.8561 128.597  11
  -4   5 -15-49.1865 83.3420  19
   5  -4  15 33.7886 69.4234   8
  -4  -5  15-161.331 178.376  17
  -5  -4  15 73.8593 127.497  17
   4  -5  15 32.3207 65.5877  17
   4  -5  15 45.2683 176.323  16
  -4  -5  15 129.388 229.997  16
   5  -4  15-55.7100 55.6036  16
  -5   4 -15-37.9098 97.4471   7
  -4   5 -15 194.123 346.243   7
  -5   4 -15-189.089 275.488  15
  -4   5 -15 80.7873 288.341  15
   5   4 -15-108.521 234.922  20
   4   5 -15 6.28174 28.9649   1
  -4  -5  15 47.0710 62.2503   6
   5   4 -15 31.9624 121.045   9
   5  -4  15 48.3449 109.093   6
   4  -5  15 52.9043 83.4661  14
  -4   5 -15 121.621 157.549  20
   4   5 -15 16.5621 63.2500  18
  -5   4 -16-248.217 345.985   7
   5  -4  16 248.335 189.894   8
   4   5 -16 398.754 366.457  20
   4   5 -16 209.513 221.269   3
  -4   5 -16 217.312 229.200  12
  -4   5 -16 187.098 231.524   3
   4   5 -16 245.532 134.392  12
   5  -4  16 337.336 218.725   2
  -4   5 -16 6.19908 60.2818  20
   4   5 -16 223.759 211.240  11
   5   4 -16 105.401 108.629  11
  -4  -5  16 218.912 204.124   2
  -5  -4  16 381.004 254.311   5
  -4   5 -16 151.282 85.9293  11
   5   4 -16 236.572 186.712   1
  -4   5 -16 146.976 171.666  10
   5   4 -16 169.438 225.974  20
   4   5 -16-45.2147 160.777  10
   5   4 -16 88.3700 261.325  10
   4  -5  16 276.886 151.280   8
   4   5 -16 1123.86 542.974   9
  -5  -4  16 242.344 225.495   2
  -4   5 -16 184.314 99.1044  19
  -5   4 -16-63.7316 308.346  15
   5   4 -16-180.632 279.098   9
   5   4 -16 122.639 104.271  18
  -4   5 -16 553.387 274.543   9
  -5   4 -16 70.8644 157.412  10
  -4  -5  16 64.7654 99.5264  17
  -5  -4  16 180.113 148.591  17
   4  -5  16 436.297 323.551  16
   4  -5  16 349.646 195.041  17
  -5   4 -16 121.729 131.644   9
  -4  -5  16 272.581 174.554  16
   5  -4  16 261.843 271.812  16
  -5  -4  16 224.470 223.032  16
  -4   5 -16 235.060 322.695   7
   4  -5  16 300.022 319.779   2
  -4   5 -16 276.081 261.425  15
  -4  -5  16-73.3099 120.262   6
  -4   5 -16 298.380 220.532  13
   5  -4  16 315.363 235.032  14
  -5   4 -16 83.4845 127.883  20
   4  -5  16 228.164 183.818  14
   4   5 -16-80.8543 158.386   1
   4   5 -16 214.591 175.063  18
   5  -4  16 194.836 212.716   6
   4  -5  16 361.766 260.941   6
   4  -5  17 662.011 395.778  14
  -4   5 -17 298.407 260.466  13
   4   5 -17 830.775 301.510  12
  -4   5 -17 269.027 203.999  12
   4   5 -17 328.065 237.337   3
  -4   5 -17 157.616 134.766   3
   5   4 -17 422.292 340.447   9
  -5   4 -17 250.627 126.232  19
   5  -4  17 778.784 315.617   8
   4   5 -17 507.245 335.129  11
   5   4 -17 482.463 310.379  11
  -5  -4  17 753.390 308.012   5
   4   5 -17 582.417 286.708  18
  -4   5 -17 277.219 121.643  11
   5   4 -17-357.483 350.622  20
  -4   5 -17 445.891 232.217  10
   4   5 -17 818.266 545.163  10
   4  -5  17 730.709 252.269   8
  -5   4 -17 86.9500 109.820   9
  -5   4 -17 80.2109 85.7916  10
   5   4 -17 325.877 289.202   1
   5  -4  17 842.407 450.355  16
  -4   5 -17 513.639 182.216  19
   5  -4  17 774.610 356.320   2
   4  -5  17 770.468 448.012   2
   4   5 -17 447.791 480.707  20
   5   4 -17 262.259 360.005  10
  -4   5 -17 273.782 229.235  20
  -4  -5  17 636.876 393.653   2
   5   4 -17 513.112 283.412  18
  -4  -5  17 274.317 302.591  17
  -5  -4  17 524.375 309.556   2
   4   5 -17 818.027 547.850   1
  -5  -4  17 748.895 438.770  17
   4  -5  17 490.319 168.412  17
   4  -5  17 715.453 421.424  16
  -4  -5  17 564.198 336.158  16
  -4   5 -17 294.085 143.438   7
  -5  -4  17 447.732 286.216  16
   5  -4  17 918.924 487.988   6
  -4  -5  17-87.3928 138.839   6
  -4   5 -17 151.391 200.026  15
   5  -4  17 642.343 514.180  14
   4  -5  17 610.145 332.974   6
  -4   5 -17 432.916 204.443   9
  -5   4 -17 39.5421 57.7017  20
   4   5 -17 1527.70 635.411   9
   4  -5  18 261.767 156.329   8
  -4   5 -18 324.835 319.691  13
   5   4 -18 6.77501 143.198   9
  -4   5 -18 426.421 342.093  12
   4   5 -18 204.853 155.845  12
  -5   4 -18 80.0105 171.079  20
   4   5 -18 183.687 205.050   3
  -4   5 -18 387.118 338.571   3
   4  -5  18-33.8820 132.880  14
   4   5 -18 110.728 94.4144  11
  -4   5 -18 11.0858 71.4797   9
   5   4 -18 96.4298 80.6934  11
  -5  -4  18 401.302 252.281   5
  -4   5 -18-3.11971 108.934  11
   4   5 -18 361.611 328.638   9
  -4   5 -18 112.010 174.816  20
   4   5 -18 74.3346 11.4536  20
  -4   5 -18-462.196 707.114  15
   5   4 -18-428.682 603.016  20
   4   5 -18-112.205 108.116  10
  -4  -5  18 385.975 294.512   2
  -5   4 -18 73.3619 59.3865  19
   5   4 -18-19.0156 9.19160   1
  -4  -5  18-205.148 240.834   6
  -4  -5  18 169.473 162.152  17
   5  -4  18 464.548 266.729   2
  -5   4 -18 133.191 151.279   9
   4  -5  18 486.634 391.802   2
   5  -4  18 319.722 221.535   8
   4   5 -18 176.151 167.301  18
   5   4 -18 112.969 28.0215  18
  -5   4 -18 63.3908 43.1137  10
   5   4 -18 304.702 362.839  10
  -5  -4  18 433.691 313.906   2
   4   5 -18 196.827 209.425   1
  -4   5 -18-621.742 704.554   7
   4  -5  18 405.620 297.129  16
  -4  -5  18 258.083 270.238  16
  -5  -4  18 261.609 259.353  16
  -4   5 -18 383.527 250.194  10
   5  -4  18-46.1887 246.781  14
  -4   5 -18 108.026 79.0657  19
   5  -4  18 176.020 153.236   6
  -5  -4  18 151.840 165.548  17
   4  -5  18 357.676 220.491   6
   5  -4  18 39.4193 108.034  16
   5   5  -4 244.142 191.108  13
   5  -5   4 300.843 210.673   6
   5   5  -4-53.7568 217.491   1
   5   5  -4 207.667 80.0768  18
  -5  -5   4-28.5940 172.355  17
   5  -5   4-13.0953 331.819   8
  -5   5  -4 676.180 233.330  12
   5   5  -5-18.0708 42.4068  13
   5   5  -5 12.0655 80.5056  18
   5  -5   5-86.6657 200.697   8
   5  -5   5 28.5575 72.4076   6
  -5   5  -5 17.3481 67.0564  12
   5   5  -5-58.2057 165.091   1
  -5   5  -5 14.2160 108.944   3
  -5  -5   5-160.895 228.004  17
   5  -5   5 28.2141 102.858  14
   5   5  -6 740.309 273.172  13
   5  -5   6 474.026 222.233   8
   5  -5   6 386.249 209.941   6
  -5   5  -6 760.279 240.800  12
  -5   5  -6 821.338 331.524   3
  -5  -5   6 279.840 245.589  17
  -5   5  -6 789.698 287.805  19
   5   5  -6 130.602 185.140   1
   5   5  -6 632.691 282.371  18
  -5   5  -6 589.552 194.208   4
   5  -5   6 421.343 192.739  14
   5  -5   7-20.6823 17.6043   6
  -5  -5   7-42.0849 60.2554   6
  -5   5  -7 23.9579 65.4559  12
   5  -5   7-31.6331 106.174   1
  -5   5  -7 3.74690 71.3962   5
   5   5  -7 60.0412 77.5550   8
  -5  -5   7-23.1774 150.520  17
  -5   5  -7-7.78734 45.3440  19
   5   5  -7 85.3173 122.351   1
   5  -5   7 30.7245 68.5417  14
   5   5  -7 212.659 219.730  18
   5  -5   7 46.8697 63.1112   8
  -5   5  -7 49.6368 62.6559   4
  -5  -5   7-112.756 224.415   2
   5   5  -7 1.95705 72.1344  13
  -5   5  -7 11.4869 31.4631   3
   5   5  -8 2480.95 511.361  13
   5   5  -8 2429.03 495.949   3
   5   5  -8 1479.75 566.050   1
  -5   5  -8 2451.57 465.957  19
  -5  -5   8 816.687 272.608  19
  -5   5  -8 1893.08 307.750   5
  -5   5  -8 2019.63 394.631  12
   5  -5   8 1501.99 257.256   1
   5   5  -8 2308.98 573.194  18
  -5  -5   8 930.709 193.303   6
  -5   5  -8-23.7797 230.759  13
  -5  -5   8 735.131 333.690   2
  -5  -5   8 984.014 434.268  17
  -5   5  -8 2083.32 366.780   4
   5  -5   8 1533.09 382.990   6
   5  -5   8 1580.92 379.965   8
   5  -5   8 1720.98 363.455  14
  -5   5  -8 2153.84 501.698   3
  -5   5  -9-13.2312 75.6706   3
  -5   5  -9-48.0131 40.9340  13
   5  -5   9-551.055 479.252  16
   5   5  -9-11.4910 27.3831   8
   5  -5   9-125.732 88.1143  17
  -5   5  -9-7.82426 14.3547   5
  -5  -5   9-88.8165 70.1352  19
  -5   5  -9-48.2786 61.0680  18
  -5   5  -9 0.68498 16.9855  19
   5  -5   9-36.2678 93.8669   6
  -5  -5   9-219.565 163.390   2
  -5  -5   9-136.081 65.8382  17
   5  -5   9-8.16987 4.35988  14
   5   5  -9-13.4961 55.1223   1
  -5   5  -9-109.444 116.705  12
   5  -5   9-56.8936 63.5940   8
  -5   5  -9-56.2855 75.2452   4
   5  -5   9-11.6643 22.3133   1
   5   5  -9-37.7626 44.5591   3
   5   5  -9-47.9761 55.3147  18
   5   5  -9-56.7744 43.3252  13
  -5  -5   9-40.8327 9.11848   6
  -5   5 -10-34.2815 124.061   3
   5  -5  10-42.8513 38.4986   6
  -5   5 -10 4.53502 27.7269  13
  -5   5 -10-8.80659 54.6286  12
  -5  -5  10 91.7056 146.939  17
   5   5 -10 207.222 206.664  15
   5   5 -10 60.2116 132.385  13
  -5   5 -10-14.2929 26.6354   5
  -5  -5  10 70.2695 65.0131  19
  -5   5 -10 11.4203 28.2693  19
   5  -5  10-36.4282 64.2593   8
  -5   5 -10 11.7436 26.3149  18
  -5  -5  10-47.5525 117.016   2
   5  -5  10-156.910 337.954  16
   5  -5  10 46.0142 42.2307  17
   5   5 -10 38.6340 70.2788  18
   5   5 -10 52.6327 193.026   1
  -5  -5  10-127.620 201.249  16
   5   5 -10 316.250 248.529   7
   5  -5  10-8.43096 17.9545   1
  -5   5 -10 1.90091 40.3020   4
  -5  -5  10-2.38190 37.1295   6
   5  -5  10 54.8971 79.8429  14
   5   5 -10 10.4757 43.0589   3
   5  -5  11-46.2533 86.3841   6
  -5   5 -11-189.807 193.960  13
   5   5 -11 48.7872 108.342  13
   5   5 -11-302.546 309.974   7
  -5   5 -11-100.686 94.4732  12
  -5  -5  11 78.7059 131.822   2
  -5  -5  11 29.2432 102.387   6
   5  -5  11 34.7984 37.8835  17
  -5   5 -11 49.3814 58.1594   5
  -5   5 -11 6.46580 69.5038  19
   5  -5  11 17.4764 50.9835  16
  -5   5 -11-1.41607 14.8411  18
   5   5 -11 9.19248 45.3119  18
  -5  -5  11 14.8042 37.9022  19
  -5   5 -11 22.4968 30.6049   4
   5  -5  11 25.3480 72.1608   8
  -5  -5  11-66.0406 114.593  17
  -5  -5  11-27.2994 81.1368  16
   5   5 -11-64.8533 50.0725   1
  -5   5 -11 30.5579 78.9623   3
   5   5 -11-166.067 311.342  15
   5  -5  11 12.8585 43.2490   1
   5   5 -11-8.06866 7.53299   3
   5  -5  11 22.1738 20.3064  14
  -5   5 -12 303.598 254.509  13
   5   5 -12 196.479 138.844  13
  -5   5 -12 226.636 126.253  12
  -5  -5  12 320.232 215.188   2
   5   5 -12 299.649 112.598  12
  -5   5 -12 300.899 147.436   5
   5   5 -12 238.810 188.941  11
  -5   5 -12 289.900 98.8377  11
  -5   5 -12 295.258 91.5439  18
   5  -5  12 310.656 93.5856  17
   5   5 -12 297.046 231.497  20
  -5   5 -12 337.204 177.035  19
   5  -5  12 265.745 167.957   6
  -5   5 -12 216.469 159.326   4
   5   5 -12 387.801 218.664  18
   5  -5  12 78.6468 44.8646   8
  -5   5 -12 151.404 118.785   3
  -5  -5  12 100.545 62.6552  19
  -5  -5  12 258.429 197.369  17
  -5  -5  12 270.056 182.635  16
   5  -5  12 57.1375 36.1727  16
   5   5 -12 302.697 233.324   1
   5  -5  12 0.92256 23.8188   1
  -5  -5  12 15.1048 104.710   6
   5   5 -12 253.323 134.217   3
   5  -5  12 227.790 117.647  14
   5   5 -13 210.957 230.276  20
  -5   5 -13-112.386 187.029  13
  -5   5 -13 29.7146 84.8904   3
  -5   5 -13 10.2698 128.625   4
  -5   5 -13-78.2314 117.952  12
   5   5 -13 304.470 354.557  10
  -5   5 -13 69.8654 111.505  20
  -5   5 -13 6.90902 59.7261  11
   5   5 -13 69.0139 131.686  18
  -5  -5  13 3.81339 48.7988   2
   5  -5  13 130.647 133.198   8
  -5   5 -13-77.4961 60.3926  19
   5  -5  13 27.2024 121.096  16
   5   5 -13 78.6679 105.137  13
  -5   5 -13 7.25812 29.4424  18
   5  -5  13-14.0004 36.2172  17
   5   5 -13 12.8497 31.8809  12
  -5  -5  13 35.3903 82.3752  16
   5   5 -13 73.1106 128.742   1
  -5  -5  13-31.6691 66.6442   6
   5   5 -13-26.8182 45.2930  11
   5  -5  13-19.4225 64.6826  14
   5   5 -13 60.2842 75.3413   3
  -5  -5  13-64.8368 23.7071  17
   5  -5  13 47.1181 128.265   6
   5   5 -14 395.317 317.555  20
   5   5 -14 518.472 215.987   3
  -5   5 -14 449.627 350.956  13
   5   5 -14 542.924 302.926  13
  -5   5 -14 377.382 256.167   3
   5   5 -14 660.246 181.706  12
  -5   5 -14 355.159 214.257  12
   5   5 -14 723.196 305.683  11
   5  -5  14 534.067 171.492  17
  -5   5 -14 483.182 233.123  20
  -5   5 -14 543.824 281.961  10
   5   5 -14 777.968 393.289  10
  -5   5 -14 549.546 158.103  11
   5   5 -14 544.266 280.796  18
  -5   5 -14 206.547 152.696   4
  -5  -5  14 468.211 286.940  17
   5  -5  14 362.086 134.230   8
  -5   5 -14 408.335 193.541  19
  -5  -5  14 445.700 262.125  16
  -5   5 -14 247.952 79.6947  18
   5  -5  14 704.888 417.331  16
  -5   5 -14 1020.07 520.079   7
  -5   5 -14 686.140 460.900  15
  -5  -5  14-2.80558 53.1665   6
   5   5 -14 407.694 326.603   1
  -5  -5  14 425.364 254.718   2
   5  -5  14 1092.86 439.017   6
  -5   5 -15 159.384 196.148  13
   5   5 -15 51.1087 89.4827   3
   5   5 -15 118.174 221.452  13
  -5   5 -15-124.720 44.4695   3
  -5   5 -15 13.7714 69.2008  12
   5   5 -15 22.2713 53.1830  12
   5   5 -15 35.1478 270.606  20
  -5   5 -15-44.0399 98.9546  20
   5   5 -15 38.2606 113.508  11
  -5   5 -15 13.9373 61.4373  11
   5  -5  15-277.560 464.589   2
   5   5 -15 15.9054 219.825  10
  -5   5 -15-42.0176 35.4932  19
  -5   5 -15-384.952 518.459   4
   5   5 -15 55.9823 108.370  18
  -5  -5  15-83.0932 149.903   6
  -5   5 -15 15.0567 66.1931  10
  -5  -5  15 57.7869 135.155  17
   5  -5  15-19.3885 68.5465   8
  -5  -5  15 127.874 132.383  16
   5  -5  15 38.4869 148.173  16
  -5   5 -15 292.325 370.630   7
  -5   5 -15 492.273 271.553   9
  -5   5 -15 26.2485 274.118  15
   5  -5  15-107.581 191.562  17
   5  -5  15-8.84817 66.3256  14
   5   5 -15 73.6451 148.125   1
   5  -5  15 57.5787 90.8471   6
  -5  -5  15-4.36873 75.1258   2
  -5   5 -16 68.9127 141.823  13
  -5   5 -16-52.8027 96.8383   3
  -5   5 -16-28.6503 31.9326  12
   5   5 -16 236.137 206.297  12
   5   5 -16-3.43630 156.791  11
  -5   5 -16-13.0576 102.209  19
  -5   5 -16 53.4995 39.8722  11
  -5   5 -16-47.5951 82.0977  20
   5   5 -16 112.465 293.778  20
  -5   5 -16-91.1969 149.631  10
   5  -5  16-60.9153 253.204   2
   5  -5  16 80.0753 217.809  14
   5   5 -16 68.1067 344.131  10
   5  -5  16 9.84943 31.2821   8
  -5  -5  16 173.403 286.579   2
   5   5 -16 7.35316 331.789   1
   5   5 -16 938.647 578.831   9
  -5  -5  16-1.48993 322.715  17
   5  -5  16-140.696 188.816  16
  -5  -5  16 15.9311 114.427  16
  -5   5 -16 84.8946 195.502   7
  -5   5 -16 23.8126 118.276  15
   5  -5  16 22.3228 71.1156   6
   5   5 -16 7.91324 142.313  18
   5   5 -16 65.8172 187.383   3
  -5   5 -16 307.362 240.596   9
  -5   5 -17 61.1146 141.270  13
  -5   5 -17 118.353 166.034  20
   5   5 -17-6.56876 164.523   3
  -5   5 -17-47.2590 26.5458  12
   5   5 -17 267.274 252.933  12
  -5  -5  17 825.940 676.901   5
   5   5 -17 55.8224 190.538  18
   5   5 -17 120.086 239.950  11
  -5   5 -17 7.74835 87.2680  11
  -5   5 -17 70.2875 118.618   9
   5   5 -17 192.485 500.213  20
  -5   5 -17 10.6273 93.7224   3
  -5   5 -17-40.9212 76.5545  10
   5   5 -17 69.8306 203.177  10
   5  -5  17-25.3659 92.2773   6
   5  -5  17-107.588 241.148   2
   5   5 -17 617.323 518.557   9
   5   5 -17-3.28478 368.173   1
  -5  -5  17 549.836 488.553   2
   5  -5  17 154.083 229.297   8
  -5  -5  17 741.499 462.366  17
   5  -5  17 247.237 316.123  16
  -5  -5  17 479.974 363.355  16
  -5   5 -17-123.520 73.0820   7
  -5   5 -17-54.6936 104.489  15
  -5   5 -17 63.3012 65.0251  19
   5  -5  17-58.7205 73.6786  14
   6   0   0 281.277 106.898   6
   6   0   0 220.453 111.392   8
   6   0   0 333.470 119.984  11
  -6   0   0 143.894 77.3830  12
  -6   0   0 195.697 109.125   5
   6   0   0 245.183 113.055  18
   6   0   0 209.428 114.276   1
  -6   0   0 177.027 71.1800   2
  -6   0   0 156.322 113.367  17
  -6   0   0 161.495 107.057   4
   6   0   0 274.010 135.342  14
  -6   0   0 70.0402 47.9950   3
  -6   0   0 165.173 93.2499  19
  -6   0   1-14.3283 33.0101   5
   6   0  -1-8.20548 24.3352   6
  -6   0  -1-0.40903 54.1607   4
  -6   0  -1 26.3915 82.9273  12
  -6   0   1 6.38415 45.3902  12
  -6   0  -1 5.18750 25.7120   3
  -6   0   1 8.02111 13.9820   2
   6   0   1 8.98625 36.1178  11
   6   0  -1-9.94415 41.6297  11
  -6   0  -1 6.75283 20.8857   5
  -6   0   1-7.44565 32.3147   4
  -6   0   1 7.13016 32.8439  19
  -6   0  -1 5.44852 17.5686   2
  -6   0  -1 9.80283 30.5062  17
  -6   0   1-7.81608 48.8277  17
   6   0   1 13.5992 33.8504  14
   6   0   1-15.7302 61.6740   8
   6   0  -1 11.0160 42.9313   8
   6   0   1 14.8111 36.4576  18
   6   0   1 30.3149 69.7652   1
   6   0  -1 16.1428 42.0590   1
   6   0  -1 22.5555 55.8377  18
  -6   0  -1 7.21131 40.2349  19
   6   0  -1 21.0840 36.1282  14
   6   0   1-11.7252 3.69741   6
  -6   0   2 97.2564 61.2315  12
   6   0   2 400.543 175.079   1
  -6   0   2 250.814 118.883  19
  -6   0  -2 195.416 133.798   5
   6   0  -2 353.533 174.634  11
   6   0   2 327.332 158.732  14
   6   0  -2 328.192 148.214  18
  -6   0   2 262.193 122.616   5
   6   0   2 319.869 109.280  18
   6   0   2 361.456 163.847   8
  -6   0  -2 199.762 127.674   4
  -6   0  -2 142.810 65.9003  17
  -6   0  -2 411.659 229.075  15
   6   0  -2 226.488 97.5342   8
  -6   0   2 173.210 123.054  17
  -6   0  -2 192.404 153.258  19
   6   0   2 399.280 118.723  11
  -6   0   2 316.444 140.820   4
   6   0   2 381.091 119.671  16
  -6   0  -2 315.643 173.012   7
   6   0  -2 263.888 84.5212   6
  -6   0   2 218.971 99.4133   2
   6   0  -2 294.161 148.155   1
   6   0  -2 294.354 148.844  14
   6   0   2 377.985 160.702   6
   6   0  -3 20.0979 43.8758   6
   6   0  -3 53.7384 98.7628   1
  -6   0  -3 32.5405 77.3262   5
  -6   0   3-37.8815 102.395  17
   6   0  -3 9.31037 82.5064  11
   6   0  -3-2.45560 65.1852  18
  -6   0   3 42.3770 76.8009  19
  -6   0  -3-34.2044 76.1736  19
  -6   0   3 24.9295 80.8935   5
   6   0   3 14.4258 24.8871  18
   6   0  -3 25.3492 53.2942   8
  -6   0  -3 26.9942 40.7659   4
  -6   0  -3-8.03727 36.6517  17
  -6   0   3-2.04165 17.7004   4
   6   0   3-8.41666 39.4410   8
  -6   0  -3 24.2273 29.2166   7
   6   0   3 10.0581 41.1020  16
  -6   0   3 18.7513 43.8994   2
  -6   0  -3-0.03480 77.6684  15
   6   0   3 5.28934 35.7360  14
   6   0  -3 20.3866 50.9070  14
   6   0   3 23.4425 71.5217   6
   6   0   3 0.97202 46.4014   1
   6   0   4 12.3672 10.3297  18
   6   0  -4-8.77290 16.3586  14
  -6   0   4-187.735 214.167  16
   6   0  -4-27.4896 71.1596   6
  -6   0  -4 55.8316 91.2800  19
  -6   0   4 12.2363 39.2538   5
   6   0  -4 55.5829 94.4683  11
   6   0   4-7.54450 71.1087   8
   6   0  -4 32.4093 72.0835   1
  -6   0  -4 7.44134 34.3494  17
   6   0  -4 8.91825 53.7101  18
  -6   0  -4-41.5576 119.513  15
  -6   0   4-12.7424 81.6397  17
   6   0  -4 19.3250 41.0427   8
  -6   0  -4-6.26830 82.6799   4
  -6   0   4 33.2320 55.3106   4
  -6   0  -4-79.8557 220.646   7
   6   0   4 14.5487 34.5944  16
   6   0   4 27.9004 98.4933   1
  -6   0   4-27.5895 54.6379   2
   6   0   4 47.8110 43.5347  14
  -6   0  -4 25.7385 73.6915   5
   6   0   4 70.9771 94.4691   6
  -6   0   4 2.87849 49.7880  19
  -6   0  -5-187.051 308.521   7
   6   0  -5-95.3162 149.983  11
  -6   0  -5 2.55217 55.1345  19
  -6   0   5 95.2048 89.8509   5
   6   0   5 30.6659 87.6835  16
  -6   0   5 9.24585 92.3548  19
   6   0   5 32.7063 59.5183   8
  -6   0  -5-1.84718 78.8694   4
  -6   0   5 70.7169 159.903  17
  -6   0  -5 15.4053 45.3978  17
   6   0  -5-23.3666 60.0490  18
   6   0  -5 90.2474 118.181   8
   6   0  -5 82.1370 92.3740   1
  -6   0   5 57.9410 114.652   4
  -6   0   5-173.462 236.690  16
  -6   0  -5-96.1422 233.057  15
  -6   0   5 176.279 130.594   2
   6   0   5 13.5573 78.4463  14
   6   0   5 1.68748 74.4143   6
   6   0  -5 88.8257 89.1579  14
   6   0   5 27.5422 64.3090  18
   6   0   5 36.5248 70.7643   1
   0   6  -6 234.795 285.197  13
  -6   0   6 1027.27 290.992   5
   6   0  -6 755.252 273.818   1
   6   0   6 1040.69 347.633   6
  -6   0   6 872.672 256.430   2
   6   0  -6 688.212 284.389  11
  -6   0   6 1044.65 261.776  19
   6   0   6 518.913 255.079   1
  -6   0   6 900.300 232.924   4
   6   0  -6 621.849 249.147  18
   6   0   6 1054.74 347.555   8
  -6   0   6 943.291 348.660  17
   6   0   6 1177.12 337.559  16
  -6   0   6 370.759 105.659  16
   6   0   6 1121.61 366.003  14
   6   0  -6 817.748 234.335  14
  -6   0  -6 81.2843 114.104  19
   6   0  -7-10.1361 19.5680   1
   0   6  -7 30.0461 101.812  13
   6   0   7-71.4195 193.238   1
   6   0  -7-39.1754 138.574  18
  -6   0   7-58.6633 69.4116   5
  -6   0   7-85.7944 159.902  19
   0  -6   7-16.3148 55.2113   6
   6   0   7-48.8276 130.029   8
  -6   0  -7 14.9834 110.237  19
  -6   0   7-22.1025 84.4428  17
   6   0   7-9.03025 102.168  16
  -6   0   7-113.719 308.678  16
   6   0  -7 21.2990 116.236  11
   6   0   7-8.24778 103.571  14
   0   6  -7 11.5583 37.2305   3
  -6   0   7 6.83500 41.3441   2
   6   0   7-53.2161 94.9625   6
   6   0  -7 14.1478 52.7184  14
  -6   0   8 422.458 209.809   5
   0   6  -8 603.738 329.876  13
   0  -6   8 26.5033 46.4346   6
   0   6  -8 453.755 194.318  12
   6   0  -8 175.132 247.121  11
   6   0  -8 310.825 221.892  18
   6   0   8 626.614 333.780   8
  -6   0   8 501.693 290.424  17
   6   0  -8 173.584 119.878   1
   6   0   8 351.553 235.980  14
   6   0   8 429.116 272.241  16
  -6   0   8 254.308 134.148  16
   6   0   8 437.442 251.005   6
  -6   0   8 500.357 229.243   2
   0   6  -8 487.589 221.567   3
   6   0  -8 251.306 146.670  14
   0   6  -9 33.1395 72.0307  13
   0  -6   9 15.2495 23.6050   6
   0   6  -9 14.4139 18.9990  12
   6   0   9-32.5354 127.518   6
  -6   0   9-71.7280 274.022  16
   0   6  -9-132.626 185.630  18
   6   0   9 39.6379 160.844   8
   6   0  -9 31.3215 76.9089  18
   0  -6   9 162.554 231.250  17
  -6   0   9 13.2025 92.5275  17
   6   0   9 11.9258 69.3534  16
   6   0  -9-4.60119 80.5549  11
  -6   0   9-73.2491 104.385   5
   6   0   9-36.6942 92.2371  14
   6   0  -9-93.0388 131.760   1
  -6   0   9 4.40752 80.5518   2
   0   6  -9 5.38594 47.2073   3
   6   0  -9-10.8477 46.8528  14
   0  -6  10-289.390 359.080  16
   0   6 -10 49.9160 13.9722  12
   6   0 -10 87.6726 111.019   1
   0   6 -10 37.4462 53.1206  13
  -6   0  10-57.7150 189.735   5
   6   0  10 135.583 243.042   8
   6   0 -10-97.8524 207.786  18
   6   0 -10 69.9794 115.976  11
  -6   0  10 99.7440 166.715  17
   0   6 -10-0.22048 79.0281  18
   6   0  10-24.1296 15.8610  16
  -6   0  10 140.514 321.192  16
   6   0  10 11.2855 78.9734  14
   6   0  10 127.192 173.983   6
   0  -6  10 179.616 313.503  17
  -6   0  10 86.1750 128.918   2
   0  -6  10-2.70693 21.9209   6
   0   6 -10 49.8524 45.6008   3
   6   0 -10-3.35148 81.1379  14
   0   6 -11-17.7306 61.4976   3
   0  -6  11-40.1697 47.3787   6
   0   6 -11-61.2823 94.8069  13
   6   0  11-3.25153 91.6375   8
   0   6 -11-13.7762 90.6080  12
   6   0 -11 45.5208 99.8327   1
   0  -6  11-108.231 122.188  17
  -6   0  11-210.925 329.687   5
   0   6 -11-7.88587 29.0015   4
   0   6 -11-51.2859 96.6232  18
  -6   0  11-30.9745 97.8711  17
   0  -6  11-451.573 254.693  16
   6   0  11 133.061 173.392  16
  -6   0  11 153.648 460.426  16
   6   0 -11-53.0838 106.465  11
   6   0  11 59.5095 139.715   6
  -6   0  11 11.5157 53.7840   2
   6   0 -11 45.3845 89.6981  14
   0   6 -12 2089.28 525.181  13
   0  -6  12 1521.04 491.805  16
   0   6 -12 2269.21 391.914  12
  -6   0  12 2612.30 662.113   2
   0  -6  12 590.138 169.479   2
  -6   0  12 3415.30 800.304  17
   6   0 -12 735.468 371.918   1
   0   6 -12 2541.95 307.034   4
   0   6 -12 2578.51 446.687  18
   6   0  12 1903.11 621.411   8
   0  -6  12 1909.50 447.362  17
   6   0  12 2394.21 678.781  16
   6   0  12 1755.66 564.998   6
   0  -6  12 1599.16 426.293   6
   0   6 -12 2580.50 494.629   3
   0  -6  12 1685.82 288.405  14
   6   0 -12 1090.89 368.521  14
   0  -6  13 48.1185 57.2742   6
   0   6 -13-11.7033 49.9790   3
   0   6 -13 72.5641 96.1043  12
   0   6 -13 49.0260 54.4432  18
   0  -6  13-42.8786 115.824   2
   0  -6  13 43.4885 117.300  16
   6   0  13-42.3857 168.376   8
   0   6 -13 54.7666 146.350  13
   0  -6  13 37.9579 88.7599  17
   6   0 -13 131.960 272.664   1
  -6   0  13-141.767 310.698  17
   6   0  13 32.8507 85.2783  16
   6   0  13 14.2610 43.2590   6
  -6   0  13 5.35631 32.0076   2
   0   6 -13-75.0768 100.501   4
   0  -6  13 19.0805 31.1801  14
   0  -6  14 306.448 96.5346  14
   0   6 -14 618.462 280.278   3
   0   6 -14 407.282 237.733  13
   0   6 -14 455.518 188.651  12
   0   6 -14 583.695 225.087  18
   0   6 -14 807.957 271.415  11
   0  -6  14 522.426 214.238  17
   0  -6  14 324.069 248.471   2
   6   0  14 530.084 428.213  16
   0  -6  14 459.454 280.341  16
  -6   0  14 333.279 94.9879  17
   6   0  14 368.743 253.110   8
   6   0  14 346.332 258.490   6
  -6   0  14 526.432 333.533   2
   0  -6  14 477.585 230.367   6
   0  -6  15 46.6452 123.473  17
   0   6 -15-53.3889 100.730   3
   0   6 -15-36.5714 94.2718  13
   0   6 -15 44.3483 49.8418  12
   0   6 -15 30.4566 218.078  15
   0   6 -15 146.196 134.131  11
   6   0  15 108.727 147.225   8
   0   6 -15 5.82549 55.9802  18
   0  -6  15 12.5781 57.5746  14
   0  -6  15 38.4563 131.922  16
   0   6 -15 443.191 509.183   7
   6   0  15 126.244 224.487  16
   6   0  15-104.681 122.573   6
   0  -6  15 96.7255 191.947   2
   0  -6  15 109.006 164.666   6
   0   6 -16-45.0483 130.389  13
   0   6 -16 96.9740 120.114   3
   0   6 -16 83.3270 95.5696  12
   0   6 -16 52.1279 151.291  20
   0   6 -16 119.878 168.815  11
   0  -6  16-68.5586 140.116   2
   0   6 -16 52.5248 73.7161  18
   6   0  16 234.590 300.978   8
   0  -6  16 107.119 125.531  17
   0  -6  16-20.6714 128.921  16
   0   6 -16 369.600 475.452   7
   6   0  16 166.752 208.714  16
   0   6 -16 166.390 341.600  15
   6   0  16-172.648 240.877   6
   0  -6  16 36.4977 9.47357   6
   0  -6  17-115.597 176.971   2
   0   6 -17 101.580 147.860  13
   0   6 -17-18.4120 82.0813   3
   0   6 -17-64.4194 111.086  12
   0   6 -17-28.8778 67.0494  18
   0   6 -17 18.5985 92.1066  11
   0   6 -17 175.131 189.625  20
   0   6 -17 436.586 320.368  10
   0   6 -17 95.2126 103.874  15
   0  -6  17-733.598 940.415   8
   0  -6  17 125.177 231.133  16
   0   6 -17-308.181 456.362   7
   6   0  17 150.656 334.315  16
   6   0  17-284.091 407.331   6
   0  -6  17 92.1443 139.355  17
   0  -6  17 78.8485 219.175   6
   0   6 -18 267.062 217.619  13
   0   6 -18 268.833 189.018   3
   0   6 -18 13.4521 27.7026  20
   0   6 -18 295.391 163.507  11
   0   6 -18 1651.67 601.272   9
   0   6 -18 449.778 252.862  12
   0  -6  18 516.138 334.185   2
   0  -6  18 422.536 275.374  16
   0  -6  18 475.402 247.500  17
   0   6 -18 629.395 395.929  10
   0   6 -18-144.942 691.923   7
   0   6 -18-350.980 841.621  15
   0   6 -18 257.845 172.899  18
   0  -6  18 540.787 299.554   6
   6  -1   0 2381.91 348.011   8
  -6   1   0 2275.32 369.749  12
   6   1   0 3168.54 506.811   1
  -6  -1   0 1860.74 411.720   5
  -6  -1   0 1555.79 323.287   2
  -6   1   0 2604.46 386.846   5
   6  -1   0 2669.27 390.699   1
  -6   1   0 2678.04 274.821   2
  -6  -1   0 1697.11 381.855  19
   6   1   0 3077.25 407.157  18
   6  -1   0 3089.59 524.982  18
  -6   1   0 2742.63 391.102   4
  -6   1   0 2095.89 495.079  17
   6   1   0 3308.63 466.091   8
   6   1   0 2635.65 448.387   6
   6  -1   0 2882.25 330.683   6
  -6  -1   0 1581.28 330.392  17
   6   1   0 3199.99 566.991  14
   6  -1   0 2897.92 421.045  14
  -6  -1   0 1658.65 386.351   4
  -6   1   0 2492.39 366.686  19
   6  -1   1 648.820 217.160  18
  -6  -1   1 403.928 167.536  19
   6   1   1 796.886 268.014   1
  -6  -1   1 402.418 147.256   2
  -6  -1   1 402.354 122.707  12
  -6   1  -1 489.456 161.391  12
  -6   1  -1 528.270 167.853   5
  -6   1   1 512.439 179.252   5
  -6  -1  -1 240.040 118.192  19
  -6   1   1 315.550 150.608  12
   6  -1  -1 604.428 204.882   1
   6   1  -1 593.208 201.252   1
  -6  -1  -1 256.000 151.049   5
  -6   1  -1 467.572 94.8001   2
  -6   1   1 550.073 148.008   2
  -6  -1   1 387.841 186.861   5
  -6   1   1 485.294 170.297  19
   6   1  -1 633.372 189.245   6
   6  -1   1 594.591 155.736   6
  -6   1  -1 346.818 127.785  17
  -6   1   1 532.829 269.163  17
   6   1  -1 586.231 151.048  13
   6   1  -1 614.426 179.214  18
   6  -1   1 455.887 160.752   8
  -6   1   1 570.174 178.179   4
   6  -1  -1 475.846 162.817   8
  -6  -1   1 418.165 100.403   7
   6   1   1 604.973 220.690   8
  -6  -1   1 437.067 192.347   4
  -6   1  -1 536.808 171.100   4
  -6  -1  -1 269.373 127.045  17
  -6  -1   1 308.755 150.594  17
  -6  -1  -1 294.348 162.526   4
  -6   1  -1 476.814 170.926  19
  -6  -1   1 381.616 153.989  15
   6  -1  -1 613.686 153.630   6
   6   1  -1 587.305 186.775   8
   6  -1   1 570.049 183.384  14
   6  -1  -1 678.773 205.878  14
   6   1   1 582.729 177.924  18
   6   1   1 630.681 252.504  14
   6   1   1 428.050 195.861   6
   6   1  -1 562.070 237.154  14
   6  -1   1 513.695 156.190   1
  -6   1  -1 365.897 169.226   3
   6  -1  -1 500.451 220.567  18
  -6   1  -2 422.725 151.994   3
   6   1  -2 485.544 112.122  13
  -6   1  -2 385.697 142.224  12
  -6  -1   2 369.654 100.792  12
  -6   1   2 508.020 185.820   5
   6   1   2 527.490 217.403   8
  -6   1   2 592.471 186.081   2
  -6  -1   2 380.338 170.688   5
  -6   1  -2 368.158 78.5450   2
   6   1  -2 428.354 116.893  10
   6  -1   2 547.821 171.382  18
  -6   1   2 425.611 155.566  19
  -6  -1  -2 214.465 133.561  19
   6   1  -2 523.151 192.579   1
   6   1  -2 565.098 186.112  18
   6   1  -2 449.041 157.347   8
  -6  -1  -2 174.697 128.844   4
   6  -1  -2 326.227 187.164  18
  -6  -1   2 290.906 117.093   2
   6  -1   2 430.733 146.608   8
  -6   1  -2 356.657 145.101   5
  -6  -1   2 305.484 140.264  19
   6   1   2 533.478 184.265  18
  -6  -1   2 350.131 169.323   4
   6  -1   2 424.473 146.889   1
  -6   1  -2 264.580 133.274  17
  -6   1  -2 390.121 152.240   4
   6  -1  -2 353.899 145.811   8
   6  -1  -2 411.979 192.978   1
  -6  -1   2 511.607 176.155   7
  -6   1   2 350.146 236.684  17
  -6   1   2 430.765 158.817   4
   6   1   2 724.719 278.459   1
   6   1  -2 504.395 144.681   6
   6   1   2 388.563 153.814  16
  -6   1  -2 393.979 151.325  19
   6  -1   2 455.087 143.516   6
  -6  -1   2 484.663 181.533  15
   6  -1  -2 483.941 154.844   6
   6   1  -2 697.186 190.287  11
   6   1   2 420.126 202.438   6
   6   1   2 492.755 225.026  14
  -6  -1  -2 250.322 180.848  17
   6   1  -2 509.487 213.564  14
   6  -1   2 491.874 173.135  14
   6  -1  -2 448.303 175.202  14
  -6  -1   2 308.795 152.061  17
   6  -1   3 22.1694 39.9034   6
  -6  -1   3-3.40381 17.3903   2
  -6   1  -3 0.82687 31.1896   3
   6   1  -3 50.2080 103.564   9
  -6   1  -3 38.9652 81.1837  12
  -6  -1   3-36.7743 73.7423  12
   6   1  -3 42.4835 59.2163  11
   6   1  -3 11.0077 18.1048  10
  -6   1  -3-0.06634 16.0875   5
  -6  -1   3 24.4013 10.4589   5
   6   1  -3 8.08382 26.9947   6
  -6   1   3 14.0972 35.3246   5
   6   1  -3 21.5046 27.0398  14
  -6   1  -3 1.67737 43.5256  19
   6  -1   3-3.60847 41.2432   1
  -6  -1  -3 36.3979 97.1033  17
   6  -1   3 18.6204 13.9983  18
  -6  -1  -3 27.1546 45.4357  19
  -6   1   3 19.9984 35.1343   2
  -6  -1  -3-105.427 188.833   4
   6   1  -3-16.7047 54.9826  18
   6   1   3 59.6111 80.3798   8
  -6   1  -3 11.9543 29.9672  20
   6  -1   3-2.84869 32.9702  14
   6  -1   3 3.74666 13.8225   8
   6  -1  -3-2.31089 56.2963   1
   6   1  -3 32.8816 39.6231   8
  -6  -1   3 5.28285 41.5439  17
  -6   1  -3-8.06357 48.8648   4
  -6  -1   3 5.43217 14.5452   4
  -6   1   3 18.0538 40.9962  19
  -6   1  -3 57.8040 72.6391  17
   6   1   3 28.2705 88.9705   1
  -6   1   3 18.4646 32.2034  17
   6  -1  -3-7.17930 78.2275  18
  -6  -1   3 4.01783 36.4206  19
  -6   1   3-11.1076 69.8941   4
  -6   1  -3 16.2241 21.3861  10
   6   1   3 63.0138 56.2152  16
   6   1   3 2.92687 75.0266  18
   6   1   3 56.0422 89.4448   6
   6   1  -3-1.60275 46.6033   1
   6   1   3 61.2444 96.6138  14
   6  -1  -3-20.1310 81.0881   8
   6  -1   3 34.4230 21.1532  16
   6  -1  -3-2.32909 25.3624  14
  -6   1   4 413.421 260.594  17
   6  -1   4 347.263 164.692   8
  -6  -1   4 278.099 73.2380  16
  -6   1  -4 302.874 138.881   3
  -6   1   4 291.407 156.766   5
   6   1  -4 411.180 151.315  11
   6   1  -4 295.087 112.364   8
  -6   1  -4 267.329 146.269   5
  -6   1  -4 236.864 107.042  20
  -6  -1   4 278.274 155.596   5
   6   1  -4 287.208 160.691  10
  -6   1  -4 231.185 140.647  19
   6   1  -4 314.571 160.285  14
   6   1   4 251.609 167.267   1
   6   1  -4 350.444 151.667  18
   6   1   4 370.859 240.921   8
   6  -1  -4 157.827 150.866  18
   6  -1   4 485.263 123.522  18
  -6   1   4 397.723 159.891  19
  -6   1  -4 261.198 141.349   4
  -6  -1   4 289.793 154.536  17
  -6  -1   4 281.918 124.369   4
  -6  -1   4 258.016 116.964   2
   6   1  -4 266.936 143.954   1
   6  -1   4 492.529 180.153  16
   6  -1  -4 109.501 162.101   8
   6   1  -4 326.251 75.8569   6
   6   1   4 162.899 101.711  16
   6   1  -4 574.024 207.278   9
   6   1   4 276.741 200.505   6
   6  -1   4 364.189 153.363   1
  -6  -1   4 287.726 125.913  19
   6   1   4 273.984 210.502  14
   6  -1   4 379.023 153.845  14
  -6   1  -4 183.861 101.441  10
  -6   1  -4 204.604 88.7014  17
   6  -1  -4 267.685 151.718  14
   6  -1  -4 191.667 141.685   1
   6  -1   4 361.454 141.078   6
  -6   1   4 355.717 165.468   2
  -6   1  -5 241.618 92.2937  13
   6  -1   5 1027.02 288.289   1
  -6  -1   5 647.330 218.604   5
  -6   1  -5 919.441 362.174  15
   6   1  -5 708.821 227.036   1
  -6   1   5 877.491 277.127   5
  -6  -1   5 672.696 182.704  19
   6   1  -5 964.059 262.570  11
  -6  -1   5 603.520 181.771   2
  -6   1  -5 512.719 213.878   5
   6  -1  -5 551.518 257.908   1
  -6   1   5 910.990 274.369  19
  -6   1  -5 492.460 197.163   4
   6   1  -5 266.877 102.069  10
  -6   1  -5 371.243 108.697  17
   6   1  -5 716.793 187.741   8
  -6   1   5 837.955 290.671   2
  -6  -1   5 662.560 200.561   4
   6  -1   5 868.649 262.087   8
   6   1  -5 544.073 197.318  18
   6   1   5 822.214 348.204   8
  -6  -1   5 632.693 232.217  17
  -6   1  -5 408.328 193.286  19
   6  -1   5 915.678 245.040  16
  -6  -1   5 693.669 145.248  16
  -6   1  -5 758.152 299.459   7
   6  -1   5 949.257 154.889  18
   6  -1   5 911.477 252.809   6
   6   1   5 262.541 121.828  16
  -6   1   5 769.686 376.469  17
   6   1  -5 667.754 241.340   9
   6  -1   5 808.843 249.491  14
   6   1  -5 685.257 222.980  14
   6   1   5 593.488 290.153   6
   6   1   5 691.571 335.607  14
   6  -1  -5 619.453 219.546  14
  -6   1  -5 347.457 132.307  10
   6   1   5 260.848 125.288   1
  -6   1  -5 405.931 159.789  20
   6   1  -6 376.626 191.087   1
   1   6  -6 193.625 220.066  13
  -6   1   6 287.027 105.824   2
  -6   1  -6 410.714 245.598   7
  -6   1  -6 105.458 26.1635  20
  -6   1  -6 211.427 128.152   5
   6   1  -6 434.379 188.464  11
  -6  -1   6 359.982 163.013   5
   6   1  -6 210.794 51.9903   9
   6   1  -6-351.796 401.637  10
  -6  -1   6 398.764 146.524  19
   6   1  -6 327.240 158.005  18
  -6   1  -6 244.103 145.884   4
  -6  -1   6 370.840 196.336  17
   6  -1   6 377.369 177.191   8
  -6   1  -6 26.2803 181.581  10
  -6   1   6 298.141 188.361  17
   6   1  -6 333.667 152.514   8
  -6  -1   6 434.057 155.729   4
  -6  -1   6 296.199 139.138   2
   6  -1   6 448.526 192.043  16
  -6   1  -6 262.096 158.165  19
  -6  -1   6 386.025 138.611  16
   6  -1   6 540.750 249.950   1
   6   1   6 456.574 281.324   8
   6   1   6 262.789 169.429  16
  -6   1  -6 298.137 232.563  15
   6   1   6 252.419 191.757   6
   6   1   6 226.777 199.807  14
   6  -1   6 454.852 205.399  14
  -6   1   6 282.633 78.3064   5
   6   1  -6 350.464 151.708  14
   6  -1   6 501.591 205.622   6
   6  -1  -6 231.932 173.806   1
   6  -1  -6 284.434 146.802  14
  -1   6  -7 618.926 241.278  13
  -6   1   7 850.921 281.618   2
   1   6  -7 1111.40 448.715  13
  -6  -1   7 784.000 217.011   4
  -1   6  -7 1014.91 298.745  12
   1  -6   7 84.6303 78.8820   6
  -1  -6   7-37.6375 124.710   6
  -6  -1   7 882.220 259.433   5
   6  -1   7 1006.05 311.940   8
   6   1  -7 681.670 248.226   1
   6  -1  -7 668.108 267.123  14
  -6  -1   7 808.482 243.350   2
  -6   1  -7 432.977 206.356  19
   6   1  -7 736.441 273.277  11
   6   1  -7-361.676 577.656  10
   6   1  -7 338.840 367.929   8
  -6   1  -7 274.757 118.696  20
  -6  -1   7 887.100 227.426  19
   6  -1   7 1045.05 320.323   6
   6  -1  -7 615.497 346.365   1
   6   1  -7 739.040 250.640  18
   6   1   7 730.222 417.878   8
   6   1   7 678.949 319.705  14
  -6   1  -7 376.853 221.992   4
  -6  -1   7 801.519 302.111  17
   6  -1   7 746.933 324.576   1
  -6   1   7 800.904 316.794  17
   6  -1   7 1357.91 354.710  16
  -6  -1   7 934.674 255.742  16
   6   1  -7 417.879 209.624   9
  -6   1  -7 678.320 284.835   7
   1   6  -7 876.437 281.540   3
   6   1   7 349.046 200.603  16
   6  -1   7 1080.33 318.290  14
   6   1  -7 697.644 215.497  14
   6   1   7 508.526 276.720   6
  -6   1  -7-53.4410 350.230  10
  -1   6  -7 977.747 310.356   3
  -6   1  -7 676.762 340.544  15
  -6   1   8 406.061 170.886   2
  -1   6  -8 650.625 383.943  13
   1   6  -8 775.702 344.312  13
   1  -6   8 153.520 138.880   6
  -1  -6   8 189.243 154.513   6
  -6  -1   8 624.448 246.802   5
  -6   1  -8-15.9867 168.665   4
  -6  -1   8 725.032 253.982   2
  -6   1  -8 32.2263 86.4754  20
   6   1  -8 517.882 244.621  11
  -6  -1   8 693.519 225.296  19
   6   1  -8 597.880 239.399   1
  -6  -1   8 599.503 182.959   4
  -6   1  -8 192.931 76.3363   7
  -6   1  -8-321.331 551.024  10
   6  -1   8 75.1802 74.4597   1
   1   6  -8 293.625 170.895  18
   6   1   8 443.385 252.701   8
   6   1  -8 144.332 37.6416   9
   6  -1  -8 268.864 285.534   1
  -6  -1   8 591.279 266.416  17
   6  -1   8 835.966 297.484   8
  -1   6  -8 764.380 237.324  12
   6  -1   8 850.182 317.381  16
   6   1   8 346.818 235.945   6
  -6  -1   8 719.771 254.195  16
   1   6  -8 642.546 234.983   3
   6   1   8 229.849 115.992  16
  -1   6  -8 712.941 255.037   3
  -6   1  -8 120.748 140.267  15
  -6   1  -8 71.7789 59.6204  19
   6  -1   8 837.923 314.977  14
   6   1  -8 581.683 215.728  14
   6   1   8 306.678 167.678  14
  -6   1   8 564.230 176.866  17
  -1  -6   8-42.8587 195.230  17
   6  -1   8 789.502 285.089   6
   6   1  -8 542.262 233.977  18
   6  -1  -8 312.188 226.525  14
  -1   6  -9 537.108 300.463  13
  -1   6  -9 446.833 134.642  18
   1  -6   9 294.488 155.869   6
  -1  -6   9 346.764 167.132   6
  -6   1  -9 46.4908 34.0193  19
  -1   6  -9 641.989 196.140  12
   1   6  -9 629.906 212.424  12
   6  -1   9 588.899 121.421   2
   6   1  -9 379.705 228.335  11
   6   1  -9 476.013 175.032  14
  -6   1  -9-113.073 334.979   7
  -6   1  -9-146.232 400.406  15
  -6  -1   9 605.174 235.841   5
  -6  -1   9 621.676 192.121   4
   6   1   9 187.914 166.778   8
   6   1  -9 375.556 222.254  18
   6   1  -9 324.468 179.733   1
   6  -1   9 715.486 316.099   8
  -1  -6   9 120.603 73.6866  17
   1   6  -9 683.529 308.719  18
   6   1  -9-147.764 321.153   9
  -6  -1   9 541.860 260.434  17
   1   6  -9 641.985 291.197  13
   6  -1   9 652.970 278.766  16
  -6  -1   9 781.844 287.493  16
  -6  -1   9 509.963 219.612   2
   1  -6   9-71.8385 191.846  17
   6   1   9 219.957 175.696  16
   1   6  -9 611.412 233.338   3
   6   1   9 383.006 236.156   6
   6  -1   9 709.901 312.182  14
   6  -1   9 596.399 259.858   6
  -6   1  -9-85.3372 237.600  20
  -1   6  -9 619.234 229.475   3
  -1   6 -10 1184.71 279.022  12
  -1   6 -10 1390.59 475.420  13
   1   6 -10 1246.91 391.350  13
  -1  -6  10 637.542 246.038   6
   1  -6  10 864.800 291.943   6
   1   6 -10 1368.79 306.521  12
  -6  -1  10 1456.31 372.180   5
   6   1 -10 956.537 341.103   1
  -6  -1  10 1278.67 383.218   2
   6  -1  10 1340.88 219.329   2
   6   1 -10 672.699 246.072  11
  -6   1 -10-192.981 340.928  20
   1   6 -10 1387.31 394.277  18
   6   1 -10 8.67080 357.721   9
   1   6 -10 1312.50 338.035   3
   6   1 -10 890.957 317.105  18
  -1  -6  10 154.879 278.815  16
   6  -1  10 1253.78 420.437   8
  -6  -1  10 1345.38 415.615  17
  -1  -6  10 701.110 364.698  17
  -6   1 -10 134.506 145.476  19
   6  -1  10 1661.93 514.673  16
   1  -6  10 178.429 322.422  16
   1  -6  10 1176.69 451.357  17
  -6  -1  10 1012.09 253.695   4
   6  -1  10 1391.08 465.461   6
  -6  -1  10 1305.51 441.546  16
  -1   6 -10 1427.93 366.979   3
   6  -1  10 1616.39 533.539  14
   6   1  10 587.552 306.505   6
   6   1 -10 768.674 231.936  14
  -1   6 -10 1510.12 401.098  18
  -1   6 -11 505.070 205.306   3
  -1  -6  11 294.402 173.430   6
   1  -6  11 261.141 187.028   6
   1   6 -11 334.182 160.259  13
  -1   6 -11 496.764 178.759  12
   1   6 -11 462.015 163.334  12
   6   1 -11 152.449 162.168  11
  -1  -6  11-329.258 388.394   2
  -1  -6  11 113.536 70.7369  17
  -6   1 -11-25.5107 112.764  19
  -1   6 -11 398.213 184.338  18
  -1  -6  11 91.8753 73.6495  16
  -6  -1  11 398.180 250.949  16
   6  -1  11 600.786 295.378  16
   1   6 -11 328.237 161.443  18
  -6  -1  11 510.487 226.343   5
   6   1 -11 222.082 145.738  18
   6  -1  11 571.338 337.920   8
  -1   6 -11 432.275 251.927  13
  -6  -1  11 337.392 199.584  17
   1  -6  11-91.0757 171.635  16
  -1   6 -11 442.477 115.436   4
  -6  -1  11 440.951 212.234   2
   6   1 -11 308.500 192.150   1
   6   1  11 137.677 15.8778   6
   6  -1  11 512.073 280.732  14
   6  -1  11 414.907 248.965   6
   6   1 -11 313.314 152.746  14
   6  -1  11 456.354 110.779   2
   1  -6  11 237.243 132.691  17
   1  -6  11 310.780 68.9719  14
   1   6 -11 404.237 181.905   3
  -1  -6  12 508.847 198.051   6
  -1   6 -12 507.309 215.425   3
   1   6 -12 649.850 245.090   3
   1   6 -12 541.882 253.184  13
   6   1 -12 374.337 239.649   1
  -1   6 -12 667.754 217.921  12
   1   6 -12 537.524 192.199  12
  -6   1 -12 215.210 250.250  19
  -1  -6  12 123.454 96.8984   2
   6   1 -12 92.4032 56.4601  11
   1  -6  12-412.148 562.036   2
   1  -6  12 497.018 202.317   6
  -6  -1  12 806.299 287.264   5
  -1   6 -12 596.528 208.497  18
  -6  -1  12 549.082 270.401   2
   1   6 -12 638.878 255.395  18
  -1   6 -12 825.397 185.397   4
   6  -1  12 785.024 391.497   8
   6   1 -12 198.968 143.779  18
   1  -6  12 462.652 203.403  17
  -1  -6  12 346.879 214.145  17
  -1  -6  12 342.928 225.237  16
   1  -6  12 311.963 183.659  16
  -1   6 -12 465.662 259.181  13
   6  -1  12 758.912 356.769  16
  -6  -1  12 926.463 413.639  16
   6   1  12 69.4324 253.100   6
   6  -1  12 627.488 352.207  14
   6  -1  12 537.800 254.657   6
  -6  -1  12 613.914 318.814  17
   6  -1  12 808.266 201.323   2
   6   1 -12 347.696 153.288  14
   1  -6  12 566.225 136.774  14
  -1  -6  13 1046.46 338.987   6
   1  -6  13 1056.56 378.120   6
  -1   6 -13 959.849 401.772  13
   1   6 -13 1147.25 388.016  13
  -1   6 -13 1090.27 287.757  12
   1   6 -13 1205.61 279.931  12
   6   1 -13 651.237 304.626   1
  -6  -1  13 1582.72 427.918   5
  -1  -6  13 900.557 405.175   2
  -6  -1  13 1421.10 428.480   2
   6  -1  13 1523.27 314.004   2
   6   1 -13 286.155 199.944  11
   1  -6  13 303.175 266.645   2
  -1  -6  13 1106.68 360.850  17
   6   1 -13 480.495 274.425  18
  -6  -1  13 1622.54 517.850  17
  -1   6 -13 1305.91 275.019  18
   6  -1  13 1269.46 454.044   8
   1  -6  13 1030.81 311.087  17
  -1  -6  13 915.680 368.788  16
   1   6 -13 1166.83 323.117  18
  -6   1 -13-87.4667 67.3833  19
   1  -6  13 1014.05 417.165  16
   6  -1  13 1722.40 571.977  16
  -6  -1  13 1668.60 619.866  16
  -1   6 -13 1223.80 362.860   3
   1  -6  13 1059.38 176.105  14
   1   6 -13 1370.97 361.261   3
   6  -1  13 784.413 380.237  14
   6  -1  13 1301.06 473.000   6
   6   1 -13 558.027 202.727  14
   1   6 -14 466.865 222.571   3
  -1   6 -14 410.675 217.695   3
  -1   6 -14 321.098 237.404  13
   1   6 -14 394.404 237.147  13
  -6  -1  14 800.749 385.746  17
  -1   6 -14 462.689 196.798  12
   1   6 -14 464.694 189.758  12
   1   6 -14 688.905 294.442  11
  -1   6 -14 595.001 218.717  11
   1  -6  14 355.277 202.256   2
   6   1 -14 196.924 186.242   1
  -1   6 -14-50.4269 196.018   4
  -6  -1  14 650.719 277.209   5
   1  -6  14 464.520 208.908  17
   1  -6  14 93.6509 451.965   8
   1   6 -14 655.127 238.489  18
   1  -6  14 460.782 286.231  16
   6  -1  14 570.884 295.400   8
   6   1 -14 111.945 164.476  18
  -6   1 -14 44.8406 146.419  19
  -1  -6  14 570.092 252.810  17
  -1  -6  14 456.917 276.347  16
   6  -1  14 503.487 296.450  16
  -6  -1  14 689.874 408.904  16
   1   6 -14 1227.10 638.951  15
   1  -6  14 479.517 131.033  14
  -6  -1  14 657.745 306.956   2
   6  -1  14 589.392 332.448   6
   6   1 -14 135.649 185.069  11
  -1   6 -14 491.733 175.594  18
   6  -1  14 662.972 206.375   2
   6   1 -14 188.816 128.506  14
  -1  -6  14 469.916 339.959   2
  -1  -6  14 316.617 241.488   6
   1  -6  14 235.266 159.329   6
   1   6 -15 201.051 155.016   3
  -1   6 -15 190.926 152.766   3
  -1   6 -15 45.3027 88.8384  13
   1   6 -15 150.396 113.299  13
  -1   6 -15 216.102 144.677  12
   1   6 -15 170.665 129.433  12
  -1   6 -15 870.994 569.703  15
   1   6 -15 337.722 209.361  11
  -1   6 -15 256.247 161.602  11
   1   6 -15 286.948 266.912  20
   1  -6  15 260.082 310.334   2
   1  -6  15 306.577 169.857  17
   6   1 -15 91.4009 170.935   1
  -6  -1  15 168.745 146.724   5
  -1  -6  15 224.650 188.496   2
  -1  -6  15 322.945 263.526   6
   1   6 -15 291.392 170.219  18
  -1   6 -15 204.161 131.511  18
   6  -1  15 295.955 297.852   8
  -1  -6  15 284.743 144.611  17
   6   1 -15 155.703 119.455  14
  -6  -1  15 449.280 300.432  17
   1  -6  15 315.178 87.4262   8
   1  -6  15 387.422 267.167  16
  -1  -6  15 247.223 186.738  16
   1   6 -15 618.424 537.958   7
   6  -1  15 391.299 356.871  16
  -6  -1  15 310.346 303.936  16
   1   6 -15 937.786 583.915  15
  -6  -1  15 274.751 244.149   2
   6  -1  15 177.235 176.477   6
   1  -6  15 347.602 240.348   6
   1  -6  15 233.120 117.451  14
   6  -1  15 333.870 129.289   2
   6   1 -15 87.4197 218.722  11
  -1   6 -16 386.939 232.483  13
   1   6 -16 574.340 264.591   3
   1   6 -16 456.882 249.914  13
  -1   6 -16 408.347 214.576   3
  -1   6 -16 642.565 262.452  12
   1   6 -16 552.403 210.851  12
  -1   6 -16 801.851 250.251  11
   1   6 -16 558.084 223.953  11
   1   6 -16 487.945 298.179  20
   6   1 -16-6.11220 40.3786  11
   6   1 -16 196.442 213.843   1
   1  -6  16 846.693 505.911   2
  -1   6 -16 433.934 280.181  20
  -1   6 -16 620.574 210.107  18
   6  -1  16 471.917 302.419   8
   1   6 -16 789.716 561.154  15
   1  -6  16 626.498 233.453  17
  -1   6 -16 898.223 637.331   7
  -1  -6  16 729.777 406.215   2
  -6  -1  16 723.166 349.633  17
   1  -6  16 883.563 323.211   8
   1  -6  16 574.146 375.824  16
  -1  -6  16 491.297 287.441  16
   1   6 -16 745.628 496.724   7
   6  -1  16 587.307 342.025  16
  -6  -1  16 905.127 599.521  16
  -1   6 -16 1155.81 680.628  15
   6  -1  16 453.951 295.441   6
  -6  -1  16 710.903 406.848   2
  -1  -6  16 699.547 296.336  17
  -6  -1  16 812.872 336.969   5
   1  -6  16 306.588 146.908  14
   1   6 -16 688.536 236.217  18
   6  -1  16 819.364 269.493   2
  -1  -6  16 240.690 195.780   6
   1  -6  16 936.790 441.205   6
   6   1 -16 193.795 124.515  14
   6   1 -17-102.641 157.938   1
  -1   6 -17 88.7253 56.9038  13
   1   6 -17-60.1212 177.242  13
   1   6 -17-8.79221 110.223   3
  -1   6 -17 78.8340 120.642   3
  -1   6 -17 93.2384 156.937  12
   1   6 -17 61.3455 101.853  12
   1   6 -17 123.589 134.322  11
  -1   6 -17 119.917 149.676  11
   1  -6  17 0.05404 95.0015  17
   1   6 -17 230.719 247.856  20
   6  -1  17-18.6276 128.656   8
  -1   6 -17 133.776 214.237  20
  -1   6 -17 458.429 390.917  10
   1   6 -17 406.000 358.224  10
   6  -1  17-44.8944 149.517   2
  -1  -6  17 267.162 281.958   2
   1   6 -17-290.349 667.585  15
  -1   6 -17 116.549 122.993  18
  -6  -1  17-195.704 338.350  17
  -1  -6  17 159.582 154.965  17
   1  -6  17 145.112 122.721   8
   1  -6  17 114.154 203.291  16
  -1  -6  17 85.4609 111.353  16
   1   6 -17-531.846 710.065   7
  -1   6 -17 248.936 405.451   7
   6  -1  17 317.142 350.863  16
  -6  -1  17 116.887 423.593  16
  -1   6 -17 267.156 397.962  15
   1   6 -17 61.8612 78.8411  18
   6  -1  17 42.8745 36.7202   6
  -6  -1  17 349.107 284.544   2
  -6  -1  17-97.9230 184.573   5
  -1  -6  17 345.557 296.964   6
   1  -6  17-98.8055 255.456   6
   6   1 -17-8.41915 13.6585  14
   1  -6  17 39.8435 196.439   2
  -1   6 -18 169.389 199.213  13
   1   6 -18 401.803 318.229  13
   1   6 -18 403.121 260.449   3
  -1   6 -18 423.126 279.230   3
  -1   6 -18 386.066 233.984  12
   1   6 -18 552.665 224.815  12
   1   6 -18 746.427 277.254  11
  -1   6 -18 704.930 257.978  11
  -1   6 -18 291.539 272.046  20
   1   6 -18 384.348 252.659  20
   1   6 -18 1096.86 504.473  10
   6   1 -18 242.102 247.122   1
  -1   6 -18 1453.10 562.998   9
   1   6 -18 1416.23 579.596   9
   1  -6  18 1050.34 375.357   8
   1   6 -18 538.695 255.442  18
   6  -1  18 583.659 332.242   8
   1  -6  18 630.399 279.929  17
  -1  -6  18 868.383 452.313   2
  -1  -6  18 565.796 261.007  17
  -1   6 -18 554.274 257.858  18
   1  -6  18 706.892 380.666   2
  -6  -1  18-30.1817 267.854  17
   1  -6  18 702.930 402.663  16
  -1  -6  18 744.308 387.599  16
  -1   6 -18 553.686 483.214   7
  -1   6 -18 653.576 329.442  10
   6  -1  18 838.927 491.052  16
  -6  -1  18 767.144 587.761  16
   6  -1  18 779.594 286.689   2
  -1   6 -18 190.779 213.469  15
   6  -1  18 642.609 377.504   6
  -6  -1  18 886.139 493.959   2
  -1  -6  18 740.676 398.467   6
   1  -6  18 764.123 508.780   6
   6  -2   0 416.038 158.731   8
  -6   2   0 506.537 209.417  12
  -6   2   0 514.329 186.670   5
  -6   2   0 574.362 189.717  19
  -6  -2   0 209.174 198.787  19
  -6  -2   0 163.512 161.199  17
   6   2   0 673.304 239.986  18
   6   2   0 618.191 236.007   8
   6  -2   0 463.243 183.635   1
   6   2   0 682.237 275.562   1
  -6   2   0 494.852 167.963   4
   6  -2   0 550.238 191.815   6
   6  -2   0 542.528 196.107  14
   6   2   0 526.932 270.829  14
   6   2  -1 4375.76 685.833   1
  -6   2  -1 3394.58 509.428  12
  -6   2   1 3717.18 503.068   4
  -6  -2   1 1025.60 298.035   2
  -6   2  -1 3513.76 455.509   5
  -6   2   1 4008.80 544.113   5
   6  -2   1 3674.05 472.028   1
   6  -2  -1 3096.08 523.703   1
   6   2  -1 4500.38 592.812  18
  -6   2  -1 3554.00 457.971   4
   6   2   1 4065.91 753.692   1
  -6   2  -1 3556.36 453.875  19
   6   2   1 3300.67 639.587   8
  -6   2   1 3914.30 495.727  19
   6   2  -1 4304.30 602.457   8
   6  -2   1 3340.96 442.700   8
   6  -2  -1 3384.16 582.730   6
  -6  -2   1 845.528 295.440   4
  -6  -2   1 1492.57 386.161  17
   6   2  -1 3527.01 718.469  14
  -6  -2  -1 263.329 190.097  17
   6   2   1 3781.51 595.812  18
   6   2   1 3073.93 717.009  14
   6   2  -1 1083.59 277.239  13
   6  -2   1 4133.45 473.849   6
   6  -2  -1 2636.71 448.489   8
   6  -2   1 4016.83 510.317  14
   6  -2  -1 3600.76 519.412  14
  -6  -2   1 1608.66 395.658  19
   6  -2   2 182.682 90.5135   8
  -6   2  -2 100.882 52.4435   2
  -6   2  -2 192.264 109.910  12
  -6   2  -2 200.902 112.475   5
   6   2  -2 232.405 135.370  13
   6  -2   2 183.264 91.0252   6
   6  -2  -2 110.131 116.376   1
   6   2  -2 200.271 145.041   1
  -6   2   2 234.371 131.435  19
  -6  -2   2 110.063 116.269   5
   6  -2  -2 96.1702 74.7163   8
  -6  -2   2 88.5843 87.3664   2
  -6  -2   2 118.557 80.8101  19
  -6   2   2 181.457 72.9844   5
  -6   2  -2 189.985 95.2096   4
  -6   2  -2 207.269 111.345  19
   6   2  -2 250.863 125.631  18
  -6  -2   2 138.983 131.162   4
   6   2  -2 281.733 137.946   8
   6  -2   2 193.084 99.3229   1
   6  -2  -2 172.622 123.826  14
   6   2   2 124.168 128.297   8
   6   2   2 124.381 104.998  14
   6   2  -2 144.648 102.012  14
  -6   2  -2 169.952 132.879   3
  -6  -2   2 74.3172 43.6209  17
   6   2   2 198.878 147.566   1
   6  -2   2 210.193 104.543  14
   6   2  -3 1119.92 228.711  13
  -6   2  -3 870.985 229.711  12
   6   2  -3 1113.83 315.300   1
  -6  -2   3 692.098 207.276   2
  -6   2  -3 899.423 221.043   5
   6  -2   3 887.422 211.504   1
  -6  -2   3 570.748 250.817   5
  -6   2  -3 882.439 229.684  19
  -6   2   3 1098.09 306.530  19
  -6  -2   3 609.835 227.076  19
  -6   2  -3 881.905 231.247   4
   6   2  -3 1140.07 256.605   8
   6  -2   3 869.210 228.185   8
  -6  -2   3 536.518 224.818   4
   6   2  -3 1106.42 287.491  18
  -6  -2   3 678.041 245.271  17
   6   2   3 491.254 247.207   1
   6  -2  -3 677.367 315.829   1
   6  -2   3 966.013 226.292   6
  -6   2  -3 873.195 280.201   3
   6   2   3 498.618 240.555   8
   6  -2   3 986.770 244.196  14
   6  -2  -3 743.968 258.944  14
   6   2   3 723.960 346.956  14
   6   2  -3 863.036 348.559  14
   6   2  -4 743.744 176.670  13
  -6   2  -4 732.515 207.726  12
   6   2  -4 905.489 300.592   1
  -6   2  -4 763.146 203.334   5
  -6  -2   4 611.608 199.682   2
   6  -2   4 884.127 204.843   1
  -6  -2   4 661.814 261.739   5
   6   2   4 58.7086 131.354   1
   6   2  -4 862.052 191.731  20
   6  -2  -4 585.335 254.311  14
  -6   2  -4 844.899 233.609  19
   6   2  -4 1003.93 215.317   8
  -6  -2   4 618.575 211.789  19
   6   2  -4 1000.14 261.757  18
  -6   2  -4 813.451 221.173   4
   6  -2   4 752.331 209.766   8
   6  -2   4 889.680 236.138  14
   6  -2   4 660.159 181.543  16
  -6  -2   4 671.387 241.587  17
   6  -2   4 925.462 223.519   6
  -6   2  -4 788.507 233.752   3
   6   2   4 514.554 336.690  14
   6   2  -4 804.290 314.355  14
   6  -2  -4 514.173 245.634   1
  -6  -2   4 630.522 237.198   4
   6  -2   5 882.433 241.363   8
  -6   2  -5 661.708 219.356  19
  -6   2  -5 693.594 210.658  12
   6   2  -5 775.904 261.614   1
   6  -2   5 816.759 200.893   1
  -6  -2   5 717.471 267.632   5
  -6   2  -5 631.965 192.721   5
  -6   2  -5 734.040 218.582   4
  -6  -2   5 661.198 211.350   2
   6   2  -5 1028.88 285.107  11
   6   2  -5 748.019 217.052  20
  -6  -2   5 673.311 232.962   4
   6   2  -5 919.163 258.509  18
   6   2  -5 831.926 180.860   8
  -6  -2   5 717.449 274.211  17
   6   2  -5 1510.06 321.224  10
  -6  -2   5 638.238 152.659  16
   6  -2   5 1028.45 319.916  16
   6   2  -5 782.109 179.251   3
   6  -2   5 1010.10 248.491   6
  -6  -2   5 649.086 183.908  19
   6  -2   5 909.645 233.422  14
  -6   2  -5 693.132 219.365   3
   6   2  -5 699.638 291.978  14
  -6  -2   6 1543.33 286.706  19
  -6   2  -6 288.840 141.234  13
  -6   2  -6 1189.25 307.412  12
   6  -2   6 2033.90 355.132   1
   6   2  -6 1687.77 372.397   1
  -6   2  -6 1289.52 300.638   5
  -6  -2   6 1535.61 365.310   5
  -6   2  -6 1237.06 314.000   4
  -6  -2   6 1503.03 310.303   2
   6   2  -6 1982.78 376.561  11
  -6   2  -6 1032.61 226.402  20
   6   2  -6 1940.19 413.458  10
   6  -2   6 1879.09 357.424   8
  -2   6  -6 1877.40 460.391   3
  -6   2  -6 1535.48 276.862  10
   6   2  -6 1756.30 380.499  18
  -6  -2   6 1383.86 376.330  17
   6   2  -6 912.826 287.532  20
  -6  -2   6 1489.04 324.530   4
   6  -2   6 2530.24 489.218  16
  -6  -2   6 1570.93 248.970  16
   6  -2   6 2048.28 369.250   6
   6   2  -6 1621.64 405.334  14
   6   2  -6 1923.18 202.619   3
   6  -2   6 1814.19 345.739  14
  -6   2  -6 1244.71 304.614   3
  -6   2  -6 1162.05 295.008  19
   2   6  -6 1874.76 566.254  13
   6   2  -6 1872.38 280.437   8
  -2   6  -7 694.099 153.685  13
   6  -2   7 2544.71 461.701   1
  -2   6  -7 2277.59 443.780  12
   2  -6   7 457.204 197.385   6
  -2  -6   7-65.3780 181.699   6
  -6   2  -7 1414.10 357.094   5
   6   2  -7 2514.20 513.294   1
  -6  -2   7 2289.25 410.535   2
   6   2  -7 3123.13 543.837  11
  -6   2  -7 1431.65 296.519  10
   6   2  -7 3899.21 739.907  10
  -6   2  -7 1174.29 311.584  19
  -6  -2   7 1807.39 296.535  19
  -6  -2   7 2354.65 518.458   5
  -6  -2   7 2351.13 353.303  16
  -6   2  -7 1241.83 343.993   4
   6   2  -7 2580.24 463.582  18
   6  -2   7 1907.16 380.370   8
  -6   2  -7 1583.47 267.171   9
  -6  -2   7 2657.42 573.137  17
  -6   2  -7 801.109 210.705  13
   6  -2   7 2435.31 486.079  16
  -6   2  -7 2043.20 543.691  15
   2   6  -7 2451.91 619.668  13
   6  -2   7 2324.21 425.269   6
  -2   6  -7 2252.18 486.518   3
  -6  -2   7 2390.96 425.667   4
   6   2  -7 2404.64 522.032  14
   6  -2   7 2086.37 381.445  14
   6   2  -7 1768.54 302.438   8
   6   2  -7 4211.15 755.912   9
  -6   2  -7 916.970 230.021  20
  -2   6  -8 953.166 446.824  13
   6   2  -8 1181.54 311.043  18
   6  -2   8 1495.99 428.133   1
  -6   2  -8 537.925 189.928  13
  -2   6  -8 1424.59 318.633  12
   2  -6   8 570.559 230.917   6
  -2  -6   8 261.218 151.414   6
  -6  -2   8 1143.47 328.778   5
   6   2  -8 956.914 298.386   1
   2   6  -8 902.221 314.213  18
  -6   2  -8 619.645 256.077   5
   6   2  -8 1179.17 323.134  11
  -6  -2   8 1016.73 279.784   2
  -6   2  -8 581.187 205.790  20
   6   2  -8 5.39119 217.827  20
  -6   2  -8 808.453 252.308  10
   6   2  -8 1232.10 378.403   9
  -6  -2   8 1083.52 260.773  16
  -6   2  -8 759.806 199.841   9
  -6  -2   8 1128.84 262.273   4
   6  -2   8 1328.46 337.994   8
  -6   2  -8 610.678 262.353   4
   6   2  -8 911.965 365.816  10
  -6  -2   8 1004.76 312.174  17
  -6   2  -8 644.115 225.185  19
   6  -2   8 1510.49 383.516  16
   6   2  -8 714.562 121.751   8
  -6  -2   8 1138.64 239.357  19
   6  -2   8 1321.00 333.953   6
   2   6  -8 1378.23 356.043   3
  -2   6  -8 1517.14 393.758   3
  -6   2  -8 1070.10 418.117  15
   6   2  -8 981.475 297.832  14
   6  -2   8 1430.70 332.068  14
  -2  -6   8 134.243 142.084  17
  -6   2  -8 1177.21 397.682   7
   2   6  -8 1275.02 427.930  13
   2   6  -9 1895.65 476.079  13
   2   6  -9 1988.08 528.528  18
   6   2  -9 1526.19 383.440  11
   2  -6   9 858.795 295.649   6
  -2  -6   9 658.790 225.802   6
  -2   6  -9 1931.48 373.739  12
  -6  -2   9 1761.38 393.284   5
   6   2  -9 1241.28 337.258   1
  -6  -2   9 1513.38 351.264   2
  -6   2  -9 753.156 243.336  20
  -6   2  -9 744.470 278.233  19
  -6   2  -9 744.848 224.151   9
   6  -2   9 2043.46 436.231   8
   6   2  -9 965.847 383.194  10
   6   2  -9 1568.92 372.532  18
  -6  -2   9 1522.28 299.124   4
   6  -2   9 308.142 165.836   1
  -6  -2   9 1414.66 399.449  17
  -6   2  -9 755.701 240.320  10
  -6   2  -9 1218.54 412.804   7
  -6   2  -9 526.134 247.557   4
   6  -2   9 2134.34 498.978  16
  -6  -2   9 1744.48 352.089  16
   6  -2   9 2070.81 455.915   6
   2   6  -9 1906.83 404.305   3
  -2  -6   9 494.757 284.590  17
   6   2  -9 1581.69 447.276   9
  -2   6  -9 2058.63 452.488   3
  -6   2  -9 1241.51 466.096  15
   6  -2   9 2006.34 420.139  14
   6   2  -9 982.958 313.125  14
  -6  -2   9 1570.64 315.425  19
  -2   6  -9 1813.59 641.121  13
   6  -2  10 233.599 115.017   2
  -2   6 -10 114.674 105.998  13
   2   6 -10 82.1292 85.3193  13
   6   2 -10 114.576 106.140   1
  -2  -6  10 125.348 86.4390   6
  -2   6 -10 163.825 102.407  12
   6  -2  10 645.015 328.952   8
   2   6 -10 36.7097 118.722  12
   6   2 -10 289.145 244.625  11
  -6   2 -10-136.075 280.903   4
   2   6 -10 167.645 100.221  18
  -2  -6  10-189.931 450.873   2
  -6   2 -10 502.670 259.573  10
  -6   2 -10 191.490 214.537  19
  -6   2 -10 988.167 309.372   9
   6   2 -10 641.476 347.514   9
  -6  -2  10 227.399 154.970   5
   6   2 -10 216.263 190.242  18
   2  -6  10 41.0481 177.914  17
  -2  -6  10 62.1994 112.136  17
   6   2 -10 382.480 440.908  10
  -6  -2  10 52.3634 245.292  17
  -6  -2  10 139.735 76.0263   4
   2  -6  10 45.6480 59.0297   6
  -6  -2  10 162.347 118.034   2
  -6   2 -10 96.2267 125.951   7
   6  -2  10 454.192 242.241  16
  -6  -2  10 104.158 51.7582  16
  -2   6 -10 106.171 50.9405   4
  -6   2 -10 344.887 243.802  15
   6  -2  10 338.281 292.613  14
   6   2 -10 58.0698 89.9149  14
  -6   2 -10 262.734 226.210  20
   6  -2  10 464.089 323.921   6
   2   6 -10-1.14918 61.0034   3
  -2   6 -10 343.826 213.259  18
  -2   6 -10 129.498 108.435   3
   2  -6  10 113.943 3.51151  14
  -2   6 -11 2712.29 695.250  13
   2   6 -11 3112.54 605.159  13
   2  -6  11 2279.05 503.666   6
  -2   6 -11 3061.53 460.619  12
  -6  -2  11 3492.34 569.098   5
  -2  -6  11 1952.20 415.736   6
   6  -2  11 4035.01 378.650   2
   6   2 -11 2644.84 536.541   1
   6   2 -11 2540.06 555.778  11
  -6  -2  11 2988.21 565.930   2
  -6   2 -11 1073.59 323.907  19
  -2  -6  11 1098.53 357.772   2
   2  -6  11 1959.20 526.326  16
  -6   2 -11 934.728 343.898  10
  -2  -6  11 1371.58 404.499  16
   6   2 -11 2049.39 591.245   9
   6   2 -11 2573.31 520.056  18
  -6  -2  11 3585.06 450.057   4
  -2   6 -11 3453.71 391.427   4
   2  -6  11 2878.41 525.873  17
  -2  -6  11 2248.90 588.923  17
  -6  -2  11 3275.30 639.496  17
   2   6 -11 3637.72 558.954   3
   6   2 -11 1144.15 501.123  10
   2   6 -11 3887.09 517.622  12
  -2   6 -11 3634.49 487.378  18
   6  -2  11 4044.08 743.330  16
  -6  -2  11 3486.20 608.359  16
   6  -2  11 3737.42 639.566   8
   2  -6  11 1330.24 117.523   8
  -6   2 -11 983.147 332.035   7
   6  -2  11 3855.38 693.006   6
  -2   6 -11 3755.18 613.057   3
   6  -2  11 4012.67 704.640  14
  -6   2 -11 754.163 282.631  20
   6   2 -11 1719.90 370.891  14
   2  -6  11 2750.79 399.843  14
   2   6 -11 3460.80 631.875  18
  -6   2 -11 1229.18 456.538  15
   2   6 -12 617.986 241.979   3
  -2   6 -12 621.556 252.948   3
   2  -6  12 558.746 242.518   6
  -2   6 -12 412.556 264.516  13
   6   2 -12 353.583 201.225   1
  -6   2 -12 60.2043 50.9179  19
  -2   6 -12 553.008 204.393  12
  -2  -6  12 503.613 213.494   6
   2   6 -12 601.061 195.407  12
   6  -2  12 857.062 176.783   2
   6   2 -12 392.242 208.034  11
  -2   6 -12 656.185 190.073   4
  -6   2 -12 149.601 136.283  20
  -6  -2  12 566.709 233.109   5
  -6   2 -12-76.8989 322.092   7
  -6  -2  12 750.878 322.354  16
   6   2 -12 38.4078 299.462  10
   2   6 -12 629.561 267.904  13
  -6   2 -12 197.827 151.703  10
   6   2 -12 135.351 44.6271   9
  -6  -2  12 722.882 201.986   4
   2   6 -12 666.890 252.643  18
   2  -6  12 543.943 213.321  17
   6   2 -12 343.646 156.705  14
   6   2 -12 352.688 200.012  18
  -2  -6  12 364.989 220.239   2
  -2  -6  12 551.842 270.531  17
  -6  -2  12 778.808 323.191  17
  -2  -6  12 276.913 151.827  16
   2  -6  12 65.3048 254.397   8
   2  -6  12 561.527 301.064  16
  -6  -2  12 629.311 274.054   2
   6  -2  12 967.540 412.883  16
   6  -2  12 858.305 337.907   8
  -6   2 -12-134.257 414.275  15
  -2   6 -12 707.581 192.268  18
   2  -6  12 569.030 155.736  14
   6  -2  12 741.658 328.075  14
   6  -2  12 848.372 343.795   6
   2  -6  13 1139.40 363.788   6
   2   6 -13 1226.08 283.118  12
  -2   6 -13 944.426 317.391   3
  -2   6 -13 815.780 370.814  13
   2   6 -13 909.465 329.407  13
  -2   6 -13 1066.00 290.346  12
   6   2 -13 744.532 297.853   1
  -6  -2  13 1357.47 356.975   5
   6  -2  13 1369.04 247.113   2
  -6  -2  13 1171.69 379.418   2
  -6   2 -13-71.7225 261.658  10
   6   2 -13 479.358 248.906  11
  -6   2 -13 126.814 106.424  20
  -6   2 -13 169.369 148.764  19
  -6  -2  13 1481.81 468.535  16
   6   2 -13-53.5525 634.851  10
   6   2 -13 290.791 224.856   9
   2   6 -13 1144.19 345.796  18
  -2   6 -13 1379.94 337.907   4
  -2   6 -13 972.427 238.777  18
  -2  -6  13 969.593 336.469  17
   6   2 -13 846.055 316.941  18
   2  -6  13 1150.84 275.012  17
   6  -2  13 1347.14 392.492   8
  -6  -2  13 1200.34 420.199  17
   2  -6  13 1266.15 387.728   8
   2  -6  13 982.674 397.634  16
  -2  -6  13 799.568 380.471   2
   6  -2  13 1566.31 503.554  16
   6  -2  13 1512.00 466.923   6
   2   6 -13 1274.98 352.158   3
   2  -6  13 886.742 186.633  14
  -2  -6  13 941.106 377.635  16
   6  -2  13 1260.45 475.373  14
  -6  -2  13 1449.58 289.978   4
   6   2 -13 584.462 210.233  14
  -2  -6  13 956.690 318.772   6
   2  -6  14 573.384 314.706   6
   2  -6  14-166.043 410.766   2
   2   6 -14 609.255 232.587   3
  -2   6 -14 650.940 290.880   3
  -2   6 -14 344.535 256.378  13
   2   6 -14 382.309 216.732  13
   6  -2  14 688.273 261.625   8
  -2   6 -14 601.138 224.767  12
   2   6 -14 587.645 203.370  12
   2   6 -14 686.703 306.846  11
  -2   6 -14 804.206 245.147  11
   6  -2  14 784.168 208.242   2
  -6   2 -14-410.217 529.143  10
   6   2 -14 293.578 206.368   1
   6   2 -14 255.938 111.451  11
  -6   2 -14-224.835 311.351  20
  -6   2 -14 73.9965 103.972  19
   2   6 -14 599.937 229.458  18
  -2  -6  14 490.192 266.954   2
   6   2 -14-21.9441 227.638   9
   2  -6  14 611.558 255.565   8
  -6  -2  14 726.937 211.320   4
  -2   6 -14 565.649 175.924  18
  -2   6 -14 684.413 286.089   4
   6   2 -14 323.462 204.435  18
  -6  -2  14 849.330 314.708   5
  -2  -6  14 660.872 276.526  17
   2  -6  14 509.406 203.525  17
  -6  -2  14 657.831 295.532  17
   6   2 -14-511.773 876.919  10
   2  -6  14 450.228 248.206  16
   6  -2  14 812.542 406.522  16
  -6  -2  14 649.347 306.244   2
  -6  -2  14 638.789 353.984  16
   2   6 -14 1212.22 570.028   7
   2   6 -14 1231.75 603.499  15
   6  -2  14 769.722 423.151  14
   6  -2  14 687.889 332.683   6
  -2  -6  14 407.855 248.173  16
   6   2 -14 156.419 55.9412  14
   2  -6  14 514.867 154.429  14
  -2  -6  14 610.745 277.931   6
  -6   2 -15 49.2431 73.6713  19
  -2   6 -15 1245.23 470.327  13
   6   2 -15 534.453 347.209   9
   2   6 -15 1622.19 360.663  12
  -6  -2  15 2250.53 510.778   5
   2   6 -15 1885.86 502.200  11
  -2   6 -15 1611.26 325.741  11
   6  -2  15 1921.59 342.027   2
  -6  -2  15 2097.84 560.202   2
   6   2 -15 635.901 366.585  11
   2   6 -15-257.473 272.066   1
  -2  -6  15 1060.00 444.204   6
   2   6 -15 1334.26 461.321  20
  -6  -2  15 1745.18 335.203   4
  -6   2 -15-208.929 342.405  20
   6   2 -15 808.432 364.160  18
   2  -6  15 1479.65 351.193  17
  -6  -2  15 1864.79 552.068  17
  -2  -6  15 1446.85 430.918  17
   2  -6  15 1229.28 497.873  16
   6  -2  15 1836.64 511.358   8
  -2  -6  15 1475.13 494.223  16
   2   6 -15 1814.24 679.869   7
   2  -6  15 1761.56 423.132   8
  -6  -2  15 1905.81 587.040  16
   6  -2  15 1871.77 602.823   6
   2  -6  15 1831.71 570.783   6
   2  -6  15 1067.27 494.247   2
  -2   6 -15 2607.58 927.441  15
   2   6 -15 2214.61 842.155  15
   6  -2  15 2159.27 679.233  16
  -2  -6  15 1293.18 476.092   2
   2  -6  15 1652.91 321.267  14
   2   6 -15 1583.50 413.807   3
   6  -2  15 972.656 455.203  14
   6   2 -15 493.635 264.718   1
  -2   6 -15 1414.88 304.421  18
  -2   6 -15 1320.19 351.988  12
   6   2 -15 491.482 197.153  14
   2   6 -15 1122.29 407.413  13
  -2   6 -15 1135.53 378.194   3
  -2  -6  16 58.5564 131.497  17
   2   6 -16 64.1940 54.5439   3
  -2   6 -16 181.428 241.192  13
   2   6 -16 38.4700 32.5138  13
  -2   6 -16 66.0827 54.9495   3
   2   6 -16 535.670 428.853  10
   2   6 -16-130.470 216.649   1
  -2   6 -16 59.3750 121.027  12
   2   6 -16 25.0940 85.2713  12
  -6   2 -16-108.062 111.124  19
  -6  -2  16 164.820 168.936   5
   2   6 -16 113.693 153.150  11
  -2   6 -16-9.95587 34.0155  11
   6   2 -16 12.8777 96.4236  11
   2   6 -16 42.0465 130.878  20
   2  -6  16-40.3857 182.494   2
   6   2 -16-3.58036 82.9518   1
  -6  -2  16 9.22701 115.091  16
  -2  -6  16 176.940 208.642   2
   2   6 -16 21.7330 50.0257  18
  -2   6 -16 22.8403 3.69370  18
   6   2 -16 11.5664 137.137  18
   6  -2  16-26.1730 82.2505   8
  -6  -2  16 52.7684 40.8903  17
   2  -6  16 3.23537 78.1800   8
   2  -6  16 23.3088 92.5372  16
  -2  -6  16 120.685 130.058  16
   2   6 -16-155.550 316.343   7
   6  -2  16 107.473 103.939   2
  -6  -2  16-159.247 170.735   4
  -2   6 -16 668.992 558.249   7
  -6  -2  16 46.1079 165.877   2
   2   6 -16-470.480 555.111  15
  -2   6 -16 386.732 445.320  15
   6  -2  16 41.3661 136.209   6
   2  -6  16 26.4006 101.444  14
   6  -2  16 58.6341 90.7602  16
  -2  -6  16-81.8802 62.5489   6
   6   2 -16-2.23941 56.4066  14
  -2   6 -16 48.2235 127.910  20
   2  -6  16 218.618 197.639   6
   2  -6  16 64.8587 79.6957  17
   2   6 -17-891.121 979.723  15
   2   6 -17 552.240 330.173  20
  -2   6 -17 825.241 421.532  13
   2   6 -17 657.838 340.210  13
   2   6 -17 1278.90 386.323   3
  -2   6 -17 1075.48 370.789  12
   2  -6  17 1487.85 608.449   2
  -6  -2  17 2183.33 509.046   5
   6  -2  17 1814.75 353.856   2
   2   6 -17 1186.68 362.028  11
  -6  -2  17 1877.89 569.615   2
  -2   6 -17 1437.25 334.268  11
   2   6 -17 1180.84 364.130  18
   2  -6  17 1443.92 565.528  16
   6   2 -17 409.053 332.102  11
  -2   6 -17 774.419 343.231  20
  -2  -6  17 1544.65 532.238   2
  -2   6 -17 1629.24 538.653  10
  -6   2 -17-134.914 235.333  19
   2   6 -17-107.559 174.015   1
   6   2 -17 236.042 171.724   1
   2  -6  17 1507.10 590.275   6
   6   2 -17 376.277 254.602  18
  -2   6 -17 1231.85 310.512  18
   2  -6  17 1588.19 386.113   8
   2  -6  17 1466.59 379.899  17
   6  -2  17 1573.97 486.532   8
  -6  -2  17 1891.05 597.148  17
   2   6 -17 1604.68 648.071  10
   6  -2  17 1577.78 613.505  16
   2   6 -17-699.041 952.120   7
  -2  -6  17 1262.82 482.199  16
  -2   6 -17 898.204 568.177   7
  -6  -2  17 1872.34 595.331  16
   6  -2  17 1701.52 620.533   6
  -2  -6  17 1303.12 413.546  17
  -2   6 -17 2020.67 887.518  15
  -2   6 -17 904.719 374.067   3
  -2  -6  17 953.152 534.250   6
   2   6 -17 1415.28 355.412  12
   2   6 -18 1578.15 615.327   9
  -2   6 -18 397.841 188.440  18
  -2   6 -18 165.260 98.2744  13
   2   6 -18 483.497 290.419  13
   2   6 -18 374.750 253.327   3
  -2   6 -18 471.665 325.750   3
  -2   6 -18 340.320 263.689  12
   2   6 -18 436.765 208.504  12
  -2  -6  18 592.172 352.465   2
   2   6 -18 540.948 223.451  11
  -2   6 -18 580.116 257.453  11
   2  -6  18 559.395 482.373   2
  -2   6 -18 316.524 267.137  20
   2   6 -18 282.316 285.579  10
  -6  -2  18 643.366 264.755   5
  -2   6 -18 1386.86 529.122   9
   2   6 -18 266.381 235.356  18
   6  -2  18 444.195 254.388   8
  -2   6 -18 485.387 329.179  10
  -2  -6  18 445.221 271.462  17
   2  -6  18 617.099 278.592  17
   2  -6  18 646.441 256.632   8
  -6  -2  18 719.993 405.343  17
   6   2 -18 77.4295 219.761  11
   2  -6  18 566.841 355.610  16
  -2  -6  18 570.998 367.296  16
  -2   6 -18 424.710 419.565   7
   6  -2  18 756.501 358.445  16
   6  -2  18 631.762 234.987   2
  -6  -2  18 636.121 404.855  16
  -6  -2  18 825.147 404.373   2
   2   6 -18 240.876 242.213  20
  -2   6 -18 410.333 329.068  15
   6  -2  18 476.006 303.495   6
  -6   2 -18 15.4138 152.061  19
  -2  -6  18 204.035 109.682   6
   2  -6  18 529.354 342.570   6
   6   2 -18 70.3133 154.243   1
   6  -3   0 711.506 43.8009   6
   6   3   0 554.940 231.064   8
  -6   3   0 1189.95 312.347  19
   6  -3   0 646.870 254.485   8
   6  -3   0 682.662 251.436   1
   6   3   0 723.079 305.231   1
   6  -3   0 697.676 256.171  14
   6  -3   1 109.221 91.9559   6
  -6   3  -1 166.109 54.6175  12
  -6   3  -1 176.482 103.103  19
   6   3  -1 286.431 224.312   1
  -6   3  -1 128.793 37.6703   5
   6  -3  -1-141.323 283.416   8
  -6   3   1 238.553 102.058  19
   6   3  -1 199.847 85.6414  18
   6   3  -1 183.058 173.622   8
  -6  -3   1-39.0356 101.231  17
   6  -3   1 149.535 119.922   1
   6  -3  -1-80.2712 267.249   1
   6  -3   1 163.043 109.947   8
   6   3   1 60.6955 78.4190   1
   6   3  -1 59.5139 136.668  14
   6  -3   1 133.651 92.5138  14
   6  -3  -1 128.260 104.110  14
  -6   3  -2 2769.68 499.540  12
  -6   3  -2 2831.96 431.601   5
   6   3  -2 3008.57 653.042   1
   6  -3   2 2318.52 413.699   1
   6   3   2 606.137 198.709   1
  -6  -3   2 646.918 305.434  17
  -6   3  -2 2956.14 450.423  19
   6   3  -2 3293.85 596.458  18
  -6   3  -2 2809.14 446.410   4
   6  -3   2 2222.03 403.464   8
   6  -3   2 2298.68 422.571   6
   6  -3   2 2486.26 434.556  14
   6   3  -2 933.133 385.963  14
   6   3  -2 1589.81 408.700  13
   6   3  -3 47.9029 103.078  13
  -6  -3   3 28.4390 71.1877  19
   6  -3   3 51.3610 71.8200   6
  -6   3  -3-14.4985 66.5728  12
  -6  -3   3-66.7814 154.786   2
  -6   3  -3 33.6468 53.6736   5
  -6   3  -3 64.5593 81.6059  19
   6   3  -3 50.5310 62.1010   8
   6  -3   3 29.7427 32.7359   1
  -6  -3   3 28.5094 34.0829  17
   6  -3   3-22.1621 73.3044   8
  -6   3  -3 17.7734 73.6095   4
   6   3  -3 73.6685 99.1708  18
   6   3  -3 39.3425 87.5228   1
   6   3  -3-27.6387 124.713  14
  -6   3  -3 3.09415 68.2194   3
   6  -3   3 56.3516 73.6284  14
   6   3  -4 1161.66 287.605  13
   6  -3   4 989.857 255.569   8
   6   3  -4 1042.33 359.321   1
  -6   3  -4 943.838 255.703  12
  -6   3  -4 943.755 226.694   5
   6  -3   4 1024.85 236.853   1
  -6   3  -4 953.585 251.449  19
  -6  -3   4 495.032 193.805  19
  -6  -3   4 494.985 215.577   2
   6   3  -4 1190.75 271.616   8
   6   3  -4 1162.18 327.742  18
  -6   3  -4 1021.14 256.822   4
  -6  -3   4 573.380 259.558  17
   6  -3   4 1069.75 269.123  14
   6  -3   4 1104.23 261.364   6
  -6   3  -4 1031.79 328.995   3
   6   3  -4 358.971 279.904  14
   6   3  -5 1924.44 330.642  13
   6   3  -5 2027.37 425.461  18
   6   3  -5 1955.60 474.272   1
  -6   3  -5 1586.00 327.800  12
  -6  -3   5 1082.58 370.422   5
  -6  -3   5 1115.32 303.515   2
  -6   3  -5 1557.96 286.702   5
   6  -3   5 1718.22 277.470   1
   6   3  -5 2320.47 335.757   8
  -6  -3   5 1302.94 305.954  19
   6  -3   5 1521.33 312.068   8
  -6  -3   5 1048.00 362.975  17
  -6   3  -5 1787.75 338.229   4
  -6  -3   5 302.711 97.6855   4
  -6   3  -5 1915.87 440.836   3
   6  -3   5 1818.85 340.882  14
   6   3  -5 668.654 334.897  14
  -6   3  -5 1792.49 345.974  19
   6  -3   5 2015.25 365.306   6
   6   3  -6 1167.61 256.082  13
  -6   3  -6 948.741 250.051  12
   6   3  -6 1414.61 396.116   1
  -3   6  -6 1507.58 356.936  12
  -6  -3   6 495.217 219.657   4
   3  -6   6 139.450 102.138   6
  -6   3  -6 1092.60 246.894   5
  -6  -3   6 860.156 249.667   2
   6  -3   6 1117.27 223.407   1
  -6  -3   6 498.225 136.190  16
  -6  -3   6 875.852 319.988   5
  -6  -3   6 820.306 229.846  19
  -6   3  -6 983.466 256.026  19
   6   3  -6 1286.84 341.413  18
  -6   3  -6 1113.86 271.716   4
   6   3  -6 1410.60 236.872   8
   3   6  -6 1186.55 458.905  13
  -6  -3   6 965.615 301.011  17
   6  -3   6 1392.70 410.492  16
   6   3  -6 1290.64 306.850   3
  -3   6  -6 1209.03 374.963   3
   6  -3   6 1373.87 306.687   6
  -6   3  -6 1118.60 305.628   3
   6  -3   6 1184.25 274.530  14
   6   3  -6 445.766 254.609  14
   6  -3   6 1019.71 264.629   8
   6   3  -7 1234.37 274.993  13
  -6   3  -7-29.6796 119.487  13
  -6   3  -7 1086.63 268.631  12
  -3   6  -7 1768.34 385.600  12
   6   3  -7 1349.62 388.504   1
   3  -6   7 451.690 209.882   6
   6  -3   7 1601.72 270.197   1
  -6   3  -7 1248.68 273.964   5
  -6  -3   7 1189.42 314.073   2
   6   3  -7 1838.81 414.027  11
  -6  -3   7 1189.73 363.721   5
  -3  -6   7 83.2638 50.6049  17
  -6   3  -7 1175.40 285.372  19
  -6  -3   7 1023.41 328.128   4
  -6   3  -7 1178.91 294.019   4
   6   3  -7 1537.93 365.095  18
   3   6  -7 822.385 284.407  18
   6   3  -7 1603.56 242.538   8
  -6  -3   7 1095.98 350.220  17
  -6  -3   7 1096.40 254.286  16
   6  -3   7 1732.72 457.622  16
   6  -3   7 1343.12 312.959   8
  -3   6  -7 1681.42 429.121   3
   6  -3   7 1596.72 345.223   6
   6   3  -7 1924.25 283.586   3
   6  -3   7 1461.16 302.262  14
  -6   3  -7 1154.26 306.589   3
   6   3  -7 400.757 218.177  14
   6   3  -7 1212.37 310.974  20
  -6  -3   7 1194.38 254.141  19
   3   6  -7 1867.83 535.312  13
   3   6  -8 2733.11 602.771  13
  -6   3  -8 1967.42 401.470   4
  -3  -6   8 203.691 146.995  17
  -6   3  -8 917.677 284.638  13
  -6   3  -8 1710.22 365.492  12
   6  -3   8 3151.40 440.154   1
  -3   6  -8 2898.68 474.165  12
  -3  -6   8 547.053 217.592   6
   6   3  -8 2369.85 497.644   1
  -6  -3   8 2176.85 494.758   5
  -6   3  -8 1997.88 386.860   5
  -6  -3   8 1871.35 400.060   2
   6   3  -8 2930.92 515.401  11
   6   3  -8 2131.64 446.949  20
  -6  -3   8 2061.99 308.198  19
   6   3  -8 2625.93 324.673   8
   3   6  -8 2448.11 574.896  18
   6   3  -8 2687.66 498.571  18
  -3   6  -8 1089.17 428.759  13
  -6   3  -8 1785.12 357.902  19
  -6  -3   8 2090.39 364.333  16
   6   3  -8 3102.86 567.648  10
  -6  -3   8 1924.71 451.923  17
   6  -3   8 3200.21 628.517  16
   3   6  -8 2936.29 513.292   3
   6  -3   8 2601.04 462.816   6
  -3   6  -8 3178.63 579.275   3
   3  -6   8 1084.09 330.430   6
  -6  -3   8 2025.86 444.679   4
   6   3  -8 2794.89 323.371   3
   6  -3   8 2501.25 401.363  14
  -6   3  -8 1758.99 386.095   3
   6   3  -8 739.568 322.441  14
   6  -3   8 2358.57 407.346   8
  -6   3  -9 1231.87 454.409  13
  -6   3  -9 1589.68 389.940  19
  -3   6  -9 736.466 382.893  13
   3   6  -9 1008.89 345.723  13
   6  -3   9 1896.13 500.662   1
   3  -6   9 437.509 212.075   6
  -3  -6   9 556.740 205.809   6
  -3   6  -9 1061.90 286.095  12
  -6  -3   9 1785.39 499.273   5
  -6  -3   9 1070.71 344.686   2
   6   3  -9 1404.44 404.470  11
  -6   3  -9 921.649 346.273   5
   6  -3   9 1779.82 513.917  16
  -6  -3   9 1313.79 410.244   4
  -3  -6   9-213.169 437.032   2
   6   3  -9 1071.59 339.536   1
  -6   3  -9 856.866 227.914  10
   6   3  -9 1156.51 308.369   8
   3   6  -9 1048.44 369.397  18
  -6   3  -9 715.166 231.140  20
   6   3  -9 898.698 313.118  18
  -6  -3   9 2634.89 612.476  17
   6  -3   9 972.795 270.513   8
  -3   6  -9 818.950 209.950   4
   6   3  -9 1575.34 494.248  20
  -6   3  -9 1077.91 382.104   4
   6  -3   9 1248.86 341.207   6
   3   6  -9 1046.89 303.018   3
  -3   6  -9 1073.96 335.694   3
   6  -3   9 1155.26 295.628  14
   6   3  -9 1547.48 433.923  10
   6   3  -9 1209.16 226.947   3
  -6   3  -9 2069.96 502.309   3
   6   3  -9 1264.22 452.606  14
  -3  -6   9 371.581 256.888  17
   3  -6   9 811.083 366.107  14
   3   6 -10 2886.08 573.702  13
   6  -3  10 2967.85 507.891   8
  -6   3 -10 1014.43 289.771  13
  -6   3 -10 1554.11 390.420  12
   6   3 -10 2473.00 511.370   1
  -6  -3  10 2549.94 540.057   5
  -6  -3  10 2189.37 451.766   2
   6   3 -10 2755.11 525.328  11
  -6  -3  10 2121.94 349.110  19
  -3   6 -10 2817.00 387.121   4
  -6   3 -10 1437.35 342.603  20
   6   3 -10 2638.86 592.342  10
   6   3 -10 3267.02 687.283   9
   3   6 -10 3233.51 514.117   3
  -6   3 -10 1532.32 437.367   4
  -6  -3  10 2601.03 464.932   4
   6  -3  10 3640.25 696.720  16
  -3   6 -10 3679.03 572.003  18
   3   6 -10 3077.62 636.689  18
   6   3 -10 2568.88 500.004  18
   6  -3  10 1033.69 312.868   1
   3  -6  10 1843.24 482.907  17
  -3  -6  10 1413.87 469.034  17
   6   3 -10 3058.88 370.456   3
  -6  -3  10 2231.72 516.433  17
  -6  -3  10 2454.21 441.908  16
   3  -6  10 548.762 212.452  16
  -6   3 -10 2548.94 622.170   7
  -6   3 -10 2321.61 399.108   9
  -3   6 -10 2911.78 449.851  12
   6  -3  10 2986.97 551.915   6
  -6   3 -10 2589.91 696.886  15
  -3  -6  10 1333.74 319.104   6
   3  -6  10 1922.77 414.129   6
  -3   6 -10 3233.47 579.583   3
   6  -3  10 3356.91 517.551  14
   3  -6  10 2098.53 431.697  14
   3  -6  10 1340.74 391.460   8
  -6   3 -10 1538.53 384.592   3
   6   3 -10 1448.60 438.853  20
   6   3 -10 424.340 168.964  14
  -6   3 -10 1720.69 377.312  19
  -6   3 -10 2204.11 428.558  10
  -3   6 -10 2293.37 755.463  13
  -3   6 -11 82.3944 102.401   3
  -3  -6  11 94.4957 112.257   6
  -3   6 -11 28.2069 71.2634  13
   3   6 -11 154.618 160.049  13
  -6   3 -11 142.334 176.975  13
   6   3 -11 124.363 57.6576  12
  -3   6 -11 164.253 115.415  12
  -6  -3  11 125.405 102.755   2
   6   3 -11 6.23848 127.308  20
   3   6 -11 102.895 67.1109  12
   6   3 -11 59.3284 56.8989  11
   3  -6  11 100.017 69.5514   6
  -6  -3  11 157.305 154.302   5
  -6   3 -11 129.541 135.891  10
   6   3 -11 100.281 147.956  10
  -3   6 -11 112.288 57.4291   5
   6   3 -11 91.2528 206.325   9
   6   3 -11 5.41765 26.2170   1
   3   6 -11 128.256 154.096  18
  -6   3 -11 88.2630 72.1943   4
  -6  -3  11 154.873 123.256   4
  -3  -6  11 42.0970 156.201  17
   6  -3  11 128.759 108.024   8
  -3  -6  11 32.0492 93.8752   2
  -6  -3  11-29.5678 116.273  17
  -6   3 -11 117.970 127.169  20
   6   3 -11 36.9236 36.8938  18
  -6   3 -11 75.7025 102.519   9
  -3   6 -11 126.106 73.1888   4
   3  -6  11-574.767 323.803  16
   6  -3  11 79.5438 145.076  16
  -6  -3  11 97.6985 93.7594  16
  -6   3 -11 151.912 198.966   7
  -6   3 -11 159.817 136.843  19
   3  -6  11-44.1539 171.096   8
  -6   3 -11 197.201 233.718  15
  -3  -6  11-138.984 226.048  16
  -3   6 -11 154.654 86.2289  18
   6   3 -11 37.3469 47.8230  14
  -6  -3  11-6.72102 166.616  19
   6  -3  11 126.481 60.6056  14
   3  -6  11-43.3590 90.4702  17
   6  -3  11 179.185 119.444   6
   3   6 -11 183.630 137.824   3
   3  -6  11 109.750 77.0651  14
  -3  -6  12 1363.59 339.248   6
   3   6 -12 1968.76 483.066  13
  -6   3 -12 792.948 295.974  20
  -3   6 -12 1458.59 547.900  13
   6   3 -12 1618.48 529.294  10
  -6   3 -12 1140.79 358.259  10
  -6   3 -12 1147.40 306.212  19
  -3   6 -12 2026.15 405.080  12
   3   6 -12 2477.83 413.010  12
   6  -3  12 2059.61 411.941   2
  -6  -3  12 2267.88 506.576   5
  -3   6 -12 2059.10 241.036   5
   6   3 -12 1714.46 462.389   1
  -6  -3  12 1939.70 494.685   2
   6   3 -12 1893.21 480.872  11
   3   6 -12-241.891 267.588   1
   6   3 -12 329.840 187.244  20
   6   3 -12 2021.24 573.752   9
  -6  -3  12 2226.63 403.427   4
  -3   6 -12 2171.85 382.342   4
  -3   6 -12 1944.97 302.470  18
   3   6 -12 2236.43 511.124  18
   6   3 -12 1721.09 436.465  18
   6  -3  12 2423.60 480.322   8
  -3  -6  12 1182.74 435.478   2
  -3  -6  12 1200.27 400.184  16
   3  -6  12 1784.23 351.085  17
  -6  -3  12 2143.64 548.771  17
  -3  -6  12 1495.32 493.784  17
   3  -6  12 2347.82 517.139   8
  -6   3 -12 1220.11 328.301   9
   6  -3  12 2737.26 632.399  16
  -6  -3  12 2167.49 484.125  16
  -6   3 -12 1070.89 409.094   7
   6  -3  12 2511.97 555.254   6
   3  -6  12 2027.97 451.120   6
  -6   3 -12 1512.01 550.346  15
   3   6 -12 2357.16 468.343   3
   6  -3  12 2824.09 549.116  14
  -3   6 -12 1943.38 472.762   3
   3  -6  12 1578.95 543.087  16
   3  -6  12 1975.48 305.532  14
   6   3 -12 392.365 230.734  14
  -6   3 -12-91.6129 253.697   4
   3   6 -13 567.353 244.403   3
  -3   6 -13 497.563 238.467   3
  -3   6 -13 238.997 256.582  13
   3   6 -13 485.329 229.293  13
  -3   6 -13 503.494 224.178  12
   3   6 -13 660.650 205.659  12
  -6   3 -13 362.522 198.916  10
   6  -3  13 865.220 289.573   2
   6   3 -13 472.539 245.863  11
  -6  -3  13 630.585 212.174   4
  -3   6 -13 677.522 240.282   4
   3  -6  13 496.497 151.112  14
   3  -6  13 664.534 279.889   6
  -6   3 -13 124.185 122.913  20
   6   3 -13-144.287 414.743  20
  -6   3 -13 269.466 142.233  19
   6   3 -13 141.954 222.630  10
   3  -6  13 628.088 256.065   8
  -3  -6  13 580.474 318.694   2
  -6  -3  13 616.652 280.512   5
  -6   3 -13 259.680 133.723   9
  -6  -3  13 534.747 272.474   2
   3   6 -13 613.765 268.548  18
  -3   6 -13 525.862 164.213  18
  -3  -6  13 425.364 252.927  16
   3   6 -13-11.6941 126.692   1
   6   3 -13 464.765 253.116   1
  -3  -6  13 479.362 278.981  17
   6  -3  13 869.867 303.765   8
   3  -6  13 550.483 176.618  17
   6   3 -13 710.582 326.745   9
   6  -3  13 725.084 337.513  16
   3  -6  13 716.823 363.721  16
  -6   3 -13 167.910 99.4360   7
  -6  -3  13 679.227 294.707  16
  -6   3 -13 333.974 225.022  15
  -6  -3  13 581.700 282.225  17
   3   6 -13 1267.55 688.860  15
   6   3 -13 12.5616 28.9515  14
   6  -3  13 859.696 366.760  14
   6  -3  13 894.247 346.048   6
   6   3 -13 458.238 218.422  18
  -3  -6  13 296.553 158.223   6
  -3   6 -14 978.785 347.920   3
  -3   6 -14 950.142 389.782  13
   3   6 -14 1125.75 386.904  13
   3   6 -14 1624.37 332.227  12
  -3   6 -14 1070.26 317.800  12
   3  -6  14 1518.81 470.780   6
  -6  -3  14 1516.48 407.797   5
   6  -3  14 1867.43 416.611   2
   6   3 -14 621.810 443.053  10
   3   6 -14 1843.07 474.969  11
  -3   6 -14 1353.30 279.905  11
  -6  -3  14 1464.37 449.717   2
   6  -3  14 1738.55 436.225   8
   6   3 -14 1001.21 357.118  11
  -6   3 -14 421.653 246.156  10
  -3  -6  14 1002.27 391.337  17
   6   3 -14-430.863 553.159  20
  -6   3 -14 500.000 247.896  19
   3   6 -14 14.1364 79.9068   1
  -3   6 -14 1168.80 379.830  19
  -6  -3  14 1552.29 306.962   4
  -6   3 -14 308.690 134.005   9
   3   6 -14 1268.02 403.634  18
   3  -6  14 1525.93 384.539   8
   3  -6  14 1325.52 279.229  17
  -3   6 -14 1065.71 408.395   4
  -6   3 -14 357.787 200.408  20
  -3  -6  14 1040.39 445.076   2
   6   3 -14 859.365 332.599   1
  -6  -3  14 1210.50 415.990  17
   6   3 -14 797.649 334.316   9
  -3   6 -14 1193.77 247.344  18
   6  -3  14 1963.22 604.112  16
  -6  -3  14 1626.19 458.819  16
  -3  -6  14 865.931 366.945  16
   3  -6  14 1316.38 505.260  16
  -6   3 -14 153.330 224.055   7
   3   6 -14 2271.12 758.394   7
   6  -3  14 1748.57 517.753   6
  -6   3 -14 151.331 206.084  15
   3   6 -14 2081.78 838.887  15
   6  -3  14 2028.03 580.034  14
   3   6 -14 1588.25 403.258   3
   3  -6  14 1314.55 270.646  14
   6   3 -14 1017.73 356.151  18
   6   3 -14 249.302 184.519  14
  -3  -6  14 619.161 272.461   6
   3   6 -15 216.474 162.131   3
  -3   6 -15 263.656 195.787   3
   6   3 -15 6.55486 157.499  10
   3   6 -15 99.5934 124.592  13
   6  -3  15 179.506 203.273  16
  -3   6 -15 132.078 148.554  12
   3   6 -15 227.405 140.922  12
  -3  -6  15 393.288 273.082   2
   3   6 -15 173.287 146.758  20
   3   6 -15 259.062 191.582  11
  -3   6 -15 388.315 158.352  11
   6   3 -15 44.7767 138.579  11
   6   3 -15-53.2704 214.195   9
   3  -6  15 180.516 88.7339  17
  -6   3 -15 131.145 155.450  20
  -6   3 -15 197.620 188.776  10
  -6   3 -15 57.1577 73.0348  19
  -6  -3  15 218.445 120.426   4
  -3   6 -15-64.9526 263.888  19
  -6   3 -15-78.6701 216.741   9
   3   6 -15-4.13727 112.831   1
   6   3 -15 128.369 113.100   1
   3   6 -15 206.512 165.691  18
  -3   6 -15 183.146 108.024  18
  -3   6 -15 60.6449 201.027   4
   6   3 -15 75.7297 72.2647  18
  -3   6 -15 156.625 190.477  13
   6  -3  15 151.692 165.062   8
  -6  -3  15 232.340 165.119   5
  -3  -6  15 123.666 145.102  17
   3  -6  15-243.480 597.416   2
  -6  -3  15 238.683 193.077  17
   3  -6  15 183.159 126.531   8
  -6  -3  15 257.659 227.123   2
   3  -6  15 125.228 198.837  16
  -3  -6  15 146.437 157.083  16
   3   6 -15 68.0965 234.172   7
  -6  -3  15 146.942 170.973  16
   3   6 -15-2.36374 203.424  15
  -3   6 -15 785.961 533.472  15
   6  -3  15 300.314 299.345  14
   6  -3  15 225.597 161.853   2
   6   3 -15 191.894 199.731  14
   6  -3  15 191.036 166.557   6
   3  -6  15 252.535 144.158  14
  -3  -6  15 276.414 206.814   6
   3  -6  15 72.1151 130.027   6
  -3   6 -16 747.580 348.652  13
   3   6 -16 860.196 361.405  13
  -3   6 -16 644.911 300.886   3
   3   6 -16 1373.69 321.302  12
  -3   6 -16 726.662 298.196  12
  -6   3 -16 28.2798 82.0001  10
  -6  -3  16 1541.58 444.924   5
   6  -3  16 1538.54 358.689   2
  -6  -3  16 1368.90 276.032   4
   3   6 -16 1316.07 410.235  11
  -3   6 -16 1409.63 294.262  11
   6   3 -16 640.749 300.208  11
   3   6 -16 813.235 394.262  20
  -3  -6  16 1275.37 499.292   2
  -3   6 -16 848.088 353.985  20
   3  -6  16 828.790 384.159   2
   6   3 -16 644.260 312.949  18
  -6   3 -16 363.158 237.875  19
  -3   6 -16 969.327 368.561  19
   6   3 -16 446.628 403.635   9
  -3   6 -16 1078.70 263.824  18
   6  -3  16 1376.61 408.932   8
  -6   3 -16 38.2995 87.3609  20
   3   6 -16 84.2145 209.228   1
   3  -6  16 1335.99 355.423   8
   3   6 -16 981.972 363.563  18
   3  -6  16 1196.33 319.895  17
  -3  -6  16 936.074 381.723  17
  -6  -3  16 1294.27 430.525  17
  -6  -3  16 1415.40 473.810   2
   3   6 -16-345.988 758.389   7
   3  -6  16 1204.24 509.752  16
  -3  -6  16 833.498 398.800  16
   6   3 -16 500.666 289.683   1
   6  -3  16 1496.23 575.900  16
  -6  -3  16 1407.09 518.354  16
   6   3 -16 274.841 239.259  10
  -3   6 -16 2014.93 802.157   7
   3   6 -16-226.647 679.892  15
   3   6 -16 1984.61 643.964  10
  -3   6 -16 1381.15 704.440  15
   3   6 -16 1284.41 391.365   3
   6  -3  16 1306.96 530.416  14
   3  -6  16 1283.32 350.790  14
   6  -3  16 1709.49 540.630   6
  -3  -6  16 475.252 301.375   6
   3  -6  16 1258.74 489.788   6
   6   3 -17-228.705 678.043  10
  -3   6 -17 325.607 392.163  13
   3   6 -17 738.025 440.160  13
  -3   6 -17 552.110 313.523   3
  -3   6 -17 550.477 299.588  12
   3   6 -17 925.456 294.369  12
  -3  -6  17 394.821 246.284   2
   3   6 -17 488.472 281.725  11
  -3   6 -17 57.0082 79.6788  11
  -3  -6  17 868.571 362.234  17
  -6  -3  17 180.901 207.569  17
   6   3 -17 70.1955 80.3305  11
  -3   6 -17 562.515 389.051  10
   3   6 -17 875.844 549.488  10
  -6  -3  17 214.046 227.923   5
  -6   3 -17-92.9902 198.216  20
   3  -6  17 209.461 119.377   2
  -6   3 -17 192.071 153.280  19
   6   3 -17 723.319 424.692   9
   3   6 -17 673.170 476.852  20
  -6   3 -17-118.350 201.526  10
  -3   6 -17 136.396 126.011  18
   6  -3  17 314.074 236.509   2
   3   6 -17 473.655 269.034  18
   3  -6  17 209.834 182.675  17
   3  -6  17 195.846 174.957   8
  -6  -3  17 223.529 273.868   2
   3  -6  17 236.406 262.069  16
  -3  -6  17 520.739 385.536  16
   3   6 -17 121.753 179.335   1
   6  -3  17 393.557 411.777  16
  -6  -3  17 323.857 320.271  16
  -3   6 -17 526.804 580.322   7
   6   3 -17 289.478 247.555   1
  -3   6 -17 288.157 450.832  15
   3   6 -17 1342.43 455.502   3
   6  -3  17 673.269 470.598  14
  -3  -6  17 433.433 471.738   6
   3  -6  17 265.064 238.389  14
   6  -3  17 463.420 397.438   6
   6  -3  17 463.779 323.543   8
  -3   6 -17 347.760 309.386  20
   3  -6  17 338.710 287.631   6
  -3   6 -18 809.400 400.915  13
   3   6 -18 1407.88 523.638  13
  -3   6 -18 1854.69 545.060   9
   3   6 -18 1592.24 370.349  12
  -3   6 -18 933.842 397.183   3
  -3   6 -18 878.660 324.973  12
   3  -6  18 1929.43 716.736   2
  -6  -3  18 2329.59 621.632  17
  -6  -3  18 2123.77 533.428   5
   6  -3  18 2174.12 431.608   2
  -6  -3  18 1685.22 625.366   2
   3   6 -18 1542.97 465.323  11
  -3   6 -18 1312.33 328.944  11
   6   3 -18 637.714 386.402  11
  -3   6 -18 827.770 380.703  20
  -6   3 -18-473.022 290.156  20
  -6   3 -18 264.482 195.687  19
   3   6 -18 2603.45 788.797   9
   6   3 -18-163.910 388.807   9
  -3   6 -18 1252.41 349.750  18
   6  -3  18 2357.69 595.461   8
   3  -6  18 1829.31 669.679   6
   3   6 -18 1440.64 405.112  18
   3  -6  18 1883.29 463.959  17
  -3   6 -18 858.458 457.903  10
  -3  -6  18 1744.07 515.689  17
  -6   3 -18-349.676 465.434  10
   6   3 -18-957.387 1120.66  10
   3  -6  18 1955.72 711.548  16
  -3  -6  18 1279.88 551.416  16
  -3   6 -18 1424.86 738.174   7
   6  -3  18 2360.33 773.465  16
  -6  -3  18 2124.25 680.425  16
   6   3 -18 456.048 269.665   1
  -3   6 -18 1514.20 770.523  15
   6   3 -18 844.700 380.601  18
   3   6 -18 1644.85 485.476   3
  -3  -6  18 292.987 299.366   6
   6  -3  18 1811.87 619.000   6
   3   6 -18 1937.28 634.549  10
   3   6 -18 1439.91 598.760  20
  -3  -6  18 1855.73 635.250   2
   3  -6  18 1915.94 432.836   8
   6   4  -1 188.051 14.1921   1
   6  -4   1-7.31105 241.452   8
  -6  -4   2 131.134 195.633  17
   6  -4   2-65.3896 126.303   6
  -6   4  -2 6.56304 176.459  12
   6   4  -2 91.0406 108.767   1
  -6   4  -2 119.171 90.7390  19
   6  -4   2 63.5483 56.5028   8
   6  -4   2-100.851 268.517   1
   6   4  -2-60.2778 197.575  18
   6  -4   2 34.7049 55.1468  14
   6   4  -3 333.917 77.7131  13
  -6   4  -3 947.867 291.118  19
  -6   4  -3 883.933 307.487  12
   6  -4   3 561.245 246.616   6
  -6   4  -3 799.328 233.881   5
   6  -4   3 545.740 224.242   8
   6   4  -3 331.159 100.307   8
   6  -4   3 508.944 206.154   1
   6   4  -3 686.849 320.146   1
  -6  -4   3 3.38613 31.7550  17
   6   4  -3 937.581 348.853  18
   6  -4   3 473.501 197.122  14
   6  -4   4 79.4909 58.6305   1
   6   4  -4 55.6002 73.2331  13
   6  -4   4 61.9213 78.6429   6
  -6   4  -4 42.5003 75.6944  12
  -6  -4   4-172.520 283.734   2
  -6   4  -4 88.1541 60.4876   5
  -6   4  -4 90.7722 65.9961  19
   6   4  -4 108.115 97.7605   8
   6  -4   4 24.0112 42.3567   8
  -6  -4   4 12.3868 113.406  17
  -6   4  -4 74.5272 81.5244   4
  -6   4  -4 115.902 113.741   3
   6   4  -4 82.1518 82.4833   1
   6   4  -4 76.9251 131.443  18
   6  -4   4 31.9016 29.2184  14
   6   4  -5 835.425 272.952  13
  -6  -4   5 200.972 180.596  19
   6  -4   5 731.604 248.525   6
  -6   4  -5 635.752 211.329  12
  -6   4  -5 683.563 204.988   5
  -6   4  -5 706.254 227.518   4
   6  -4   5 609.084 197.842   1
  -6  -4   5 217.062 95.4784   2
  -6   4  -5 836.354 256.604  19
   6   4  -5 740.123 308.008  18
   6   4  -5 729.373 239.541   8
  -6  -4   5 183.678 175.445  17
   6  -4   5 452.314 189.985   8
   6   4  -5 586.825 327.105   1
   6  -4   5 714.980 238.990  14
  -6   4  -5 834.610 351.046   3
   6   4  -6 1353.04 323.304  13
  -6   4  -6 1256.60 308.282  12
   4   6  -6 594.618 158.332  18
  -4   6  -6 1733.10 404.180  12
   4  -6   6 203.633 132.729   6
  -6   4  -6 1232.23 265.988   5
   6  -4   6 1134.64 239.162   1
  -6   4  -6 1374.87 314.659  19
  -6  -4   6 581.743 219.434  19
  -6   4  -6 1223.92 288.036   4
  -6  -4   6 644.164 268.798   2
  -4  -6   6-45.9695 139.527  17
   6  -4   6 1140.62 288.609   8
   6   4  -6 1372.09 382.480  18
   6   4  -6 1448.13 291.965   8
  -6  -4   6 500.771 276.636  17
   6   4  -6 1211.23 440.672   1
  -4   6  -6 1455.42 430.928   3
   6  -4   6 1139.86 308.244   6
  -6   4  -6 1384.95 411.286   3
   6  -4   6 1286.43 311.964  14
   4   6  -6 1536.87 480.768  13
  -6   4  -7 1044.41 340.534   3
   6   4  -7 914.295 245.256  13
  -6   4  -7 1055.66 286.049  12
  -4   6  -7 1187.84 325.071  12
   4  -6   7 416.623 219.148   6
  -6   4  -7 899.400 214.381   5
   6  -4   7 795.215 183.798   1
  -6   4  -7 963.862 266.703  19
  -6  -4   7 539.693 207.824   2
   6   4  -7 1078.30 359.318  18
  -6   4  -7 907.279 256.105   4
   4   6  -7 895.878 360.266  18
  -6  -4   7 451.605 238.831  17
   6   4  -7 1224.08 228.995   8
  -4  -6   7-10.8228 277.906  17
  -6  -4   7 548.275 205.418  19
  -4   6  -7 1208.00 382.750   3
   6  -4   7 914.791 277.539   6
   6   4  -7 926.188 346.630   1
   6  -4   7 953.661 262.818   8
   6  -4   7 975.759 259.293  14
   4   6  -7 1245.09 385.889  13
   4   6  -8 1194.15 384.943  13
   6   4  -8 1539.45 378.221  13
  -6   4  -8 216.657 157.493  13
   4  -6   8 560.167 251.553   6
  -4   6  -8 1135.77 288.400  12
  -4  -6   8 148.172 92.1650   6
  -6   4  -8 1050.74 258.369   5
   6  -4   8 946.907 195.496   1
   4   6  -8 1152.01 408.842  18
  -6  -4   8 1227.28 303.887  19
  -6  -4   8 408.259 102.080  16
  -4  -6   8 274.174 289.423  17
  -6   4  -8 1009.24 289.531   4
  -6  -4   8 855.369 285.986   2
   6   4  -8 1640.10 251.547   8
  -6   4  -8 1329.97 381.881   3
  -6   4  -8 1211.94 325.409  19
  -6  -4   8 1013.91 392.495  17
   6  -4   8 829.678 254.107   8
   6  -4   8 752.247 138.817  16
   4  -6   8-104.400 383.026   8
   6   4  -8 2195.33 427.146   3
   6  -4   8 1184.34 307.601   6
  -4   6  -8 1377.48 409.837   3
   6   4  -8 1528.29 405.928  18
   6  -4   8 953.281 241.560  14
   4  -6   8 656.796 322.628  14
   4   6  -9 1521.31 406.021  13
   6   4  -9 1289.24 315.405  13
  -4   6  -9 314.261 164.150  13
  -6   4  -9 198.570 149.698  13
  -6   4  -9 1016.16 303.577   3
   4  -6   9 750.301 295.355   6
  -4  -6   9 541.201 197.237   6
  -6  -4   9 962.587 367.536  17
  -4   6  -9 1435.45 343.207  12
   6  -4   9 1454.68 265.353   1
  -6   4  -9 1080.99 297.588  12
  -6   4  -9 1221.08 280.567   5
   6   4  -9 1751.08 438.028  11
  -6   4  -9 1210.69 152.032  11
  -6  -4   9 750.917 310.866   5
  -4  -6   9 304.293 230.866  17
  -6   4  -9 1251.55 302.495  19
  -6  -4   9 1046.74 237.329  19
   4   6  -9 1632.21 479.083  18
   6   4  -9 1603.45 396.971  18
   4  -6   9 528.113 251.971   8
  -4   6  -9 1623.70 332.240   4
   6  -4   9 1366.23 326.355   8
   6   4  -9 1633.54 237.922   8
  -6  -4   9 1010.83 329.678   2
  -6  -4   9 863.241 267.337  16
   6  -4   9 1537.95 502.638  16
   6   4  -9 1218.69 356.294  20
  -6   4  -9 1245.08 322.981   4
   4   6  -9 1672.75 394.342   3
   6  -4   9 1569.22 378.806   6
  -4  -6   9-35.3010 272.393   2
  -4   6  -9 1315.03 402.897   3
   6   4  -9 1895.42 330.695   3
   6  -4   9 1190.28 283.430  14
   4  -6   9 1197.31 364.021  14
   6   4  -9 1192.24 421.285   1
  -4   6 -10 36.7487 28.7489   5
   6  -4  10 45.0137 69.0612   6
   6   4 -10 76.6805 75.9330   3
   6   4 -10 33.5424 73.8634   1
  -4   6 -10 49.2599 173.505  13
  -4  -6  10 25.2740 61.0296   6
  -6   4 -10-79.7795 154.556  13
   4   6 -10 24.5551 37.1857  13
   4  -6  10 108.640 96.4204   6
  -6   4 -10 42.6404 93.2364   3
   6   4 -10 52.3820 115.865  13
  -4  -6  10-66.7890 109.418  17
  -6   4 -10 77.3233 108.313  12
  -4   6 -10 96.8431 117.290  12
   4   6 -10-157.724 250.610   1
   6   4 -10 87.2628 127.036  11
  -6  -4  10 44.7170 92.6078   5
  -6   4 -10 97.5798 68.2300  11
  -6   4 -10 93.2993 120.834   5
   6   4 -10 109.173 122.729  20
  -4  -6  10-223.856 275.862   2
  -6  -4  10 42.8012 36.2788  17
   4  -6  10-164.331 125.361  17
  -6  -4  10 19.3213 60.4442  19
   6  -4  10 36.2459 30.3313   8
   4  -6  10 7.44991 4.66485   8
  -4   6 -10 17.0798 103.678  18
  -6  -4  10 65.9266 53.6054   2
  -6   4 -10 99.4509 86.4649  19
  -6   4 -10 63.1602 85.9234   4
  -6  -4  10 18.0181 15.9869  16
  -4   6 -10 43.8091 58.4648   4
   4   6 -10 72.4520 94.5934  18
   6   4 -10 60.8827 94.5546  18
   6  -4  10-11.4753 53.2874   1
   6  -4  10 21.0000 63.8262  16
   4   6 -10 23.4930 58.2464   3
   6  -4  10 77.1051 86.2283  14
  -4   6 -10 55.4441 115.776   3
   4  -6  10 79.3589 93.7644  14
   4   6 -11 1674.43 442.274  13
   6   4 -11 1732.61 392.262  13
  -4  -6  11 859.657 267.701   6
  -4   6 -11 1225.76 544.301  13
  -6   4 -11 911.513 357.922  13
  -6   4 -11 1149.23 344.802  12
  -6   4 -11 1125.09 353.062   3
  -4   6 -11 1591.41 382.345  12
   6   4 -11 1502.06 480.168   1
   6   4 -11 1379.17 273.338  12
  -4   6 -11 1772.79 241.195   5
  -6  -4  11 1402.43 404.143   2
   6   4 -11 1948.82 480.437  11
  -6   4 -11 1369.31 419.502   5
  -6   4 -11 1510.38 267.401  11
  -6  -4  11 1418.00 425.067   5
   4  -6  11 1044.83 157.086   1
  -6   4 -11 888.787 290.781  20
   6   4 -11 1458.44 445.000  20
  -6   4 -11 1262.62 314.791  19
  -6  -4  11 1160.56 242.871  19
  -4  -6  11 798.606 365.250   2
   4   6 -11 36.7223 122.653   1
  -6   4 -11 1382.08 403.875   4
  -4   6 -11 1769.82 278.866  18
   4   6 -11 1893.40 496.633  18
   6   4 -11 1513.89 415.012  18
  -4   6 -11 1736.59 344.906   4
   4  -6  11 1379.47 407.805   8
   4  -6  11 1465.06 317.180  17
  -6  -4  11 1531.73 471.476  17
   6  -4  11 771.436 274.903   1
  -4  -6  11 994.804 401.093  17
   6  -4  11 2349.77 631.929  16
  -6  -4  11 1445.06 379.851  16
  -4   6 -11 1965.43 483.221   3
   6  -4  11 1810.81 404.427   8
  -4  -6  11 401.123 77.3884  16
   4  -6  11 937.232 294.022  16
   6  -4  11 2046.97 470.629   6
   6   4 -11 1909.46 544.085  10
   4  -6  11 1457.57 407.571   6
   4   6 -11 1932.23 400.504   3
   6  -4  11 1894.18 383.499  14
   6   4 -11 1898.04 329.391   3
   4  -6  11 1538.01 328.448  14
  -4   6 -11 1894.18 501.005  19
  -4   6 -12 628.075 299.101   3
   4  -6  12 606.671 288.126   6
  -4   6 -12 346.306 312.609  13
   4   6 -12 572.636 246.233  13
  -6   4 -12 492.919 301.994  13
   6   4 -12 709.642 204.788   3
   6   4 -12 664.139 137.295  12
   6   4 -12 1536.73 574.080   9
  -6   4 -12 263.215 213.614   3
   6   4 -12 673.691 321.977   1
  -6   4 -12 407.372 199.894  12
  -4   6 -12 667.665 161.998   5
  -4   6 -12 570.764 239.724  12
   4   6 -12 647.787 167.845  12
  -4  -6  12 354.045 253.343  17
   6   4 -12 701.003 291.253  11
  -6  -4  12 430.276 254.998   5
  -6   4 -12 301.059 119.511  11
   6   4 -12 374.064 270.723  20
  -6   4 -12 636.988 246.408  10
   4   6 -12 64.5454 144.451   1
  -4  -6  12 464.892 273.744   2
  -6  -4  12 274.509 87.8640  19
  -4   6 -12 811.706 325.095  19
  -4   6 -12 630.142 148.727  18
   4   6 -12 699.663 305.562  18
   6   4 -12 565.435 263.528  18
  -6   4 -12 445.767 263.553   4
  -6  -4  12 517.954 269.347   2
   6  -4  12 776.542 267.301   8
  -6   4 -12 397.735 177.620  20
  -6  -4  12 475.938 245.017  17
  -6   4 -12 516.416 198.143  19
   4  -6  12 662.165 260.163   8
  -4   6 -12 715.778 226.917   4
   4  -6  12 361.467 141.447  16
   6  -4  12 902.512 388.460  16
  -6  -4  12 587.596 241.474  16
  -6   4 -12 1068.97 484.774   7
  -6   4 -12 849.320 464.311  15
   6   4 -12 733.765 347.435  10
   6  -4  12 801.798 280.127  14
   4  -6  12 591.923 171.408  17
  -4  -6  12 215.896 69.4841  19
   4  -6  12 588.687 187.481  14
   4   6 -12 707.130 256.051   3
   6  -4  12 766.061 289.134   6
  -4  -6  12 331.303 188.695   6
   4   6 -13 332.928 174.733   3
   4  -6  13 301.398 221.103   6
  -4   6 -13 357.487 218.272   3
  -4   6 -13 164.916 228.653  13
   4   6 -13 523.774 250.953  13
  -6   4 -13 161.739 154.776  13
  -6   4 -13 347.098 217.355  12
  -6   4 -13 360.037 259.979   3
   6   4 -13 348.798 99.9616  12
  -4   6 -13 269.443 163.057  12
   6   4 -13 250.775 189.094   1
   4   6 -13 389.358 146.987  12
  -6  -4  13 386.681 251.660   2
  -6   4 -13 115.343 129.566  20
  -4   6 -13 377.724 190.611   5
   6   4 -13 267.207 158.073  11
  -6  -4  13 303.262 211.782   5
   6   4 -13 290.118 180.641  18
  -6   4 -13 28.3023 305.762  11
   6   4 -13 179.811 196.551  20
  -4  -6  13 222.199 184.500  16
  -6   4 -13 133.149 108.998  10
   6   4 -13 451.627 312.871  10
  -4   6 -13 320.258 108.021  18
   4   6 -13 375.376 235.456  18
  -4  -6  13 337.356 243.907   2
   6  -4  13 321.417 170.710   8
  -6   4 -13 0.32479 154.382   4
  -4   6 -13 388.439 210.209   4
  -6   4 -13 163.803 103.359  19
  -4  -6  13 308.681 259.260  17
   4  -6  13 379.157 157.154  17
  -6  -4  13 245.387 155.280  17
  -4  -6  13 214.677 184.279   6
   4  -6  13 246.671 149.784   8
  -6   4 -13 453.718 240.453   9
   4  -6  13 249.652 223.383  16
   6  -4  13 491.538 330.967  16
  -6  -4  13 315.022 181.892  16
   4   6 -13 923.245 487.831   7
  -6   4 -13 418.929 349.133   7
   6   4 -13 419.089 156.936   3
   4   6 -13 34.0156 108.498   1
   4   6 -13 758.984 491.314  15
  -6   4 -13 406.598 370.481  15
   6   4 -13 715.259 386.107   9
   6  -4  13 551.084 237.735  14
  -4   6 -13 442.099 202.233  19
   4  -6  13 390.964 152.528  14
   6  -4  13 337.104 224.232   6
   4  -6  14 566.185 282.251   6
   4   6 -14 598.319 251.582   3
  -4   6 -14 395.113 202.123   3
  -4   6 -14 301.356 216.362  13
   4   6 -14 508.184 253.677  13
  -6   4 -14 122.518 152.031  13
  -6   4 -14 315.734 310.964  12
   6   4 -14 722.599 261.311   3
   6   4 -14 587.822 144.783  12
  -6   4 -14 492.360 313.430   3
  -4   6 -14 402.197 192.251  12
   4   6 -14 680.607 205.763  12
   4   6 -14 707.190 332.206  11
  -4   6 -14 718.024 206.821  11
   6   4 -14 357.971 245.074   1
   6   4 -14 684.507 324.485  11
  -6  -4  14 548.090 277.671   5
   4   6 -14 708.047 397.381  20
   6   4 -14 491.823 393.341  20
  -6   4 -14 306.048 188.346  10
   6   4 -14 578.065 379.229  10
  -6  -4  14 514.032 291.474  17
  -6   4 -14 316.395 140.586  19
   6   4 -14 626.156 339.772   9
  -4   6 -14 679.471 261.017  19
  -4  -6  14 459.672 333.596   2
  -6  -4  14 258.672 212.161   2
   4   6 -14 455.759 234.612  18
  -6  -4  14-149.252 281.455   4
  -4   6 -14 518.293 149.674  18
   6   4 -14 510.367 232.144  18
   4   6 -14 64.6288 40.9901   1
   6  -4  14 501.492 226.439   8
  -4  -6  14 544.932 294.187  17
   4  -6  14 584.145 176.073  17
  -6   4 -14 304.351 155.465   9
   4  -6  14 670.502 248.910   8
  -4  -6  14 545.275 285.428  16
   4  -6  14 505.308 304.223  16
   6  -4  14 783.833 400.275  16
  -6  -4  14 422.880 221.021  16
   4   6 -14 696.706 322.231   7
  -6   4 -14 383.078 306.189   7
   4   6 -14 573.677 283.084  15
  -6   4 -14 243.238 181.334  15
  -4   6 -14 626.775 323.654   4
   6  -4  14-6.89600 315.800   2
  -6   4 -14-431.341 484.466   4
  -6   4 -14 369.770 214.005  20
   6  -4  14 778.009 305.865  14
  -4  -6  14 97.1801 194.450   6
   4  -6  14 637.220 200.073  14
   6  -4  14 677.147 312.231   6
  -6  -4  15 111.302 213.196   4
   4   6 -15 742.293 271.268   3
  -4   6 -15 489.149 303.928  13
  -4   6 -15 634.963 304.199   3
   4   6 -15 594.017 289.378  13
  -6   4 -15 420.233 259.300  13
   6   4 -15 831.916 186.675  12
   4   6 -15 1013.54 249.028  12
  -4   6 -15 561.086 247.948  12
  -6   4 -15 563.252 234.228   9
  -6   4 -15 177.908 272.889   7
   4   6 -15 895.937 344.630  11
  -4   6 -15 838.819 199.176  11
   6   4 -15 574.493 272.254  11
   6   4 -15 544.369 374.059  10
  -6  -4  15 812.626 334.762   5
   6   4 -15 497.403 269.509   1
   4   6 -15 688.031 333.386  20
  -6   4 -15 222.534 197.324  20
   6   4 -15 553.945 367.115  20
   6   4 -15 655.623 333.918   9
  -6   4 -15 448.309 254.141  10
   6  -4  15 913.280 365.209   2
  -4   6 -15 390.713 255.935  20
  -4   6 -15 979.060 340.426  19
  -4   6 -15 784.845 204.678  18
  -4  -6  15 694.475 342.812   2
   4   6 -15 840.303 332.280  18
   6   4 -15 640.847 284.339  18
  -4   6 -15 681.666 383.300   4
  -4   6 -15 1425.87 676.842  15
   4  -6  15 870.426 454.716  16
  -6  -4  15 1008.23 387.364   2
   6  -4  15 861.636 307.615   8
   4  -6  15 811.519 234.264  17
  -6  -4  15 814.307 348.003  17
   4  -6  15 809.461 292.299   8
  -4  -6  15 487.321 307.517  16
   6  -4  15 1082.07 489.621  16
  -6  -4  15 916.882 379.051  16
   4   6 -15 140.093 163.211   1
  -6   4 -15 417.892 378.014  15
  -4  -6  15 593.027 319.307  17
  -4  -6  15 164.040 213.569   6
   6  -4  15 1139.55 446.105  14
   4  -6  15 925.320 275.166  14
   6  -4  15 1028.75 417.001   6
  -6   4 -15 400.117 187.825  19
   4  -6  15 765.492 396.665   6
   4   6 -16-17.9922 166.359   3
  -4   6 -16 204.579 413.357  13
  -4   6 -16 208.373 270.353   3
   4   6 -16-299.102 224.829  13
   6   4 -16-334.162 213.155  10
  -6   4 -16 124.878 290.651  13
  -4   6 -16 245.647 264.146  12
   4   6 -16 43.6094 175.601  12
   4   6 -16-23.2187 115.622  11
  -4   6 -16 146.954 165.160  11
   6   4 -16 77.9494 265.799  11
  -6  -4  16 93.7984 187.513   5
  -6   4 -16-63.1076 117.661  10
   4  -6  16-574.138 698.970   2
  -4   6 -16 242.245 230.194  20
   4   6 -16 107.511 222.568  20
  -4   6 -16 746.443 414.932  10
   6  -4  16-37.3688 115.326   8
  -6   4 -16-37.2035 59.3575  20
  -4  -6  16-359.732 353.898   2
  -4   6 -16-158.571 358.056   4
   4  -6  16-28.5013 30.4306  17
  -6   4 -16-14.6694 62.1572  19
   6   4 -16 226.431 435.691   9
  -4   6 -16 58.6845 97.5219  19
  -6   4 -16-171.211 76.4382   9
   6   4 -16-433.498 286.687  20
  -6  -4  16 8.19989 119.597   2
   6   4 -16 238.034 320.673   1
   4   6 -16-196.437 150.484  18
   6   4 -16-56.3315 93.3497  18
   6  -4  16-31.4312 47.7472   2
   4   6 -16 512.614 564.171  10
   4   6 -16 332.334 465.039   1
  -6  -4  16 293.124 374.831  17
   4  -6  16-17.4988 50.6306   8
  -4  -6  16-293.586 69.6771  17
   4  -6  16-298.940 277.739  16
  -4  -6  16-138.603 85.8116  16
  -6   4 -16-812.289 459.568   7
   6  -4  16-193.584 288.634  16
  -6  -4  16-182.251 155.223  16
  -4   6 -16 1172.68 694.192   7
  -6   4 -16-1026.66 567.191  15
  -4   6 -16 833.865 622.877  15
   6  -4  16-217.889 251.905  14
  -4   6 -16 166.905 143.334  18
  -4  -6  16-206.773 290.082   6
   4  -6  16-36.2615 87.7953  14
   6  -4  16-264.273 258.151   6
   4  -6  16-82.0330 109.889   6
   4   6 -17 870.282 493.947  10
   4   6 -17 554.853 289.681   3
  -4   6 -17 157.439 187.205  13
   4   6 -17 320.916 230.512  13
  -4   6 -17 192.092 211.093   3
  -4   6 -17 192.170 167.328  12
   4   6 -17 242.261 211.592  20
   4   6 -17 728.431 261.780  12
   6   4 -17 51.6780 140.078  10
   4   6 -17 673.747 329.079  11
  -4   6 -17 629.445 197.988  11
   6   4 -17 316.481 171.097  11
  -6  -4  17 550.285 276.403   5
  -4   6 -17 193.051 188.180  20
  -4   6 -17 649.074 312.408  10
  -6   4 -17 30.1600 81.5140  20
   6   4 -17-322.155 531.461  20
   6   4 -17-31.8758 206.146   1
  -6   4 -17-108.527 180.566  10
  -4   6 -17 471.234 227.149  19
   6  -4  17 783.363 355.588   2
  -4  -6  17 220.586 155.209   2
   4  -6  17 61.0889 483.911   2
   4   6 -17 456.286 238.327  18
   6   4 -17 305.725 199.676  18
  -4  -6  17-11.0666 149.130   6
   6  -4  17 666.559 290.110   8
  -6  -4  17 339.715 255.554   2
  -4  -6  17 350.234 285.316  17
  -6  -4  17 412.302 275.370  17
   4  -6  17 587.433 229.937   8
   4  -6  17 516.735 218.241  17
   6   4 -17 188.216 200.073   9
  -6   4 -17-23.7186 95.6470  19
   4  -6  17 679.901 421.044  16
  -4  -6  17 515.532 304.714  16
  -6   4 -17-14.5759 93.8464   9
   6  -4  17 526.513 346.046  16
  -6  -4  17 401.473 269.799  16
   6  -4  17 583.548 351.838  14
  -4   6 -17 819.856 553.282   7
  -6   4 -17-880.870 762.270  15
  -4   6 -17 442.981 424.302  15
   4   6 -17 71.1612 215.614   1
   4  -6  17 481.879 272.320  14
   6  -4  17 749.586 373.877   6
   4  -6  17 565.078 330.793   6
   6  -5   3 34.2407 87.0456   6
   6   5  -3-265.821 277.876   1
   6   5  -3-511.746 252.911  18
  -6  -5   3 14.0425 114.433  17
   6   5  -4-73.6423 295.233  13
  -6   5  -4 237.036 138.727  12
   6   5  -4 147.064 114.049  18
   6   5  -4-235.025 189.617   1
  -6   5  -4 119.216 117.798  19
   6  -5   4 59.8552 52.3913   6
  -6  -5   4-188.406 236.423  17
   6  -5   4-45.3735 155.337   8
   6  -5   4 85.5074 91.0134  14
   6  -5   5 169.780 117.517   6
   5  -6   5-4.35906 11.8522   6
  -6   5  -5 447.283 196.468  12
   6   5  -5 325.738 188.614  13
  -6   5  -5 518.895 233.326  19
   6   5  -5 292.832 257.343   1
  -6  -5   5-102.413 153.581  17
   6  -5   5 126.537 105.136   8
   6  -5   5 55.4628 150.065   1
  -6   5  -5 261.734 96.7482   4
  -6   5  -5 248.275 178.714   3
   6   5  -5 373.789 240.778  18
   6  -5   5 251.796 180.470  14
   6   5  -6 90.1291 87.2152  13
   6  -5   6 100.519 148.279   6
   5  -6   6-27.4020 95.0329   6
  -6   5  -6 152.243 128.869  12
  -5   6  -6 23.2386 89.9369  12
  -6  -5   6 435.032 318.996  17
  -6  -5   6-233.019 368.736   2
   6   5  -6 9.11075 33.7135  18
  -6   5  -6 13.4196 51.3812   5
  -6   5  -6 70.0666 83.9944  19
  -5  -6   6-117.159 231.348  17
   6   5  -6 82.7792 99.3454   8
   5   6  -6-48.6222 149.336  13
   6   5  -6-28.6337 143.984   1
   5   6  -6 8.71971 122.565  18
   6  -5   6 81.5349 97.3371   8
  -5   6  -6-79.0590 180.771   3
  -6   5  -6 196.676 218.448   3
   6  -5   6 81.2957 84.2130   1
  -6   5  -6 104.898 84.1899   4
   6  -5   6 133.989 120.718  14
   6   5  -7 782.758 271.105  13
   6  -5   7 407.162 174.342   6
   5   6  -7 724.407 325.383  13
  -6  -5   7 144.973 57.6565   6
   5  -6   7 195.591 157.713   6
  -6  -5   7 72.2351 169.124  17
  -6   5  -7 626.484 220.153  12
  -5   6  -7 804.941 269.330  12
  -6   5  -7 774.173 212.216   5
   5   6  -7 535.251 291.794  18
   6   5  -7 686.046 324.736  18
   6   5  -7 635.335 214.564   8
   6   5  -7 407.949 287.604   1
  -5  -6   7-116.493 160.287  17
   6  -5   7 431.221 196.548   8
   5  -6   7 64.0247 330.551   8
  -6   5  -7 676.477 228.376   4
  -6   5  -7 741.711 262.446  19
  -6  -5   7 70.9512 160.003  19
  -5   6  -7 660.044 316.836   3
  -6  -5   7-150.469 177.042   2
  -6   5  -7 711.228 306.196   3
   6  -5   7 509.050 180.764   1
   6  -5   7 564.299 219.304  14
   5  -6   7 419.955 267.612  14
  -6  -5   8 88.8003 56.3059   6
   5   6  -8 370.015 218.556  13
   6   5  -8 291.207 168.211  13
   6  -5   8 210.506 159.843   6
   5  -6   8 182.464 152.276   6
  -5  -6   8 20.6687 63.2186   6
  -6   5  -8 303.340 167.093  12
  -5   6  -8 295.954 156.328  12
   5   6  -8-131.846 249.060   1
  -6   5  -8 301.230 136.661   5
  -6  -5   8 133.090 117.229  19
  -6   5  -8 343.875 168.593  19
   6   5  -8 254.787 221.785  18
   6   5  -8 401.214 139.926   8
  -6  -5   8 214.439 231.930  17
   6   5  -8 330.281 260.288   1
   5   6  -8 367.685 209.660  18
   6  -5   8 210.596 125.960   8
  -6   5  -8 375.251 170.857   4
  -5   6  -8 364.119 173.792   4
   6  -5   8 352.440 134.946   1
   5  -6   8 170.213 107.873   8
  -5   6  -8 253.251 209.141   3
  -6  -5   8 138.736 145.311   2
   6  -5   8 254.115 152.618  14
  -6   5  -8 465.493 259.729   3
  -5  -6   8 29.4453 110.930  17
   5  -6   8 256.539 192.173  14
   6  -5   9 210.457 93.4118   1
  -6  -5   9 96.8606 125.046   2
   6  -5   9 291.544 177.592   6
   5   6  -9 270.860 159.218  13
   5  -6   9 51.5237 105.653   1
   6   5  -9 197.405 84.9493  13
  -5  -6   9 166.780 102.954   6
   5  -6   9 86.7478 64.0049   6
  -6   5  -9 298.583 177.889  12
  -5   6  -9 218.641 147.939  12
  -5   6  -9 221.864 105.110   5
  -5  -6   9-149.141 278.509   2
   5   6  -9 162.746 179.506  18
  -6   5  -9 229.343 116.541   5
  -6  -5   9 152.831 98.9375  19
  -6   5  -9-109.654 231.736  13
  -6   5  -9 229.568 145.305  19
  -5   6  -9 47.0910 194.538  19
  -6   5  -9 197.937 67.4909  18
   6   5  -9 263.628 213.667  18
   5   6  -9 71.0833 29.1838   8
   6  -5   9 190.424 86.7593  17
  -6  -5   9 119.627 169.660  17
  -5  -6   9 48.9537 59.0310  17
   6   5  -9 258.919 99.5257   8
   6  -5   9 238.225 140.736   8
  -6   5  -9 190.213 120.504   4
   6   5  -9 170.262 177.776   1
   5  -6   9 136.093 52.5595   8
  -5   6  -9 197.622 125.089   4
   6   5  -9 272.295 151.077   7
   6   5  -9 296.456 145.599  15
   5   6  -9 125.404 101.725   3
   6   5  -9 269.882 153.028   3
  -6  -5   9-28.7387 45.8162   6
  -5   6  -9 328.762 196.570   3
   6  -5   9 318.623 174.365  14
   5  -6   9 41.3366 15.6191  14
   5   6  -9 21.3523 150.199   1
  -6   5  -9 335.249 220.389   3
  -5   6 -10 23.5498 132.750  13
  -5  -6  10 159.853 99.8481   6
  -6   5 -10 75.4937 179.997  13
   6  -5  10 291.668 200.881   6
   5   6 -10 242.278 147.284  13
  -6  -5  10 191.445 111.902  19
   5  -6  10 65.1525 79.5975   6
   6   5 -10 225.724 140.047  13
  -5   6 -10 379.207 245.443   3
  -5  -6  10 40.6551 177.609  17
  -6   5 -10 253.909 172.454  12
  -5   6 -10 198.531 149.258  12
  -6   5 -10 277.738 128.317   5
  -5   6 -10 273.241 97.7468  18
  -5  -6  10-8.68880 155.851   2
  -5  -6  10 90.9806 59.1783  19
  -6   5 -10 235.593 142.066  19
  -5   6 -10 365.141 180.807  19
   5   6 -10 105.938 172.930   1
   6  -5  10 300.105 111.944   1
   6   5 -10 150.760 140.515  18
  -6   5 -10 143.763 155.141   3
   6  -5  10 247.573 60.8267  17
  -6  -5  10 87.0055 150.180  17
  -6   5 -10 220.164 134.849   4
   5  -6  10 186.482 87.6319   1
   5   6 -10 164.074 87.1407   8
   5  -6  10 257.160 179.643   8
   6   5 -10 198.876 78.5769   8
  -6  -5  10-207.500 256.119  16
   6  -5  10-160.987 388.253  16
  -5   6 -10 292.208 144.663   4
  -6  -5  10 49.1370 85.9815   2
   6   5 -10 410.860 317.058   1
   6  -5  10 225.942 143.073   8
  -6  -5  10-17.8241 21.7890   6
   5   6 -10 202.231 161.352  18
   5   6 -10 276.753 159.257   3
  -5   6 -10 266.637 124.177   5
   5  -6  10 111.334 45.0916  17
   6   5 -10 284.637 156.593   3
   6  -5  10 267.323 134.766  14
   5  -6  10 269.801 163.028  14
   5  -6  11 432.516 218.076   6
   6  -5  11 361.303 150.771   1
   6  -5  11 335.912 185.023   6
  -5   6 -11 276.608 331.470  13
  -6   5 -11 245.182 216.341   3
  -6   5 -11 252.448 257.437  13
   5   6 -11 426.416 217.560  13
   6   5 -11 456.566 208.893  13
   5  -6  11 257.719 84.8382   1
  -6   5 -11 372.309 202.641  12
  -5   6 -11 389.222 206.870  12
   6   5 -11 577.256 327.639  11
  -6   5 -11 346.852 103.353  11
  -6   5 -11 372.757 182.378   5
  -5   6 -11 310.210 111.873   5
  -5  -6  11 241.721 119.654  19
  -6  -5  11 253.148 116.946  19
  -6   5 -11 443.560 196.372  19
  -5   6 -11 470.919 237.444  19
  -6  -5  11 350.261 213.998   2
  -5   6 -11 327.483 99.4990  18
   5   6 -11 18.3831 94.8096   1
   6   5 -11 317.509 193.297  18
   5   6 -11 389.468 267.527  18
   5  -6  11-159.025 491.617  16
   5  -6  11 305.588 120.242  17
   6   5 -11 414.234 262.442  20
  -5  -6  11 340.518 258.508  17
  -6  -5  11 102.745 150.787  17
  -5  -6  11 223.397 236.570   2
  -6   5 -11 412.775 204.300   4
   6  -5  11 318.563 85.0197  17
   6  -5  11 429.408 219.705   8
  -5   6 -11 447.242 188.932   4
   5  -6  11 290.088 177.338   8
  -6  -5  11 114.638 58.7773  16
   6  -5  11 461.783 281.702  16
   6   5 -11 420.541 293.421   1
  -6  -5  11 9.99371 45.0804   6
   5   6 -11 376.309 197.817   3
   6  -5  11 335.179 166.709  14
   6   5 -11 427.578 172.706   3
   5  -6  11 336.408 152.281  14
  -5  -6  11 136.327 104.053   6
  -5   6 -11 407.949 240.733   3
   6  -5  12 149.418 145.641   6
  -5   6 -12 73.9954 147.762   3
   5  -6  12 156.094 147.323   6
  -5   6 -12 121.670 293.631  13
  -6   5 -12 157.840 240.130  13
  -6   5 -12 39.4638 100.806   3
   5   6 -12 196.390 173.477  13
   6   5 -12 133.827 98.5361  13
  -6   5 -12 37.5176 102.024  12
  -5   6 -12 92.6338 92.7257  12
   5  -6  12 86.0425 61.8477   1
   6   5 -12 358.374 237.657  11
   5   6 -12 62.2331 131.919   1
  -6   5 -12 159.652 138.627   5
  -6   5 -12 118.474 78.6703  11
  -5  -6  12 23.7210 33.4040  19
  -6  -5  12 58.9141 135.319   2
  -5   6 -12 87.6582 77.8820   5
  -6  -5  12 61.6647 64.8028  19
  -6  -5  12 188.595 152.030  16
  -5   6 -12 124.096 79.8274  19
  -5   6 -12 94.6371 56.2058  18
   5   6 -12 99.5321 124.340  18
   6   5 -12 250.032 194.715  18
  -6   5 -12 96.0592 109.434   4
  -5  -6  12 105.724 156.486   2
   5  -6  12 111.056 74.8555  17
  -5  -6  12 169.077 181.522  17
  -6  -5  12 96.5399 146.595  17
   6  -5  12 59.8084 94.2031   1
  -5   6 -12 140.227 138.708   4
   6  -5  12 55.6303 81.4679   8
  -6   5 -12 123.786 119.747  19
   6  -5  12 96.1276 65.2154  17
   6   5 -12 305.245 259.549  20
   5  -6  12 141.104 119.432   8
   5  -6  12-114.448 331.614  16
   6  -5  12 78.0062 167.001  16
   5   6 -12 674.770 400.456   7
   5   6 -12 283.401 284.085  15
   6   5 -12 19.2655 36.7533   1
  -6  -5  12-41.7493 70.6700   6
  -5  -6  12-149.087 240.077  16
   6  -5  12 77.3433 65.2863  14
   5   6 -12 121.576 108.945   3
  -5  -6  12 84.2845 133.810   6
   5  -6  12 119.575 75.7212  14
   6   5 -12 107.373 89.0455   3
   5  -6  13 577.539 269.802   6
   6   5 -13 759.794 241.274   3
  -5   6 -13 395.641 234.860   3
  -5   6 -13 271.702 253.063  13
  -6   5 -13 422.918 266.551   4
  -6   5 -13 474.610 315.384  13
   5   6 -13 650.729 302.432  13
  -6   5 -13 308.499 196.764   3
   6   5 -13 621.488 279.862  13
  -6   5 -13 519.646 254.912  12
  -5   6 -13 550.024 239.375  12
   6   5 -13 298.165 88.8666  12
   5   6 -13 1035.08 437.030  11
  -5   6 -13 714.577 190.485  11
   6   5 -13 819.563 367.161  11
  -5   6 -13 751.450 270.567   5
  -6   5 -13 593.711 185.737  11
  -6  -5  13 191.509 77.7383  19
  -6   5 -13 597.784 278.203  20
   6   5 -13 1161.38 550.734  10
  -6   5 -13 573.432 222.888  19
  -6  -5  13 481.353 272.440   2
  -5  -6  13 202.302 92.0455  19
  -5  -6  13 352.845 235.507   2
   5   6 -13 349.705 269.306   1
  -5   6 -13 607.783 145.521  18
   6   5 -13 692.831 313.918  18
  -5   6 -13 703.225 283.414   4
  -5  -6  13 439.704 224.432  16
  -5  -6  13 504.519 284.743  17
   5  -6  13 670.366 165.971  17
  -6  -5  13 985.870 425.203  17
   6  -5  13 644.683 229.769   8
   6   5 -13 668.912 359.698  20
   5  -6  13 619.060 263.501   8
   5  -6  13 446.943 321.966  16
  -6  -5  13 437.086 231.161  16
   6  -5  13 843.341 440.267  16
   5   6 -13 409.452 96.6941   7
   5   6 -13 859.609 335.705  18
   5   6 -13 227.918 149.832  15
  -5   6 -13 705.272 284.686  19
   6   5 -13 578.652 374.450   1
  -5  -6  13-41.8124 104.819   6
   6  -5  13 826.836 276.659  14
   5  -6  13 581.029 196.285  14
   5   6 -13 770.442 268.532   3
   6  -5  13 863.732 351.774   6
   5  -6  14-4.32059 48.6955   6
   5   6 -14 38.7102 51.4703   3
   5   6 -14-20.8947 87.2775  20
  -5   6 -14 8.75709 14.4401   3
   6   5 -14 32.6873 75.3761   3
  -5   6 -14 10.2838 175.368  13
  -6   5 -14 78.3890 127.868  13
   5   6 -14-80.7422 100.719  13
   6   5 -14 68.7093 142.001  13
  -6   5 -14 77.5335 146.028   3
  -6   5 -14-15.8856 87.3818  12
  -5   6 -14-1.57781 88.7579  12
   6   5 -14 39.2943 60.1421  12
   5   6 -14 14.4532 106.728  12
   5   6 -14 17.7255 100.746  11
  -5   6 -14 32.1207 46.0222  11
   6   5 -14 27.7082 59.0922  11
  -6  -5  14 37.0219 117.731   2
  -6   5 -14 34.7580 69.9761  11
  -6   5 -14 37.9234 105.372  20
  -6   5 -14 73.9534 126.263   4
  -5   6 -14 93.5656 112.399  19
  -5  -6  14 161.982 204.311   2
   5   6 -14 144.307 184.029  18
  -5   6 -14 56.7103 20.9223  18
   6   5 -14-145.042 48.8418  10
   6   5 -14-37.8021 143.258  20
   5   6 -14 246.595 321.007   1
  -5  -6  14 238.266 239.737  17
  -6  -5  14 207.408 178.549  17
   5  -6  14 47.3461 62.2543  17
  -5   6 -14-25.1673 54.5270   4
   6  -5  14-15.6533 87.9875   8
   5  -6  14 3.95484 54.7324   8
  -5  -6  14 69.0648 71.9986  16
   5  -6  14 83.1936 162.885  16
   6  -5  14 27.7059 120.514  16
  -6  -5  14 283.132 232.113  16
   6   5 -14 169.644 140.524  18
  -6   5 -14 308.692 375.646   7
  -6   5 -14 273.702 386.758  15
  -6   5 -14 187.088 197.906  10
  -6   5 -14 28.3696 32.1895  19
  -5  -6  14 27.1608 92.6600   6
   6   5 -14 172.119 188.897   1
   6  -5  14 33.1707 21.7513  14
   5  -6  14 88.4666 57.8785  14
   6  -5  14 157.428 189.138   6
   5   6 -15 335.119 242.521   3
  -5   6 -15 141.400 206.278  13
  -5   6 -15 40.4073 49.4398   3
   6   5 -15 581.447 277.137   3
  -6   5 -15 130.275 99.1374  13
   5   6 -15 224.391 291.205  13
   5  -6  15 15.7918 131.215  16
   6   5 -15 482.502 378.901  13
  -6   5 -15 113.203 174.462   3
  -6   5 -15 85.4286 120.886  12
  -5   6 -15 11.5895 50.5515  12
   5   6 -15 371.672 222.770  12
   5   6 -15 34.7258 169.640  11
  -5   6 -15 228.718 83.0196  11
   6   5 -15 262.284 307.200  11
   6   5 -15 1922.91 832.925   9
  -6   5 -15 191.665 69.3598  11
   5   6 -15 205.569 179.734  20
   5   6 -15 526.137 489.885  10
   6   5 -15 241.356 341.325  20
  -6   5 -15 64.0420 53.6219  10
   6   5 -15 46.6406 431.352  10
  -5  -6  15 161.907 209.142  16
  -6   5 -15 382.509 207.885   9
  -5  -6  15 169.946 430.450  17
  -5   6 -15 346.018 194.988  19
  -6  -5  15 375.318 324.131  17
   5   6 -15 266.713 192.549  18
  -6   5 -15-140.036 317.833   4
   6   5 -15 173.096 203.199  18
  -6  -5  15 229.123 369.459   2
  -5  -6  15 88.4257 28.4875   2
  -5   6 -15 285.362 198.054  20
  -5   6 -15 176.244 33.3113   4
   6  -5  15 221.742 123.679   8
   5  -6  15 252.654 93.0116  17
   5   6 -15 82.4510 330.014   1
   5  -6  15 211.921 53.8709   8
  -6   5 -15 17.8510 22.3126  20
  -6   5 -15 116.952 110.314  19
   6  -5  15 336.386 280.549  16
  -6  -5  15 305.212 374.055  16
  -6   5 -15 388.791 299.194   7
  -6   5 -15 205.701 271.041  15
  -5   6 -15 956.237 610.816  15
  -5  -6  15 42.0548 264.542   6
   6  -5  15 367.851 210.230  14
   5  -6  15 294.778 190.769  14
   6   5 -15 545.975 557.642   1
   6  -5  15 299.572 193.472   6
   5  -6  15 107.590 168.085   6
   5   6 -16 930.489 411.327   3
  -5   6 -16 615.924 418.725  13
  -6   5 -16 7.44628 63.1052  20
  -5   6 -16 217.365 242.420   3
  -6   5 -16 9.21683 100.461  13
   5   6 -16 1107.84 511.219  13
   6   5 -16-300.463 171.379  13
  -6   5 -16 136.235 247.852   3
  -6   5 -16-12.6362 200.005  12
  -5   6 -16 183.030 230.027  12
  -5  -6  16 352.059 351.606   2
   5   6 -16 418.055 337.872  11
   6   5 -16 742.167 539.671  11
  -5   6 -16 293.823 140.395  11
  -5   6 -16 125.087 137.876  20
   5   6 -16 424.334 539.878  20
  -5   6 -16 343.621 243.287  10
   5   6 -16 1404.84 719.323  10
   6   5 -16 1081.55 985.497  20
  -6   5 -16 158.390 188.425  10
   6   5 -16 1400.32 948.557  10
  -6   5 -16 6.63698 75.3457  19
   5   6 -16 555.688 359.680  18
   5  -6  16 226.389 231.331  16
  -5   6 -16 517.399 229.714  19
  -5   6 -16-172.631 388.993   4
   6   5 -16 589.267 380.309  18
  -5  -6  16 1056.16 506.477  17
   5  -6  16 178.134 132.605   8
   5   6 -16 571.556 765.606   1
  -5  -6  16 893.070 432.586  16
   6  -5  16 419.377 378.717  16
  -6   5 -16 223.357 318.251   7
  -5   6 -16 1363.88 683.748   7
  -6  -5  16 746.722 626.352   2
  -5  -6  16 485.262 472.562   6
  -6   5 -16 35.8590 103.030  15
  -5   6 -16 661.038 508.225  15
   6   5 -16 871.412 459.749   3
   6  -5  16 475.825 298.292  14
   5  -6  16 111.882 117.973  14
  -6   5 -16 87.3171 75.2056   9
   6  -5  16 414.595 250.032   8
   6  -5  16 356.779 297.675   6
   5  -6  16 116.568 46.2231   6
   6   5 -16 980.106 744.994   1
   6   5 -17 174.040 227.501   1
   5   6 -17 192.900 75.2691   3
  -5   6 -17 193.588 280.610  13
  -6   5 -17 84.1961 214.531  13
  -5   6 -17-81.4661 131.879   3
   5   6 -17 133.842 210.329  13
   6   5 -17 191.624 156.931   3
  -6   5 -17 218.033 340.744   3
  -6   5 -17 291.575 324.947  12
  -5   6 -17 3.44911 126.266  12
  -6  -5  17-98.4205 231.351   5
  -6   5 -17 168.319 336.846   7
   5   6 -17 166.307 231.490  11
   6   5 -17 191.997 290.432  11
  -5   6 -17 76.4481 92.7116  11
   6  -5  17-319.027 506.838   2
  -5   6 -17 158.144 178.295  20
   5   6 -17 169.977 367.946  20
  -6   5 -17 289.969 258.271  20
  -5   6 -17 149.926 249.872  10
   6   5 -17 227.293 363.316  20
   5   6 -17 63.2259 230.298  10
  -6   5 -17 154.366 215.020  10
   6  -5  17 231.656 193.996   6
  -5   6 -17 1197.66 458.181   9
   5   6 -17 1847.93 810.075   9
  -6   5 -17 209.206 232.710   9
  -5   6 -17-7.47836 43.4198  19
  -5  -6  17 115.095 191.777   2
   6   5 -17 120.085 162.501  18
   6   5 -17 290.237 350.240  10
  -6  -5  17 88.9016 216.521   2
  -5  -6  17 352.848 325.490  17
   5   6 -17 108.019 276.520   1
   6  -5  17 81.9495 119.035   8
   5   6 -17 152.463 162.303  18
  -6  -5  17 122.274 186.580  17
   5  -6  17 137.424 159.843   8
   5  -6  17 22.5814 225.653  16
   6  -5  17 208.122 218.007  16
  -6  -5  17 62.9749 175.194  16
  -5   6 -17 695.686 592.417   7
  -6   5 -17 223.937 351.113  15
  -5   6 -17-23.6264 147.483  15
  -6   5 -17 44.9168 66.9531  19
  -5  -6  17 149.905 173.344   6
   6  -5  17 98.2971 146.270  14
   5  -6  17 79.9448 79.5612  14
   6   5 -17 830.744 528.125   9
  -5  -6  17 515.151 382.871  16
   5  -6  17 256.487 274.760   6
   6  -6   5-31.9530 17.1538   6
  -6   6  -5-130.552 252.892  12
   6   6  -5-134.855 207.221  18
  -6  -6   5 50.9028 111.325  17
   6   6  -6 451.305 236.179  13
   6  -6   6 228.601 168.845   6
  -6   6  -6 710.944 263.777  12
   6  -6   6-24.4261 338.053   8
   6   6  -6-425.455 256.450   1
   6   6  -6 460.107 269.447  18
  -6  -6   6 26.9682 161.220  17
  -6   6  -6 435.804 179.607   3
   6  -6   6 413.414 301.122  14
   6   6  -7 50.9471 97.9894  13
   6  -6   7-11.3215 13.6052   6
  -6   6  -7 27.7458 111.780  12
  -6  -6   7-7.36828 73.8293  17
   6  -6   7-97.0446 246.836   8
   6   6  -7-28.7661 86.9411  18
  -6   6  -7-119.846 130.851   4
   6   6  -7-132.198 248.263   1
  -6   6  -7-97.7612 131.863   3
   6  -6   7 21.4691 124.111  14
   6   6  -8 223.940 230.022  18
   6   6  -8 285.775 202.697  13
   6  -6   8 169.558 144.539   6
  -6  -6   8 38.7823 39.9777   6
  -6   6  -8 304.405 189.633  12
   6  -6   8 163.157 128.253   1
   6   6  -8 93.6385 133.047   1
  -6   6  -8 241.675 128.714   5
  -6   6  -8 166.886 47.0943  19
   6   6  -8 187.609 128.607   8
   6  -6   8 171.915 168.328   8
  -6   6  -8 314.068 192.399   4
  -6   6  -8 266.760 224.154   3
  -6  -6   8 42.7842 71.6286  17
   6  -6   8 169.337 187.558  14
  -6  -6   9-41.6278 91.3109  17
   6   6  -9 15.2675 71.2143  13
  -6  -6   9 46.1959 58.2472   6
   6  -6   9 11.0029 16.1702   6
   6  -6   9-6.86835 66.9399   8
  -6   6  -9-84.4629 91.5599  12
  -6  -6   9-289.412 294.578   2
   6   6  -9-82.1395 95.7278  18
   6   6  -9 15.4593 103.602   1
   6   6  -9 47.5883 81.3503   8
  -6   6  -9 6.08437 41.3928   5
  -6   6  -9-30.6778 121.943  19
   6  -6   9 21.5447 49.7116   1
  -6  -6   9 49.6404 145.109  19
  -6   6  -9 41.8307 100.370   4
  -6   6  -9 78.1054 140.229   3
   6  -6   9 9.40768 13.2986  14
   6   6 -10 36.3615 62.6830   8
   6   6 -10 3.41468 56.6967  13
   6  -6  10-48.3575 107.230   6
  -6   6 -10-2.59272 69.8289  12
  -6   6 -10 3.15423 39.5252   5
  -6  -6  10-64.6655 88.0177  19
  -6  -6  10-88.0954 182.335   2
  -6   6 -10-32.9826 58.8492  18
   6   6 -10 119.398 156.722  18
   6   6 -10-137.701 219.656   1
   6  -6  10 45.8293 55.4602  17
  -6  -6  10 128.582 216.396  17
  -6   6 -10 42.3338 15.3396  19
   6  -6  10 29.9628 54.5045   8
  -6   6 -10 62.6029 117.012   4
   6   6 -10-101.425 201.844   3
   6  -6  10 22.4673 21.8297   1
   6  -6  10 32.1207 47.1110  14
  -6   6 -10 53.5427 143.292   3
  -6  -6  10 63.4037 77.1058   6
  -6   6 -11 28.1252 44.7045  13
   6  -6  11-33.5790 23.6736   6
   6  -6  11 69.7894 103.616   8
   6   6 -11 155.710 72.5002  13
   6   6 -11 12.0948 50.2074   3
  -6   6 -11 53.5053 100.488  12
   6  -6  11 60.6180 59.7620  17
  -6  -6  11 10.5056 34.6428  19
  -6   6 -11 31.8551 88.9818   5
  -6  -6  11 64.8658 142.941   2
  -6   6 -11-27.7517 42.0176  19
  -6   6 -11 9.65837 20.0988  18
   6   6 -11-13.1894 50.9622  18
   6   6 -11 63.6202 102.173   1
  -6  -6  11 26.5539 73.9876  17
   6   6 -11-2.62546 8.77338   8
  -6   6 -11-29.9251 67.0014   4
   6  -6  11-11.5472 45.7320   1
   6   6 -11 246.360 248.361   7
   6   6 -11 174.098 187.204  15
  -6  -6  11-39.3136 35.4715   6
   6  -6  11 2.13382 64.8745  14
  -6   6 -11 22.8674 43.2402   3
  -6   6 -12 396.019 269.949   3
   6  -6  12 399.682 214.495   6
  -6   6 -12 239.348 326.842  13
   6   6 -12 545.582 242.440  13
   6  -6  12 445.961 154.466   1
  -6   6 -12 494.983 233.282  12
   6  -6  12 486.793 118.471  17
  -6   6 -12 532.273 197.441   5
  -6  -6  12 204.843 71.8043  19
  -6  -6  12 303.392 271.339   2
  -6   6 -12 660.687 266.499  19
   6   6 -12 737.737 334.649  18
  -6  -6  12 478.566 319.078  17
  -6   6 -12 603.158 258.084   4
   6  -6  12 447.481 227.651   8
   6  -6  12 84.5756 431.410  16
   6   6 -12-75.5161 297.166   7
   6   6 -12-132.652 330.327  15
   6   6 -12 488.969 338.599   1
  -6  -6  12 62.3814 81.5300   6
   6   6 -12 779.583 262.395   3
   6  -6  12 556.211 210.022  14
  -6   6 -13 24.4822 90.2305  19
   6  -6  13 65.1763 127.365   6
  -6   6 -13 146.154 176.293   3
   6   6 -13-22.6015 49.3322  18
  -6   6 -13-61.6462 136.768  13
   6   6 -13 94.2414 150.710  13
   6   6 -13 11.3942 256.092  11
  -6   6 -13 52.8469 99.7626  11
  -6   6 -13-39.9715 67.6764   5
   6   6 -13 43.8271 156.758  20
  -6  -6  13-19.6108 53.1356  19
  -6  -6  13-92.3159 197.354   2
  -6   6 -13 50.4378 120.992   4
  -6  -6  13-95.7631 166.713  17
   6   6 -13 144.902 259.988   1
   6  -6  13 48.0662 105.651   1
   6  -6  13 25.1039 105.164   8
  -6  -6  13-224.827 289.673  16
   6  -6  13-137.281 295.130  16
  -6  -6  13 71.2527 94.3747   6
   6  -6  13-49.2713 66.9361  14
  -6   6 -13-12.3891 127.759  12
   6   6 -13-41.4676 86.3930   3
  -6   6 -14 191.545 186.337   3
  -6   6 -14 283.286 272.394  13
   6   6 -14 445.126 360.108  13
  -6   6 -14 279.020 191.489  12
   6   6 -14 217.530 9.63529  11
  -6   6 -14 524.112 161.613  11
  -6  -6  14 121.356 265.736  16
   6   6 -14 260.937 245.443  20
  -6  -6  14 313.190 305.925   2
   6   6 -14 429.184 292.149  18
  -6   6 -14 269.437 240.967   4
   6  -6  14 397.528 203.529   8
   6   6 -14 674.347 608.029   1
   6  -6  14 332.656 263.472  16
  -6   6 -14 281.137 164.564  19
   6   6 -14 517.509 234.281   3
  -6  -6  14-44.5136 111.334   6
   6  -6  14 415.203 192.037  14
  -6  -6  14 626.964 603.476  17
   6  -6  14 442.054 266.216   6
  -6   6 -15 52.5035 37.5913  13
  -6   6 -15-67.6869 89.1297   3
   6   6 -15 268.649 400.844  13
  -6   6 -15 48.3765 160.765  12
   6   6 -15 909.961 587.499  11
  -6   6 -15 63.3682 137.273  20
   6   6 -15 935.200 801.294  20
   6  -6  15-142.100 192.785  16
  -6   6 -15-1.98059 102.180  19
   6   6 -15 1418.87 626.610  18
  -6  -6  15 650.805 531.982   2
  -6   6 -15 110.708 255.486   4
   6   6 -15 1110.36 779.271  10
   6  -6  15-13.3802 94.5846   8
  -6  -6  15 2394.69 765.650  16
  -6   6 -15 717.293 535.106  15
   6   6 -15 1260.51 944.188   1
   6  -6  15-66.8156 81.8262  14
   6  -6  15-119.503 208.233   6
  -6  -6  16 178.901 244.944  16
   6   6 -16-48.4981 22.4304   3
  -6   6 -16 16.5319 247.707  13
  -6   6 -16-48.4781 152.897   3
   6   6 -16 268.823 292.958  13
  -6   6 -16-114.564 190.843  12
   6   6 -16 228.223 284.490  11
  -6   6 -16 60.1317 132.094  19
  -6   6 -16 55.1202 110.106  20
   6   6 -16 83.4066 64.2465  20
  -6  -6  16 313.080 329.094   2
   6   6 -16 41.2695 130.493  18
  -6   6 -16-146.914 279.119   4
  -6  -6  16 398.226 353.955  17
   6  -6  16 22.1425 78.7727   8
  -6   6 -16 215.153 222.120  10
   6  -6  16 289.116 329.672  16
   6   6 -16-25.6255 72.4888   1
  -6   6 -16 751.518 548.159   7
  -6   6 -16 774.623 580.948  15
   6   6 -16 240.345 366.604  10
   6  -6  16-32.6487 78.1604  14
   6  -6  16 5.92471 56.2691   6
  -7   0   0-2.17899 34.5658  12
   7   0   0-49.5698 66.8773  11
  -7   0   0-18.4763 55.5997   5
   7   0   0 31.9878 62.2982   1
  -7   0   0-6.89799 57.0317  19
  -7   0   0 4.22065 30.9789   2
  -7   0   0 12.4248 10.6405  17
  -7   0   0 1.98572 68.1603   4
   7   0   0 10.2942 25.7006   8
  -7   0   0-21.3387 79.7900   3
   7   0   0-18.0008 39.6542  18
   7   0   0-38.1104 65.6576  14
   7   0   0-19.9039 32.9227   6
  -7   0  -1 376.309 132.712   3
  -7   0  -1 383.034 143.046  12
  -7   0   1 402.135 157.591  12
  -7   0  -1 288.456 154.957  17
  -7   0   1 456.376 133.599   2
   7   0   1 836.891 195.776  11
   7   0  -1 736.270 223.668  11
  -7   0  -1 378.408 173.733   5
   7   0   1 553.044 204.859   1
  -7   0   1 373.026 155.272   5
  -7   0  -1 430.192 193.512  19
  -7   0   1 380.173 173.480  19
   7   0   1 660.674 195.265  18
   7   0  -1 520.128 181.663   8
   7   0   1 602.802 197.608   8
  -7   0  -1 358.974 179.006   4
   7   0  -1 511.167 192.697   1
  -7   0   1 434.015 203.719  17
  -7   0  -1 371.499 136.178   2
   7   0  -1 613.966 206.833  18
  -7   0   1 517.187 196.149   4
   7   0   1 667.149 202.832   6
   7   0  -1 618.605 153.253   6
  -7   0  -1 652.544 285.613  15
   7   0  -1 617.050 224.887  14
   7   0   1 669.803 237.238  14
   7   0  -2-1.63236 18.8902   6
  -7   0  -2 44.3096 74.3035   3
   7   0   2-0.30371 32.3993   1
  -7   0   2 6.51006 36.0410  12
   7   0   2 11.1023 22.4909  11
  -7   0  -2 5.19335 63.8922   5
   7   0  -2-76.6915 88.6077  11
  -7   0  -2-128.017 204.092   2
  -7   0   2 27.5422 31.8718   5
  -7   0  -2 20.9790 62.8315  17
  -7   0   2 15.8971 62.2508  19
   7   0  -2-8.95907 15.3724  18
  -7   0  -2 20.1005 22.9458   4
   7   0   2 11.7116 54.9578  18
  -7   0  -2-11.7749 32.8492  19
   7   0  -2 26.4583 42.7503   8
  -7   0   2 17.4695 31.2736  17
  -7   0   2 21.2694 64.6740   4
  -7   0   2 10.7790 24.0327   2
   7   0   2-40.6184 63.4771  16
  -7   0  -2 81.9039 126.682   7
   7   0  -2-9.28766 8.60540   1
  -7   0  -2 42.9564 118.071  15
   7   0   2 6.97001 78.7713   8
   7   0   2-0.35033 50.4436  14
   7   0  -2 40.5125 59.7134  14
   7   0   2 0.20786 29.2308   6
  -7   0   3 574.162 226.154   5
   7   0  -3 607.637 230.246   1
   7   0   3 1068.92 191.681  11
  -7   0   3 603.102 166.936   2
  -7   0  -3 381.992 201.856   5
   7   0  -3 702.322 246.462  11
  -7   0   3 552.158 195.058  19
  -7   0  -3 242.987 152.405  19
   7   0   3 938.164 196.729  16
   7   0   3 737.602 184.906  18
  -7   0   3 638.145 209.304   4
   7   0  -3 676.905 196.211   8
   7   0  -3 685.272 255.475  18
  -7   0  -3 442.756 221.367   4
   7   0   3 614.207 229.183   8
  -7   0  -3 325.621 139.566  17
  -7   0   3 491.781 225.009  17
  -7   0  -3 387.217 217.821   7
   7   0   3 868.781 265.910   6
   7   0  -3 706.704 145.661   6
  -7   0  -3 507.996 278.956  15
   7   0   3 822.425 291.403  14
   7   0  -3 727.644 243.633  14
   7   0   3 799.913 257.062   1
   7   0  -4-9.61881 22.2693   6
   7   0  -4-6.02282 11.5767   1
  -7   0  -4-27.1535 8.49135   5
   7   0  -4-97.0002 130.674  11
  -7   0  -4-81.7146 142.943  19
   7   0   4-35.5412 73.2260   8
   7   0   4-5.94525 33.3462  18
   7   0  -4-22.0100 50.3156  18
  -7   0  -4-15.2519 54.1714   4
  -7   0  -4-4.56467 34.3001  17
  -7   0   4 55.1933 112.472  17
   7   0  -4 2.97589 87.4470   8
  -7   0   4-0.35065 44.8351   4
  -7   0  -4-77.9061 200.911   7
   7   0   4 3.28788 12.3013  16
  -7   0   4 42.9983 91.2502   2
  -7   0   4 0.68043 19.3706  16
  -7   0  -4-36.1930 141.858  15
  -7   0   4 54.2227 125.861   5
   7   0   4 7.58383 40.8853   1
  -7   0   4-48.8523 21.6084  19
   7   0   4 38.3072 71.3322  14
   7   0   4-18.7916 52.4133   6
   7   0  -4 66.7966 92.8040  14
  -7   0  -5 177.973 123.266  19
   7   0  -5 53.2945 33.2045   6
   7   0  -5 83.5887 84.8570  11
  -7   0   5 170.306 139.915   5
  -7   0   5 176.384 112.977  19
  -7   0  -5 49.5020 96.9570   4
   7   0   5 366.079 208.894   8
  -7   0  -5 70.6552 65.6810  17
  -7   0   5 188.551 189.130  17
   7   0   5 241.842 100.083  18
   7   0  -5 113.103 90.7691   1
   7   0   5 229.101 213.931   1
  -7   0  -5 128.003 239.427   7
  -7   0   5 179.170 124.676   4
   7   0   5 425.547 177.118  16
  -7   0   5 113.656 110.435  16
  -7   0   5 161.465 101.996   2
  -7   0  -5 174.703 175.464  15
   7   0  -5 150.274 136.596  18
   7   0   5 294.671 155.509  14
   7   0   5 321.834 186.951   6
   7   0  -5 123.429 104.213   8
   7   0  -5 121.861 99.1938  14
   7   0   6 24.5527 69.1999   8
   7   0   6 28.6112 22.3051  18
   7   0  -6 19.5048 53.2692  11
  -7   0  -6-133.583 210.848   4
  -7   0  -6-43.0610 80.8884  19
  -7   0   6 18.2485 22.3277   4
  -7   0   6 53.9366 98.6885   5
   7   0  -6 34.3302 35.8607  18
  -7   0   6 1.55739 39.2291  19
   7   0   6-17.6361 38.9490   1
   7   0  -6 32.6247 63.9430   1
  -7   0   6-162.520 149.305  17
  -7   0  -6 93.3240 93.6196  17
   7   0   6 1.20516 59.0093  16
  -7   0   6 16.2330 79.5460  16
  -7   0   6-46.2097 83.2617   2
   7   0   6-19.6590 54.4842  14
   7   0   6 10.1582 21.9360   6
   7   0  -6-25.6101 70.7085  14
   7   0  -7 39.1956 64.9068  11
  -7   0   7 345.346 183.819   5
   7   0   7 183.194 138.973   1
  -7   0   7 358.622 151.521  19
   7   0   7 172.259 95.1771  18
   7   0  -7 321.685 198.053  18
   7   0   7 242.416 178.829   8
  -7   0  -7-24.9308 52.9978  17
  -7   0   7 339.673 201.419  17
  -7   0   7 280.225 144.185   4
   7   0   7 417.358 228.293  16
  -7   0   7 265.082 144.139  16
   7   0  -7 232.851 138.262   1
  -7   0   7 362.354 188.897   2
   7   0   7 338.490 213.401  14
   7   0   7 404.470 235.391   6
  -7   0  -7-62.0332 130.375  19
   7   0  -7 263.808 133.038  14
   0   7  -8-59.7924 227.470  13
   7   0  -8 20.1725 105.847   1
   0  -7   8 1.29384 48.0281   6
  -7   0   8 26.6415 39.4473   5
   7   0   8-142.646 241.607   1
   7   0  -8 109.248 132.144  11
  -7   0  -8 197.213 221.440  19
   7   0  -8-3.02432 62.7001  18
   7   0   8-28.5912 77.6334   8
  -7   0   8-79.1971 140.629   4
   7   0   8 8.19941 141.973  16
  -7   0   8 110.049 218.554  16
  -7   0   8 8.83946 56.6456  17
  -7   0   8 0.34310 49.2728   2
   0   7  -8-85.6636 156.378   3
   7   0   8 16.2465 112.385  14
   7   0   8 59.5053 123.213   6
   7   0  -8 119.071 110.579  14
   0   7  -9 96.2428 153.571  13
   0  -7   9-47.0313 29.1488   6
   7   0  -9-51.4785 103.642   1
   7   0  -9 58.2561 75.0275  11
  -7   0  -9 67.6315 254.061  19
  -7   0   9 20.7638 49.5977   5
   7   0  -9-25.2811 75.6591  18
   7   0   9 39.9914 25.6294   8
  -7   0   9 101.646 126.807  17
   7   0   9 145.209 203.776  16
  -7   0   9 53.8912 94.5718  16
   7   0   9 75.8229 189.723  14
  -7   0   9 63.1989 92.0662   2
   7   0   9 106.987 105.747   6
   0   7  -9 100.098 130.636   3
   7   0  -9 44.4635 107.520  14
  -7   0  10 38.6116 127.485  16
   0   7 -10-133.164 199.189  13
   0  -7  10 48.8139 76.0503   6
   0   7 -10-65.2584 152.406  12
   0   7 -10-241.561 296.603  18
   7   0 -10 84.8812 230.277  11
   7   0  10 101.871 133.280   8
   7   0 -10-4.70164 56.1424   1
  -7   0  10-3.16039 73.4346   5
  -7   0 -10-72.7780 117.322  19
   7   0 -10 70.3903 130.227  18
   0  -7  10-132.202 137.204  17
  -7   0  10-33.0079 81.1966  17
   7   0  10-104.189 113.747  16
   7   0  10-77.8699 97.0860  14
   7   0  10-48.3797 137.649   6
  -7   0  10 56.8417 107.058   2
   0   7 -10 1.69185 8.10382   3
   7   0 -10 35.4174 99.4172  14
   0   7 -11 1556.80 510.915  13
   0  -7  11 653.907 249.658   6
   0   7 -11 1576.78 369.928  12
  -7   0  11 1934.65 534.833   5
  -7   0  11 1632.11 475.530   2
   7   0 -11 277.055 167.024  11
   7   0  11 1679.19 537.843  16
   0   7 -11 2010.09 532.295  18
   7   0  11 1545.05 537.753   8
  -7   0  11 2071.74 639.524  17
   7   0 -11 640.799 338.843   1
   0  -7  11 498.591 299.573  17
  -7   0  11 1619.83 781.946  16
   0   7 -11 1644.94 412.638   3
   7   0  11 1378.58 468.330   6
   7   0  11 1208.00 502.840  14
   7   0 -11 821.735 299.146  14
   0   7 -12 192.759 170.366  13
   0  -7  12 78.0955 147.189   6
   0   7 -12-21.5971 54.3053  12
   0   7 -12-27.6658 91.8421  18
   7   0  12 119.367 112.502   8
   0  -7  12 272.811 263.786  17
  -7   0  12-82.5340 203.591  17
   7   0 -12-63.7278 156.001   1
   0   7 -12-69.8399 68.9166   4
  -7   0  12-82.1688 199.138   5
   7   0  12 102.178 119.516  16
  -7   0  12 187.888 410.498  16
   7   0  12 2.59211 109.055   6
  -7   0  12 114.637 153.884   2
   0   7 -12-8.23170 70.4914   3
   7   0 -12 53.4363 128.253  14
   0  -7  13 1040.36 370.447   6
   0   7 -13 1527.53 487.669  13
   0   7 -13 1561.10 371.625  12
   0  -7  13 1291.03 437.859  17
  -7   0  13 2426.03 664.841   5
  -7   0  13 2052.98 587.361   2
   7   0  13 1716.31 631.034   8
   0   7 -13 1611.11 417.668  18
   0   7 -13 1970.56 267.024   4
  -7   0  13 1970.64 627.249  17
   0  -7  13 610.205 202.109  16
   7   0  13 1697.41 561.240  16
   0   7 -13 1913.94 470.662   3
   7   0  13 1318.97 489.342   6
   7   0 -13 831.669 405.286   1
   7   0 -13 702.780 304.421  14
   0  -7  13 836.899 161.323  14
   0   7 -14 48.1213 99.6106   3
   0  -7  14 125.913 135.680   6
   7   0 -14 179.192 263.957   1
   0   7 -14-75.1482 101.991  13
   0   7 -14-30.6701 72.4096  12
  -7   0  14-366.917 366.960  17
   0  -7  14-381.569 588.612   2
   0   7 -14 65.6330 115.171  18
   7   0  14-80.9182 165.730   8
   0   7 -14 18.2496 57.2962   4
   7   0  14 27.6602 100.859  16
   0  -7  14 232.049 206.038  17
   0  -7  14-311.938 239.756  16
   0  -7  14 7.80842 35.3577  14
   7   0  14 21.6569 34.6250   6
  -7   0  14 7.44736 130.264   2
   7   0 -14 120.800 174.546  14
   0  -7  15 604.956 314.538   6
   0   7 -15 596.994 280.155   3
   0   7 -15 478.622 280.420  13
   0   7 -15 608.363 225.611  12
   0  -7  15-90.1698 405.850   2
   7   0  15 362.835 291.530   6
   7   0  15 559.881 414.617   8
   0  -7  15 605.135 271.964  17
  -7   0  15 140.145 266.168  17
   0  -7  15 518.967 298.615  16
   7   0  15 680.448 405.561  16
  -7   0  15 1025.98 457.369   2
   0   7 -15 590.309 250.755  18
   0  -7  15 347.258 102.904  14
   0   7 -16-14.0953 95.1175   3
   0   7 -16 38.2935 137.997  13
   0   7 -16-28.6368 54.4019  12
   0   7 -16 148.071 164.203  11
   0  -7  16 86.8370 168.467  17
   0  -7  16-190.969 343.579   2
   0   7 -16 58.8503 147.266  18
   7   0  16 100.632 141.424   8
   0  -7  16 115.065 137.290  16
   7   0  16 36.7826 215.156  16
   0   7 -16 489.592 558.817  15
   7   0  16 20.0628 109.794   6
   0  -7  16 48.5778 145.699   6
   0   7 -17 153.263 223.175   3
   0   7 -17 128.414 231.437  13
   0   7 -17 162.990 229.589  12
   0   7 -17 157.758 184.518  11
   0   7 -17 550.732 335.970  20
   0   7 -17 73.9021 120.737  18
   7   0  17 47.6816 153.648   8
   0  -7  17 58.9111 93.8433  17
   0  -7  17-170.841 225.369  16
   0   7 -17 672.619 640.342   7
   7   0  17 106.629 231.622  16
   0   7 -17 857.254 731.375  15
   7   0  17-310.624 447.186   6
   0  -7  17-18.2558 209.664   2
   0  -7  17 85.7879 187.776   6
   0   7 -18 0.08419 91.5831   3
   0   7 -18 111.083 134.334  12
   0   7 -18 132.734 148.981  18
   0  -7  18-68.6848 92.4748  17
   0   7 -18-78.1652 52.6617   7
   0  -7  18-78.9492 206.855   6
  -7   1   0 1400.63 321.778  12
   7   1   0 2148.35 431.793   1
  -7  -1   0 1121.39 336.192   5
  -7  -1   0 876.309 242.296   2
  -7   1   0 1536.52 330.444   5
   7   1   0 1940.29 346.555  18
   7  -1   0 1640.38 331.280   1
  -7   1   0 1553.63 219.555   2
   7  -1   0 1515.70 304.704   8
  -7  -1   0 1041.72 321.167  19
  -7   1   0 1469.49 303.651  19
  -7  -1   0 990.053 319.307   4
  -7   1   0 1564.33 330.924   4
   7  -1   0 1870.46 432.134  18
  -7  -1   0 1040.61 284.472  17
  -7   1   0 1213.04 372.931  17
   7   1   0 2098.84 397.032   8
   7   1   0 1986.67 396.644   6
   7  -1   0 1771.73 275.974   6
   7   1   0 1893.99 476.853  14
   7  -1   0 1822.93 363.461  14
   7   1  -1 583.981 165.550  13
   7   1  -1 680.091 246.809   1
  -7  -1   1 385.821 119.027  12
  -7   1  -1 513.394 199.248  19
  -7   1  -1 411.228 161.617  12
  -7   1   1 360.139 177.421  12
   7   1  -1 947.183 220.713  11
  -7   1  -1 493.256 108.494   2
  -7  -1  -1 243.356 138.270   5
  -7   1   1 604.038 156.548   2
  -7  -1   1 400.218 195.482   5
   7  -1  -1 527.095 198.128   1
   7  -1   1 147.566 272.135  11
  -7   1  -1 412.408 215.032  17
  -7   1  -1 570.319 197.339   5
  -7   1   1 568.698 195.603  19
   7   1   1 609.649 227.294   8
  -7  -1   1 347.550 168.482  19
   7  -1   1 550.525 190.831   8
   7   1  -1 705.570 218.009  18
  -7  -1   1 313.568 139.788   2
  -7  -1  -1 257.703 125.792  17
  -7   1   1 607.113 205.165   4
   7   1   1 635.199 196.219  18
  -7  -1  -1 233.946 157.623  19
   7  -1   1 657.534 219.089  18
   7  -1  -1 587.954 267.428  18
  -7  -1   1 287.584 167.423   4
   7   1  -1 635.475 205.394   8
  -7  -1   1 344.456 173.959  17
   7  -1  -1 530.876 180.943   8
  -7   1   1 457.861 246.126  17
  -7   1  -1 455.885 179.850   4
  -7   1   1 536.129 192.478   5
  -7  -1   1 410.613 150.083   7
   7  -1   1 539.551 181.441   1
   7   1  -1 681.083 214.503   6
   7  -1   1 541.343 156.832   6
  -7  -1   1 329.253 107.759  15
   7  -1  -1 706.396 177.745   6
  -7   1  -1 90.5080 39.8192   3
   7   1   1 693.078 274.449  14
   7   1   1 606.367 234.386   6
   7   1  -1 722.219 277.384  14
  -7  -1  -1 373.588 201.927   4
   7   1   1 733.458 262.452   1
   7  -1   1 623.770 211.393  14
   7  -1  -1 573.466 210.631  14
   7   1  -2 434.524 112.488  13
   7  -1   2 467.695 158.210   6
  -7   1  -2 312.426 136.286  12
  -7  -1   2 332.468 106.297  12
  -7  -1  -2 240.925 154.231   5
   7   1  -2 645.063 187.137  11
   7   1  -2-311.633 190.254  10
  -7  -1   2 336.725 185.706   5
   7   1  -2 489.154 200.546   1
  -7   1   2 437.820 186.549   5
  -7  -1  -2 168.031 134.424  19
  -7   1  -2 311.188 151.291   5
  -7  -1   2 358.615 172.747  19
  -7   1   2 357.179 149.322  19
   7   1  -2 446.892 164.523   8
   7   1  -2 447.706 184.843  18
   7  -1  -2 378.360 175.947   1
   7   1  -2 582.388 195.126   9
  -7   1  -2 310.575 86.7465   2
   7  -1   2 510.717 196.460  18
   7  -1   2 400.622 165.807   1
   7   1   2 507.590 224.121   8
  -7  -1  -2 249.451 161.167  17
  -7  -1   2 397.900 186.116   4
   7  -1   2 443.884 174.884   8
  -7  -1   2 336.875 166.107  17
  -7   1  -2 366.974 169.639   4
  -7   1  -2 273.984 161.815  17
  -7   1   2 334.061 256.056  17
   7  -1  -2 372.850 153.856   8
   7   1   2 485.064 153.660  16
  -7   1   2 400.472 161.293   4
  -7  -1   2 473.405 191.044   7
   7  -1  -2 335.155 212.044  18
  -7  -1   2 364.205 160.272  15
   7  -1  -2 456.636 147.327   6
   7   1   2 637.352 264.962   1
  -7   1  -2 284.121 142.693  19
  -7  -1  -2 179.306 96.2074   4
  -7   1   2 417.133 145.781   2
   7   1   2 597.293 193.694  18
   7   1   2 400.062 209.550   6
   7   1   2 551.308 261.457  14
   7   1  -2 465.295 215.674  14
   7  -1   2 390.547 166.584  14
   7   1  -2 460.265 151.692   6
   7  -1  -2 478.600 182.282  14
  -7  -1   2 350.717 133.275   2
  -7   1  -2 301.504 149.679   3
   7  -1   3 442.612 161.122   6
  -7   1  -3 124.934 18.6569  10
  -7   1  -3 252.457 138.477  12
   7  -1  -3 379.304 148.280   6
  -7   1  -3 258.129 145.847  19
  -7  -1   3 139.876 75.2104  12
   7   1  -3 539.217 200.255  11
  -7  -1  -3 179.620 215.306  19
  -7   1  -3 284.213 155.805   5
  -7  -1   3 344.616 186.213   5
  -7   1  -3 291.464 99.9190  20
  -7  -1   3 374.737 150.890  19
   7   1  -3 496.235 167.700   9
  -7   1   3 386.660 174.594  19
   7   1  -3 350.035 177.869   1
   7   1   3 425.828 158.191  18
  -7   1  -3 251.064 117.085   3
   7   1  -3 455.515 177.847  18
  -7   1   3 387.155 173.422   5
   7  -1   3 539.255 184.069  18
   7  -1  -3 241.537 194.183  18
  -7  -1   3 324.599 132.080   2
   7  -1   3 384.139 164.210   8
   7   1  -3 407.318 146.595   8
  -7  -1   3 432.408 208.257  17
  -7  -1   3 357.927 173.459   4
  -7   1  -3 359.887 174.603   4
  -7  -1  -3 37.9360 80.8163  17
   7  -1   3 343.857 143.413   1
  -7   1  -3 194.260 120.511  17
  -7   1   3 405.189 301.585  17
   7  -1  -3 264.494 140.786   8
  -7   1  -3 210.284 78.5996   2
   7   1   3 369.974 243.562   1
  -7  -1   3 526.437 188.761   7
  -7  -1  -3 9.56223 165.638   4
  -7   1   3 382.197 173.839   4
   7   1   3 479.834 182.403  16
   7   1  -3 471.063 130.794   6
  -7  -1   3 595.131 213.645  15
   7  -1  -3 330.316 181.534   1
   7   1   3 337.967 194.359   6
   7   1   3 334.593 197.205  14
  -7   1   3 449.202 169.668   2
   7   1  -3 519.079 226.712  14
   7  -1   3 410.762 172.480  14
   7   1   3 367.015 192.695   8
   7  -1  -3 439.075 190.875  14
  -7   1  -4-20.6368 13.2729   4
   7   1  -4-21.2187 12.2275   8
  -7   1  -4 30.7962 82.5429   3
  -7   1  -4 66.9105 123.250  12
   7  -1   4 31.3671 69.4384   1
   7  -1  -4 18.6333 68.2122   1
   7   1  -4-56.2809 86.0088  11
  -7   1  -4-17.1160 31.5709   5
  -7  -1   4-4.73398 55.1899   5
  -7   1  -4 19.5552 37.4133  20
  -7  -1  -4 59.4973 161.389  19
  -7  -1   4-8.55263 25.2616  19
  -7   1   4-9.88713 39.5259  19
   7   1  -4 11.5936 72.2922   9
   7   1   4 34.0136 84.3136  18
   7   1  -4 2.26901 38.6620  18
   7  -1   4-17.3248 33.5097  18
   7   1  -4 33.9556 71.6362   1
   7  -1  -4-83.4273 186.349  18
   7   1   4 166.826 165.433   8
   7  -1  -4 6.96045 47.2425   8
   7   1   4 75.5238 103.234   1
   7  -1   4-21.8505 24.7812   8
  -7  -1   4-15.9534 30.6261   2
  -7  -1   4 80.4094 104.843  17
  -7   1  -4-2.94511 30.7936  17
  -7  -1   4 16.6462 51.4371   4
  -7   1   4 39.8289 20.4749  17
   7  -1   4-7.41235 66.6833  16
  -7  -1   4 11.4573 18.2185  16
  -7  -1  -4 7.77121 56.0020  17
  -7   1   4-43.0634 90.4616   4
   7   1   4 72.1091 114.731  16
  -7   1  -4 84.2286 138.337  15
  -7   1  -4-4.01364 55.6259  19
   7   1   4 7.49596 59.2530   6
   7   1   4-3.37178 107.034  14
   7  -1   4 37.2074 73.3291  14
   7   1  -4 53.3419 56.7107  14
  -7   1   4 16.5319 54.8569   2
  -7   1   4 42.4863 73.3350   5
   7  -1  -4 32.6982 68.7912  14
   7  -1   4-3.83740 45.2095   6
   7   1  -4 15.3776 19.7707   6
  -7   1   5 456.114 216.531   5
  -7   1  -5 165.097 116.961   5
   7   1  -5 468.708 201.639  11
  -7   1  -5 278.333 175.409   4
  -7   1   5 475.639 218.711   2
  -7  -1   5 328.804 176.606   5
  -7   1  -5 126.084 107.973  20
  -7  -1  -5 0.24066 158.744  19
  -7  -1   5 279.533 170.765  17
  -7   1  -5 287.068 171.793  19
  -7  -1   5 286.209 120.006  19
  -7   1   5 371.261 161.502  19
   7   1  -5 128.622 99.5048   9
   7  -1   5 544.801 143.629  18
   7   1   5 318.400 227.034   1
   7   1  -5 450.016 189.814  18
   7   1   5 293.557 196.782   8
   7  -1  -5 184.950 152.026   1
  -7  -1  -5-23.2626 110.420  17
   7  -1   5 509.996 201.404   8
  -7   1  -5 131.833 86.2524  17
   7   1  -5 391.025 148.014   8
  -7  -1   5 302.795 152.454   4
  -7  -1   5 265.143 122.079   2
  -7   1   5 362.571 239.534  17
   7   1  -5 336.006 182.145   1
   7  -1   5 486.961 205.204  16
  -7  -1   5 336.404 94.9285  16
  -7   1  -5 514.501 283.340   7
  -7   1   5 277.664 80.3072   4
   7   1   5 345.743 205.993  16
   7   1  -5 276.335 74.1996   6
  -7   1  -5 414.287 285.840  15
   7   1   5 254.791 197.270   6
   7   1   5 342.735 234.366  14
   7  -1   5 469.970 191.430  14
   7   1  -5 376.649 179.784  14
   7  -1   5 424.937 181.382   6
   7  -1  -5 251.741 157.289  14
   7  -1   5 437.428 206.117   1
  -7   1  -6 63.7005 50.0694  13
  -7   1  -6 89.6236 98.6837   5
   7   1  -6 335.174 188.204  11
  -7   1  -6 81.7337 46.4257  20
   7   1   6-36.5359 164.571   1
  -7  -1   6 242.177 165.005   5
  -7   1  -6 186.867 124.427  19
  -7   1   6 364.734 192.485   5
  -7   1   6 195.023 105.436  19
   7   1  -6 479.223 282.178   9
   7  -1   6 289.669 92.7380  18
   7   1  -6 275.219 144.529  18
   7  -1   6 234.165 146.006   8
   7   1   6 157.409 188.501   8
  -7   1  -6 132.920 91.0215   4
  -7   1  -6 112.408 66.9281  17
  -7  -1   6 180.110 136.782  17
  -7   1   6 204.537 174.431  17
   7   1  -6 164.626 68.0231   8
  -7  -1   6 308.673 158.585   4
  -7  -1   6 184.338 104.191   2
   7  -1   6 383.501 165.362  16
  -7   1  -6 113.605 132.384   7
  -7  -1   6 237.195 104.851  19
   7   1   6 168.692 183.918  16
  -7  -1   6 296.429 101.031  16
   7  -1   6 299.458 174.148   1
   7   1  -6 175.300 59.5602   6
  -7   1  -6 188.220 163.615  15
   7   1  -6 355.427 165.329   1
   7  -1  -6 231.925 194.424   1
   7   1   6 125.698 136.579   6
   7   1   6 237.075 199.248  14
   7  -1   6 192.617 113.946  14
   7   1  -6 339.288 182.929  14
   7  -1   6 358.964 199.753   6
  -7   1   6 178.965 145.766   2
   7  -1  -6 258.299 175.724  14
   7  -1  -7 177.713 162.859   1
   7   1  -7 188.119 93.5870  11
  -7   1  -7 93.4930 91.6534  20
   7  -1   7 353.526 242.444   1
  -7  -1   7 385.190 179.405   5
   7   1  -7 125.102 23.1676   8
   7   1  -7 284.061 147.982  18
  -7   1  -7 176.321 155.938  19
  -7   1   7 297.584 109.916   5
   7   1  -7-297.233 386.456   9
   7  -1   7 356.782 85.4738  18
   7   1   7 751.180 368.773   8
  -7   1  -7 70.9306 104.480   4
   7  -1   7 403.832 204.615   8
  -7  -1   7 348.104 160.748   4
  -7  -1   7 368.402 178.899  17
  -7   1   7 504.132 298.179  17
  -7  -1   7 225.924 148.346   2
  -7   1  -7 205.400 136.265   7
   7  -1   7 480.412 246.115  16
  -7  -1   7 322.493 129.437  16
   7   1   7 226.365 137.901  16
  -7   1  -7 227.805 157.092  15
  -7  -1   7 305.338 137.932  19
   7   1   7 272.279 226.802   6
   7   1   7 310.780 259.264  14
   7  -1   7 404.942 213.076  14
   7   1  -7 339.642 165.560  14
   7  -1   7 389.552 184.022   6
  -7   1  -7 83.5301 33.3871  17
  -7   1   7 558.031 254.406   2
   7   1  -7 224.319 150.506   1
   7  -1  -7 222.558 162.615  14
  -1   7  -8-136.723 398.278  13
   1   7  -8 439.763 259.849  13
  -7  -1   8 351.596 176.997   5
  -7   1  -8 323.390 220.409  19
   7   1  -8 356.516 206.210   1
   1  -7   8 71.8745 117.500   6
  -1  -7   8-11.7365 85.4270   6
   7  -1   8 222.185 329.134   1
   7   1  -8 307.453 102.787  11
  -7   1  -8-37.0444 173.159  20
  -7   1   8 269.861 117.767   5
  -7  -1   8 503.376 196.673  19
   7   1  -8-630.135 601.795   9
   7  -1  -8 140.789 175.452   1
  -7   1  -8 27.8733 143.102   4
   7   1   8 487.119 321.953   8
   7   1  -8 324.723 184.119  18
   7  -1   8 407.849 204.226   8
  -7  -1   8 489.954 274.347  17
  -7   1   8 341.133 120.948  17
  -7  -1   8 385.015 172.393   4
  -7   1  -8-115.202 261.355   7
   7  -1   8 443.184 246.084  16
  -7  -1   8 392.101 189.571   2
  -7  -1   8 309.995 153.463  16
   7   1   8 348.228 267.542  16
  -7   1  -8-87.8499 257.996  15
   7   1   8 381.324 274.774   6
   7   1   8 506.356 316.449  14
  -1   7  -8 294.063 164.098   3
   7  -1   8 499.254 274.748  14
   7  -1   8 574.979 277.144   6
   7   1  -8 339.422 177.237  14
   7  -1  -8 303.586 184.754  14
  -7   1   8 319.501 212.172   2
  -1   7  -9 1266.87 509.952  13
  -7   1  -9 131.350 110.423  19
  -1   7  -9 1329.13 333.404  12
   1  -7   9 281.155 171.410   6
  -1  -7   9 238.411 169.025   6
  -7  -1   9 1429.35 374.527   5
  -7  -1   9 1123.08 331.567   2
   7   1  -9 680.214 258.117  11
   7   1  -9 765.053 291.308   1
   7  -1   9-99.8090 246.678   1
  -7   1  -9-174.794 363.719  20
   1   7  -9 520.498 90.0314  18
  -7  -1   9 1185.69 298.921   4
   7   1   9 741.383 369.048   8
   7   1  -9 694.999 294.167  18
  -7  -1   9 1298.71 439.900  17
  -1  -7   9-195.479 282.353  17
  -7   1   9 1518.77 479.903   5
  -7   1   9 1139.52 371.794  17
   7  -1   9 1637.24 429.231  16
  -7  -1   9 1394.27 361.756  16
   7  -1   9 1233.88 418.293   8
   7  -1   9 1529.91 436.166   6
   7  -1  -9 692.120 386.203   1
   1   7  -9 1336.78 365.908   3
  -1   7  -9 1376.47 383.616   3
   7   1   9 817.331 380.677  16
  -7   1  -9-28.5197 378.060  15
   7  -1   9 1359.53 417.618  14
   7   1  -9 778.076 280.625  14
   7   1   9 804.824 347.948   6
   7   1   9 872.917 359.907  14
  -7  -1   9 1109.86 312.036  19
   7  -1  -9 806.664 316.273  14
  -7   1   9 1290.75 449.729   2
   1   7  -9 1301.15 492.556  13
  -1   7 -10 844.087 418.115  13
   1   7 -10 780.599 343.245  13
   7  -1 -10 115.918 241.002   1
   1  -7  10 102.548 108.288   6
  -1  -7  10 250.939 150.472   6
  -1   7 -10 697.912 234.129  12
   7   1 -10 412.488 206.821  11
  -7  -1  10 913.703 317.498   5
   7   1 -10 516.283 252.541   1
  -1   7 -10 366.755 129.591  18
   7   1  10 541.464 370.429   8
   1   7 -10 500.819 231.155  18
   7   1 -10 419.072 224.462  18
   7  -1  10 828.016 339.357   8
  -1  -7  10 226.147 280.981  17
   1  -7  10-137.994 276.071  17
  -7  -1  10 606.622 270.187  17
  -7   1 -10 28.7540 79.5401  19
  -7  -1  10 596.057 211.742   4
   7  -1  10 937.748 362.566  16
  -7  -1  10 689.717 285.675  16
  -7  -1  10 630.402 258.220   2
   7   1  10 511.690 298.799  16
   1   7 -10 771.513 280.212   3
   7   1  10 354.396 207.031   6
   7  -1  10 782.084 357.022  14
   7  -1  10 934.255 350.485   6
  -1   7 -10 668.538 268.491   3
   7   1 -10 447.056 198.004  14
  -7   1  10 828.827 354.768   2
  -1   7 -11 598.818 326.283  13
   1   7 -11 628.474 326.749  13
   1  -7  11 195.300 156.963   6
  -1  -7  11 285.561 171.038   6
  -1   7 -11 627.811 230.898  12
   1   7 -11 720.595 245.747  12
   7  -1  11 671.277 142.173   2
   7   1 -11 346.706 204.152  11
  -7  -1  11 844.217 311.124   5
  -7  -1  11 760.975 255.252   4
  -7   1 -11 173.622 201.381  19
  -1   7 -11 775.995 253.773  18
   1   7 -11 579.653 276.433  18
   7   1  11 487.125 293.569   8
   7   1 -11 384.615 234.237   1
   7   1 -11 272.717 171.070  18
   7  -1  11 812.636 369.967   8
   1  -7  11 156.506 247.759  17
  -1  -7  11 50.8624 126.780  17
  -7  -1  11 743.259 350.008  17
   7  -1  11 918.493 377.823  16
  -7  -1  11 736.923 357.930  16
  -7  -1  11 636.961 276.787   2
   7   1  11 439.102 313.314  16
   7   1  11 425.684 259.377   6
   7  -1  11 785.698 349.164  14
   7  -1  11 912.551 366.846   6
   1   7 -11 698.370 266.149   3
   7   1 -11 392.481 189.589  14
  -1   7 -11 615.184 246.959   3
  -1   7 -12 1150.64 514.396  13
   1   7 -12 1226.57 442.256  13
   1  -7  12 644.578 293.832   6
  -1  -7  12 575.193 255.935   6
  -1   7 -12 1127.97 314.734  12
   1   7 -12 1376.92 342.977  12
  -7  -1  12 1460.90 441.809   5
  -7  -1  12 1320.32 418.836   2
   7  -1  12 1357.16 235.249   2
   7   1 -12 338.388 208.103  11
  -7  -1  12 1509.33 349.920   4
  -1   7 -12 1237.02 218.512   4
  -1   7 -12 1478.95 423.377  18
   1   7 -12 1582.53 453.991  18
   7   1  12 975.454 540.192   8
   7   1 -12 477.932 253.108  18
   7  -1  12 1210.74 476.276   8
   1  -7  12 585.481 266.878  17
   7   1 -12 739.584 347.628   1
  -7  -1  12 1345.68 474.408  17
   7  -1  12 1620.68 530.512  16
  -1  -7  12 544.389 294.425  17
   7  -1  12 1611.44 497.893   6
  -7  -1  12 1585.19 496.674  16
   1   7 -12 1243.81 358.759   3
  -1   7 -12 1369.27 398.139   3
   7   1  12 404.381 219.736   6
   7  -1  12 1047.85 415.735  14
   7   1 -12 827.561 271.988  14
  -1  -7  13 171.234 146.454   6
   1  -7  13 247.185 162.800   6
  -1   7 -13 438.239 265.554  13
   1   7 -13 443.865 313.124  13
  -1   7 -13 278.284 149.700  12
   1   7 -13 412.180 180.298  12
  -1  -7  13-307.234 531.688   2
   7   1 -13 86.4764 17.2644  11
  -7  -1  13 547.672 299.933   5
  -7   1 -13-54.6236 106.428  19
   7   1  13 475.157 423.483   8
   1  -7  13 364.289 235.363  17
  -1   7 -13 440.569 204.149  18
   1   7 -13 363.805 236.988  18
   7   1 -13 110.108 50.9010  18
   7  -1  13 546.141 317.970   8
  -1  -7  13 173.048 159.947  17
  -7  -1  13 311.324 216.076  17
   1  -7  13 2.09555 241.941  16
   7   1 -13 302.340 230.085   1
   7  -1  13 485.494 275.220  16
  -7  -1  13 273.695 73.4515   4
  -7  -1  13 376.535 269.203  16
  -7  -1  13 316.715 237.570   2
   7   1  13-48.5200 282.174   6
   7  -1  13 530.277 357.792  14
  -1   7 -13 458.928 143.021   4
   7  -1  13 284.621 169.920   6
  -1  -7  13-56.4836 307.674  16
   7  -1  13 483.593 152.338   2
   7   1 -13 178.753 120.748  14
   1   7 -13 362.416 214.900   3
   1  -7  13 264.651 133.070  14
  -1   7 -13 487.180 234.064   3
  -1  -7  14 937.487 383.555   6
   1  -7  14 939.221 356.518   6
  -1   7 -14 1124.07 457.569  13
   1   7 -14 1133.79 417.569  13
  -1   7 -14 1376.76 356.634  12
   1   7 -14 1420.21 350.904  12
  -7  -1  14 2068.30 560.262   5
  -7  -1  14 1698.36 517.219   2
   7  -1  14 1648.21 310.446   2
  -1  -7  14-18.5396 338.017   2
   7   1 -14 336.310 270.648  11
  -7   1 -14 136.942 215.114  19
  -1   7 -14 2070.39 391.485   4
  -1   7 -14 1381.60 344.182  18
   7   1 -14 455.976 297.878  18
   7  -1  14 1497.97 510.731   8
  -7  -1  14 2205.50 671.974  17
   1  -7  14 1120.77 374.008  17
  -1  -7  14 1116.52 426.721  17
  -1  -7  14 847.920 384.193  16
   7  -1  14 1777.96 582.798  16
  -7  -1  14 1995.40 707.042  16
   7   1 -14 556.796 312.105   1
   1   7 -14 1507.18 422.411   3
  -1   7 -14 1591.67 445.347   3
   1  -7  14 1003.83 198.946  14
   7  -1  14 1047.78 473.266  14
   7  -1  14 1318.80 496.504   6
   1  -7  14 643.420 340.668  16
   1   7 -14 1354.48 411.753  18
   7   1 -14 462.558 208.553  14
  -1  -7  14 696.413 177.032  14
   1  -7  15 532.485 319.172   6
   1   7 -15 443.083 221.102   3
  -1   7 -15 372.206 233.978   3
  -1   7 -15 196.264 147.885  13
   1   7 -15 316.521 223.857  13
  -1   7 -15 394.226 196.745  12
   1   7 -15 481.982 194.198  12
  -1  -7  15 232.339 161.260  17
   1  -7  15-482.288 704.148   2
  -1  -7  15 132.153 212.042   2
  -7   1 -15 160.019 89.4961  19
   1   7 -15 389.175 214.455  18
  -1   7 -15 436.481 182.131  18
   7  -1  15 344.650 254.273   8
  -7  -1  15 467.461 279.221  17
  -1  -7  15 235.232 189.680  16
   7  -1  15 254.101 270.628  16
  -7  -1  15 453.607 341.219  16
  -7  -1  15 292.372 173.680   2
   7   1 -15 118.294 251.095  11
   7  -1  15 283.347 192.880   6
   7   1 -15 176.984 201.250   1
   1  -7  15 292.815 167.062  17
  -7  -1  15 642.951 331.772   5
   7  -1  15 487.492 171.322   2
   1  -7  15 293.832 116.095  14
   1  -7  15 203.446 267.680  16
   7   1 -15 164.881 128.694  14
  -1  -7  15 234.394 212.567   6
   1   7 -16 262.756 207.747   3
  -1   7 -16 128.854 137.169   3
  -1   7 -16-38.3593 121.823  13
   1   7 -16 240.754 269.921  13
  -1   7 -16 146.027 161.553  12
   1   7 -16 271.289 189.452  12
   1   7 -16 129.737 150.852  11
  -1   7 -16 405.635 212.570  11
   1   7 -16 153.539 147.330  18
   7   1 -16 29.7654 44.4801  11
   1  -7  16-526.553 613.140   2
  -7   1 -16-178.294 280.677  19
  -1  -7  16 121.768 91.2641   2
   1  -7  16 388.806 308.851   6
  -1   7 -16 278.210 184.391  18
   7  -1  16 166.582 135.941   8
  -7  -1  16 313.459 249.077   5
  -1  -7  16 24.3342 135.501  17
   1  -7  16 102.322 75.1787  17
  -7  -1  16 269.567 247.056  17
  -1  -7  16 138.832 162.546  16
   1  -7  16 276.256 215.763  16
   7  -1  16 277.067 204.693  16
   1   7 -16 495.749 647.633   7
  -7  -1  16 546.710 414.744  16
  -7  -1  16 242.074 207.497   2
   1   7 -16 600.697 674.062  15
   7  -1  16 35.5752 70.8684   6
   7  -1  16 233.272 142.015   2
   7   1 -16-15.2415 43.9377  14
   7   1 -16 242.656 243.332   1
  -1  -7  16-10.1265 129.152   6
   7   1 -17 219.494 217.879   1
   1   7 -17 472.725 274.900   3
  -1   7 -17 447.555 275.839   3
  -1   7 -17 506.024 329.948  13
   1   7 -17 342.239 259.571  13
  -1   7 -17 504.283 265.430  12
   1   7 -17 448.970 227.258  12
   1   7 -17 604.911 289.748  11
  -1   7 -17 506.372 228.979  11
  -1  -7  17 318.181 297.838   2
  -1  -7  17 262.916 106.078  17
   1  -7  17 29.9350 293.822   2
  -7   1 -17 55.7036 189.403  19
  -7  -1  17 777.621 361.312   5
  -1   7 -17 621.462 353.405  20
   1   7 -17 363.805 215.025  18
  -1   7 -17 448.214 217.707  18
   7  -1  17 544.014 309.716   8
   1  -7  17 380.946 215.681  17
  -7  -1  17 527.813 326.183  17
  -1  -7  17 172.272 165.403  16
   1  -7  17 262.558 264.613  16
   1   7 -17 920.192 686.945   7
  -1   7 -17 1730.01 903.263   7
   7  -1  17 480.220 356.682  16
  -7  -1  17 539.924 374.530  16
   1   7 -17 850.044 746.301  15
  -7  -1  17 461.103 296.407   2
  -1   7 -17 1720.39 906.064  15
   7  -1  17 500.820 256.430   6
   7  -1  17 583.104 207.297   2
  -1  -7  17 403.244 260.851   6
   7   1 -17 147.385 132.258  14
   1   7 -17 538.771 390.206  20
   1  -7  17 319.394 298.685   6
   7   2   0 2443.59 538.051   1
  -7   2   0 1598.94 434.070  12
  -7   2   0 2058.74 388.390   5
  -7  -2   0 434.771 224.760  19
   7   2   0 2304.07 475.809   8
   7  -2   0 1790.94 372.102   1
  -7   2   0 2229.56 366.987   2
  -7   2   0 1867.47 360.901  19
   7   2   0 2060.73 420.427  18
  -7  -2   0 229.956 86.3813   4
   7  -2   0 1489.42 328.751   8
  -7  -2   0 504.956 232.294  17
  -7   2   0 1802.65 363.071   4
   7  -2   0 1911.26 348.167   6
   7   2   0-27.3927 121.156   6
   7   2   0 1772.86 513.248  14
   7  -2   0 1929.18 384.367  14
   7   2  -1 1841.87 393.396   8
   7   2   1 1913.46 511.930   1
   7   2  -1 1991.27 480.130   1
  -7   2  -1 1311.83 336.379  12
   7  -2   1 1304.33 302.641   8
  -7   2  -1 1609.65 337.586   5
  -7   2   1 1588.14 359.691   5
  -7  -2   1 691.628 293.722   5
   7  -2   1 1462.28 320.697   1
   7  -2  -1 1349.77 344.747   1
  -7   2  -1 1784.72 261.347   2
  -7   2   1 2028.76 405.100   2
  -7  -2   1 406.917 144.497   2
  -7   2  -1 1550.68 327.947  19
  -7   2   1 1614.22 341.039  19
  -7   2   1 1510.68 335.089   4
  -7  -2   1 846.534 282.323  19
   7   2  -1 1964.76 396.951  18
   7   2   1 1695.92 453.055   8
   7  -2  -1 1104.16 294.847   8
  -7  -2   1 582.311 237.994   4
  -7  -2  -1 117.549 131.367  19
  -7   2  -1 1522.91 325.947   4
  -7  -2  -1 255.499 172.205  17
  -7  -2   1 750.094 273.205  17
   7   2   1 1793.18 401.944  18
   7  -2   1 1789.05 322.802   6
   7  -2  -1 1549.77 350.652   6
   7   2  -1-56.2777 122.682   6
   7   2   1-29.7041 116.283   6
   7   2   1 1617.03 525.523  14
   7   2  -1 1530.14 467.215  14
   7  -2   1 1602.54 343.983  14
   7  -2  -1 1499.03 352.477  14
   7   2   2 1193.87 411.524   1
   7   2  -2 1440.24 370.601   1
  -7   2  -2 1099.23 279.222  12
   7  -2  -2 1059.38 330.016   6
  -7   2  -2 897.063 243.205   5
  -7   2   2 1259.71 337.044   5
   7  -2   2 929.534 238.502   1
  -7  -2   2 564.423 256.468   5
   7  -2  -2 949.751 308.545   1
  -7   2  -2 1018.04 152.129   2
  -7  -2   2 690.619 257.330  17
  -7   2  -2 968.864 250.016  19
  -7   2   2 1110.30 292.733  19
  -7  -2  -2 4.03994 191.914  19
  -7  -2   2 728.618 261.263  19
   7   2  -2 1433.09 327.441   8
   7   2   2 1177.26 313.551  18
   7   2  -2 1417.48 329.884  18
  -7   2  -2 1042.54 272.996   4
  -7   2   2 1017.50 279.405   4
   7   2   2 1030.70 373.026   8
  -7  -2   2 595.156 272.778   4
  -7  -2  -2 55.8185 107.445  17
   7  -2  -2 620.600 245.443   8
  -7  -2   2 632.538 212.562   2
   7  -2   2 921.178 242.551   8
   7  -2   2 1138.00 244.003   6
   7   2  -2-150.778 129.381   6
   7   2   2-35.8736 170.389   6
   7   2  -2 1202.76 399.224  14
   7  -2   2 1270.49 304.008  14
   7  -2  -2 1036.55 303.496  14
   7   2   2 951.161 417.998  14
  -7   2  -2 514.595 251.535   3
   7   2  -2 1081.47 286.672  13
   7  -2   3 49.0601 60.3521   6
   7   2  -3 29.6749 37.5907  13
   7   2  -3 4.34175 19.4130   1
  -7  -2   3-25.9478 33.5711  12
  -7   2  -3 38.7259 74.5537  12
  -7  -2   3 3.43337 88.0480   5
   7   2  -3 15.1567 10.2719  20
  -7   2  -3 17.3070 46.2782   5
  -7  -2   3-4.25885 39.7179  19
  -7   2  -3 21.4954 49.7276  19
  -7   2   3 15.3465 46.7411   5
  -7   2   3 18.7146 31.4447  19
  -7  -2   3 38.8235 67.1779   2
   7   2   3-12.6307 86.3984   1
   7  -2  -3 32.7424 54.7313   1
   7   2  -3 57.8144 79.1661  18
   7   2   3 40.1344 113.701   8
  -7  -2   3 60.2540 93.0387   4
   7   2  -3 47.7508 59.5501   8
  -7  -2   3 116.775 138.776  17
   7  -2   3 18.5919 46.1999   8
  -7   2  -3 36.1364 55.4726   4
  -7   2  -3 24.3699 26.1037   2
   7  -2  -3 77.8328 89.8146  14
   7   2   3-97.9060 181.044   6
   7  -2   3 3.91157 2.24286   1
   7   2   3 113.407 175.632  14
   7   2  -3 53.9037 103.942  14
   7  -2   3 71.3509 89.0297  14
  -7   2  -3 12.9339 33.6409   3
   7   2  -4 637.329 156.921  13
  -7   2  -4 473.866 201.031   3
   7  -2   4 562.880 184.383   6
  -7   2  -4 474.108 190.633  19
  -7   2  -4 388.267 145.069  12
   7   2  -4 678.227 267.400   1
   7   2  -4 810.839 241.474  11
  -7  -2   4 530.153 239.030   5
  -7   2  -4 524.148 190.757   5
   7   2  -4 241.188 102.604  20
  -7   2   4 866.324 271.401  19
  -7  -2   4 476.727 185.702  19
   7  -2   4 602.881 181.849   1
  -7   2   4 493.599 201.955   5
   7   2   4 252.530 160.711   1
   7   2  -4 789.661 243.918  18
  -7  -2   4 528.395 185.694   2
   7   2   4 389.876 219.918   8
  -7  -2   4 398.165 173.212  17
   7  -2   4 572.899 194.995   8
  -7   2  -4 516.412 202.195   4
  -7  -2   4 476.787 205.627   4
   7   2   4-89.2196 220.327   6
   7  -2   4 659.445 220.539  14
   7   2  -4 815.450 207.415   8
   7   2   4 412.717 240.471  14
   7  -2  -4 627.955 294.635   1
   7   2  -4 692.292 285.484  14
   7   2  -4 1183.27 280.221  10
   7  -2  -4 498.001 232.910  14
   7  -2   5 140.956 106.332   6
   7   2  -5 223.516 124.430   8
  -7   2  -5 124.377 86.9648   3
   7   2  -5 269.410 125.517  13
  -7   2  -5 83.3507 72.2326  12
   7   2  -5 208.964 101.424  11
  -7  -2   5 122.942 137.925   5
   7  -2  -5 169.395 196.200   1
   7   2  -5 134.848 141.005   1
  -7   2  -5 122.458 102.347   5
   7   2  -5 504.868 204.755  10
   7   2  -5-13.5953 112.326  20
   7  -2   5 276.992 136.588   1
  -7  -2   5 192.994 125.247  19
  -7   2  -5 147.259 99.8450  19
   7   2  -5 247.019 138.669  18
   7   2   5 168.805 195.727   8
  -7  -2   5 123.799 95.9594   2
  -7  -2   5 166.413 86.9675   4
   7  -2   5 146.411 112.254   8
  -7  -2   5 85.9726 110.925  17
  -7   2  -5 91.7562 76.8111   4
   7  -2   5 141.496 67.1807  16
   7   2   5-108.492 227.795   6
   7   2   5 99.9064 121.477  14
   7   2  -5 198.258 167.697  14
   7  -2   5 146.687 103.021  14
   7  -2  -5 39.3043 104.728  14
  -7   2  -6-49.5975 80.1614  13
  -7   2  -6 785.027 268.193  12
  -7   2  -6 625.130 229.380   3
   7  -2   6 1253.77 285.304   1
   7   2  -6 1034.33 326.441   1
  -7  -2   6 895.309 320.864   5
  -7  -2   6 821.914 245.697   2
   7   2  -6 1462.47 349.992  11
  -7   2  -6 693.239 239.753   5
  -7  -2   6 912.786 238.312  19
  -7   2  -6 707.326 195.361  20
   7   2  -6 1026.20 333.270  10
   7   2  -6 1881.14 450.043   9
  -7   2  -6 966.615 231.262  10
  -7   2  -6 521.776 218.979  19
  -7   2  -6 785.407 177.476   9
   7   2  -6 1126.00 317.492  18
   7  -2   6 921.690 272.898   8
   7   2  -6 1067.76 228.887   8
   7   2   6 646.529 333.406   8
  -7  -2   6 833.635 265.569   4
  -7   2  -6 755.407 261.738   4
  -7  -2   6 590.860 244.536  17
  -7  -2   6 921.236 192.090  16
   7  -2   6 1349.58 398.077  16
   7  -2   6 1209.57 297.292   6
   7   2  -6 1140.03 212.653   3
   7  -2  -6 659.667 400.863   1
   7  -2   6 1011.57 275.789  14
   7   2  -6 990.688 336.271  14
   2   7  -7 563.816 256.087  13
   7  -2   7 1101.47 329.262   1
  -7   2  -7 546.629 256.410  12
  -7   2  -7 639.636 274.573   3
   7   2  -7 948.585 269.236  11
  -7   2  -7 573.471 247.569   5
  -7  -2   7 721.777 278.323   5
  -7   2  -7 414.042 168.965  20
  -7  -2   7 653.452 223.608   4
  -7   2  -7 550.333 221.966  10
  -7   2  -7 475.239 223.678  19
   7   2  -7 1267.60 398.386   9
  -7   2  -7 367.447 19.0075   9
   7   2  -7 778.243 306.522   1
   7   2  -7 847.273 235.442   8
   7   2  -7 918.109 290.740  18
  -7   2  -7 567.686 234.328   4
   7  -2   7 977.498 288.403   8
  -7  -2   7 586.492 225.478   2
  -7  -2   7 681.848 308.805  17
   7  -2   7 1155.53 361.405  16
  -7  -2   7 733.583 194.890  16
   7   2   7 372.513 113.045   8
   7  -2   7 1009.28 301.406   6
  -7   2  -7 890.843 392.466  15
   7   2  -7 849.330 141.008   3
   7   2  -7 686.733 313.896  14
   7  -2   7 866.287 252.168  14
   7   2  -7 596.549 262.567  10
   7  -2   8 3151.19 700.631   1
  -7   2  -8 1155.61 295.481  13
   2  -7   8 384.015 224.412   6
  -7  -2   8 2814.26 574.444   5
   7   2  -8 1827.52 448.723   1
  -7  -2   8 1966.14 438.344   2
   7   2  -8 2682.34 564.001  11
  -7   2  -8 1336.64 394.493   5
  -7  -2   8 2817.55 443.950  19
  -7   2  -8 1539.99 390.823  20
  -7   2  -8 2346.09 513.487  10
  -7   2  -8 1573.96 407.245  19
   7   2  -8 3627.35 755.936   9
   7  -2   8 2565.18 487.646   8
  -7  -2   8 2636.85 489.867   4
   7   2  -8 2339.24 489.142  18
   7   2  -8 1954.31 414.926   8
  -7  -2   8 3825.73 778.627  17
  -7   2  -8 1168.69 385.116   4
   7   2  -8 1893.77 618.207  10
   7  -2   8 2562.55 527.638  16
  -7  -2   8 2233.19 360.376  16
  -7   2  -8 2077.63 572.484   7
  -2   7  -8 2338.41 513.862   3
   7  -2   8 2652.51 512.917   6
  -7   2  -8 1832.80 603.976  15
   7   2  -8 1403.75 382.885  14
   7  -2   8 2853.46 509.557  14
   2   7  -8 2533.30 671.895  13
   7   2  -9-38.3778 66.6047   9
  -2   7  -9-315.119 416.152  13
   2   7  -9-40.1953 137.584  13
  -7   2  -9 52.5786 103.087  13
   2  -7   9-1.96993 58.2021   6
  -2  -7   9-68.2645 163.285   6
   7   2  -9 26.2234 105.528  10
  -2   7  -9-39.9458 85.1768  12
   7   2  -9-53.3839 80.5485  11
  -7   2  -9 41.2240 102.847  20
   2   7  -9-240.182 279.818  18
  -7  -2   9-31.4362 49.6097  19
   7   2  -9 39.5075 40.3743  18
   7  -2   9-0.16284 104.900   1
  -2  -7   9-36.2649 41.3834  17
   7  -2   9-45.3238 95.2151   8
  -7  -2   9 7.19453 55.5153  17
  -7  -2   9 14.3212 54.5281   4
   7   2  -9-48.6001 107.316   1
  -7  -2   9-16.1533 33.7840  16
  -7  -2   9-16.0222 33.9375   2
   7  -2   9 35.8454 79.1468  16
  -7   2  -9 58.4195 146.380   7
  -7   2  -9 8.82215 135.103  15
   2   7  -9-62.6080 145.137   3
  -7   2  -9-20.0207 107.951   4
   7  -2   9 41.9439 64.7840  14
  -2   7  -9-83.5539 121.006   3
   7   2  -9-53.3376 65.6194  14
  -7   2  -9 0.94032 65.2496  19
   7  -2   9-86.2356 135.467   6
  -7  -2   9-54.4355 112.254   5
  -7   2  -9 7.80628 95.0732  10
   2   7 -10 2798.31 656.421  13
   2  -7  10 902.703 342.048   6
  -2  -7  10 590.720 250.353   6
  -2   7 -10 2620.25 479.608  12
  -7  -2  10 2427.31 517.957   5
   7   2 -10 1821.38 466.400   1
   7   2 -10 2222.61 507.475  11
  -7  -2  10 2287.86 481.229   2
  -7  -2  10 1943.94 408.781  19
  -7   2 -10 632.147 259.833  20
   7  -2  10 365.240 136.216   1
  -7   2 -10 908.784 304.903  19
   7   2 -10 1811.56 551.996   9
   2   7 -10 2381.78 612.041  18
  -7  -2  10 2448.09 420.798   4
   7   2 -10 1854.71 480.000  18
   7  -2  10 2884.06 567.481   8
  -7   2 -10 655.810 299.997   4
   7   2 -10 882.281 430.308  10
  -7  -2  10 2341.32 577.700  17
  -2  -7  10 236.473 237.510  17
   7  -2  10 3434.42 673.492  16
  -7  -2  10 2570.62 463.328  16
  -7   2 -10 1281.08 451.851   7
   7  -2  10 3182.26 602.445   6
   2   7 -10 2860.33 538.437   3
  -2   7 -10 2803.03 571.648   3
  -7   2 -10 1591.17 556.051  15
   7  -2  10 2889.24 573.825  14
   7   2 -10 1855.47 448.357  14
  -7   2 -10 741.914 319.384  10
  -2   7 -10 2470.87 831.521  13
  -2   7 -11 505.556 404.256  13
   2   7 -11 875.972 353.963  13
   7  -2  11 866.532 314.424   8
  -2  -7  11 353.243 185.823   6
   2  -7  11 219.613 166.454   6
  -7   2 -11 221.834 188.051  20
   7  -2  11 628.398 167.034   2
  -2   7 -11 721.040 251.408  12
   7   2 -11 697.661 303.170  11
  -7  -2  11 847.811 304.413   5
   2  -7  11 645.924 358.263  17
   7   2 -11 211.236 357.324  10
   2   7 -11 804.012 381.293  18
   7   2 -11 225.692 154.620   9
  -7  -2  11 1009.58 264.892   4
  -2   7 -11 1064.54 357.315  18
  -7   2 -11 280.050 167.158  19
   7   2 -11 622.416 266.550  18
  -2  -7  11 382.103 245.843  17
  -7   2 -11 73.2924 94.4056  10
  -7  -2  11 714.293 323.862  17
  -7  -2  11 758.535 292.712   2
  -7   2 -11 116.079 148.101   7
   7  -2  11 1144.54 436.759  16
  -7  -2  11 860.832 290.294  16
  -2   7 -11 630.483 159.432   4
   2   7 -11 758.725 280.775   3
  -7   2 -11 220.945 187.079  15
   7   2 -11 528.104 252.776   1
   7  -2  11 957.592 349.438  14
   7   2 -11 464.393 248.697  14
   7  -2  11 912.448 333.968   6
  -2   7 -11 749.888 296.075   3
  -2   7 -12 972.494 492.937  13
  -2  -7  12 426.782 215.191   6
   2   7 -12 1202.29 422.289  13
   2  -7  12 847.547 321.588   6
  -2   7 -12 1135.31 313.217  12
   2   7 -12 1320.65 346.192  12
  -7  -2  12 1358.69 404.907   5
   7  -2  12 1512.94 254.795   2
  -7  -2  12 1137.41 386.036   2
   7   2 -12 921.263 354.820  11
  -7   2 -12-77.3409 374.051  10
   7   2 -12-250.015 682.442  10
  -2   7 -12 1369.33 381.207  18
   7   2 -12 431.571 261.841   9
  -7  -2  12 1197.67 306.202   4
  -2  -7  12 650.592 344.407  17
  -2   7 -12 1288.18 254.151   4
   2   7 -12 1273.01 444.806  18
   7   2 -12 735.183 314.955  18
   7  -2  12 1356.37 420.514   8
   2  -7  12 535.174 246.521  17
  -7   2 -12 298.365 196.899  19
  -7  -2  12 1017.48 426.500  17
  -7  -2  12 1309.35 406.164  16
  -7   2 -12-181.812 436.081   7
   7  -2  12 1464.96 495.434  16
  -7   2 -12 162.816 111.549  20
   7  -2  12 1519.48 483.887   6
  -7   2 -12 96.1180 280.511  15
   2   7 -12 1224.77 352.298   3
  -2   7 -12 1170.94 378.643   3
   7  -2  12 1347.67 452.061  14
   7   2 -12 779.082 340.382   1
   7   2 -12 538.065 253.449  14
   2  -7  12 767.398 284.815  14
  -2  -7  13 643.298 248.855   6
   7  -2  13 1562.59 485.340   6
   2  -7  13 958.293 336.638   6
  -2   7 -13 879.254 444.085  13
   2   7 -13 1201.64 394.678  13
  -2   7 -13 1186.82 331.489  12
   2   7 -13 1492.36 354.169  12
  -7  -2  13 1396.52 402.609   5
   7  -2  13 1537.75 253.482   2
  -7  -2  13 1408.37 440.150   2
   7   2 -13 705.823 342.741  11
  -2  -7  13 116.968 296.765   2
  -7   2 -13-107.834 180.688  20
  -7   2 -13-391.981 602.165  10
  -7  -2  13 1445.54 331.402   4
  -2   7 -13 1287.90 329.849  18
  -2   7 -13 1441.47 294.490   4
   7   2 -13 68.3792 225.142   9
   2   7 -13 1538.69 441.751  18
   7   2 -13 876.002 344.921  18
   7   2 -13-681.172 1120.46  10
   7  -2  13 1645.84 465.255   8
   2  -7  13 944.358 348.447  17
  -2  -7  13 689.742 380.420  17
  -7  -2  13 1444.10 486.529  17
  -7  -2  13 1570.10 467.080  16
   2  -7  13 242.753 190.736  16
  -7   2 -13 122.764 131.112  19
   7  -2  13 1788.87 571.105  16
   2   7 -13 1333.18 388.730   3
  -2   7 -13 1367.53 427.308   3
   2  -7  13 779.155 208.731  14
   7  -2  13 1574.38 521.611  14
   7   2 -13 577.352 254.972  14
  -2  -7  13 182.083 72.7572  16
   7   2 -13 747.358 337.861   1
  -2  -7  14 701.229 333.148   6
  -2   7 -14 883.081 347.499   3
   2  -7  14 870.520 363.932   6
  -2   7 -14 750.840 422.552  13
   2   7 -14 824.667 360.059  13
   7   2 -14 558.803 290.721   1
   2   7 -14 1084.28 308.785  12
  -2   7 -14 933.406 298.365  12
   7  -2  14 1121.47 229.288   2
   7   2 -14 461.311 302.864  11
  -2  -7  14 139.530 140.955   2
  -7   2 -14-501.898 290.791  20
  -7  -2  14 1011.96 344.732   5
  -7  -2  14 1137.18 293.649   4
   2  -7  14 807.912 288.123  17
  -2   7 -14 861.278 260.061  18
   7   2 -14-52.8206 382.105   9
   2   7 -14 1290.18 396.556  18
   7  -2  14 1144.38 368.432   8
   7   2 -14 503.772 242.330  18
  -2   7 -14 1236.40 344.909   4
  -2  -7  14 556.600 350.471  17
  -7   2 -14-170.305 178.632  19
  -2  -7  14 317.684 134.916  16
   2  -7  14 158.754 144.591  16
  -7  -2  14 966.275 379.844   2
   7  -2  14 1235.78 458.009  16
  -7  -2  14 931.250 396.928  16
  -7  -2  14 1171.03 418.237  17
   2   7 -14 1004.41 345.597   3
   2  -7  14 588.417 175.983  14
   7  -2  14 869.676 409.206  14
   7  -2  14 1056.63 387.110   6
   7   2 -14 235.584 143.882  14
   2  -7  15 806.295 386.024   6
  -2   7 -15 1094.55 378.272   3
  -2   7 -15 717.609 415.891  13
   2   7 -15 799.668 363.781  13
   2   7 -15 1179.49 319.476  12
   7   2 -15 406.535 275.227   1
  -2   7 -15 941.134 303.529  12
   7  -2  15 1102.27 240.892   2
   7   2 -15 287.481 165.683  11
  -7   2 -15-367.111 469.171  20
  -7  -2  15 1128.69 387.623   5
  -2  -7  15 644.478 427.976   2
  -7   2 -15 65.0789 72.7372  19
  -7  -2  15 1333.15 318.315   4
   2   7 -15 813.048 319.055  18
  -2   7 -15 843.091 244.739  18
   7   2 -15 438.985 257.424  18
  -2   7 -15 959.481 362.697   4
  -2  -7  15 645.583 330.056  17
   2  -7  15 704.905 268.162  17
   7  -2  15 941.238 378.778   8
  -2  -7  15 602.498 321.055  16
  -7  -2  15 1120.88 441.209  17
   2  -7  15 727.171 417.113  16
  -7  -2  15 1481.01 476.383   2
   7  -2  15 1218.68 485.618  16
  -7  -2  15 1176.45 440.813  16
   2   7 -15 1114.77 374.283   3
   2  -7  15 711.904 188.393  14
   7  -2  15 1055.13 439.746  14
   7  -2  15 906.193 371.405   6
   7   2 -15 387.948 229.631  14
  -2  -7  15 566.035 298.296   6
  -2   7 -16 785.754 333.276   3
  -2   7 -16 892.057 518.399  13
   2   7 -16 1074.87 484.490  13
   2   7 -16 1399.93 370.816  12
  -2   7 -16 1143.16 361.072  12
  -7  -2  16 1613.54 497.818   5
   7   2 -16 393.782 220.789   1
   2   7 -16 1462.43 477.687  11
   7  -2  16 1400.24 294.596   2
  -2   7 -16 1485.77 350.429  11
   7   2 -16 168.060 71.2407  11
  -7   2 -16-28.2170 149.354  19
  -2  -7  16 696.502 516.168   2
   2   7 -16 963.568 387.296  18
  -7  -2  16 1177.42 472.260   2
  -2   7 -16 981.182 262.960  18
   7   2 -16 475.582 303.342  18
   2  -7  16 1212.16 362.500  17
  -2  -7  16 1220.27 499.665  17
  -7  -2  16 1587.16 514.878  17
   7  -2  16 1373.83 471.902   8
   2  -7  16 631.026 861.117   8
  -2  -7  16 976.617 468.314  16
   2  -7  16 809.069 431.961  16
   7  -2  16 1450.15 565.290  16
   2   7 -16 2200.19 885.471   7
  -7  -2  16 1428.91 519.375  16
   2   7 -16 2045.24 940.261  15
   2   7 -16 1313.14 457.843   3
   2  -7  16 983.722 232.894  14
   7  -2  16 995.932 534.423  14
   7  -2  16 1241.72 469.758   6
   7   2 -16 219.272 143.159  14
  -7  -2  16 1395.87 346.057   4
  -2  -7  16 893.142 477.174   6
   2  -7  16 983.005 441.845   6
   2   7 -17-69.8143 101.210   3
  -2   7 -17 14.0237 109.700   3
  -2   7 -17-31.2857 157.844  13
   2   7 -17 12.0018 11.0977  13
  -2   7 -17 46.4534 101.580  12
   2   7 -17-46.1630 68.4819  12
   2   7 -17 109.667 72.2684  11
  -2   7 -17 263.950 167.892  11
   7   2 -17-8.10299 38.2685   1
  -2  -7  17-38.3711 93.2540  17
   7   2 -17-18.8948 132.045  11
  -2   7 -17 262.231 265.827  20
   2   7 -17 154.237 226.620  20
   2  -7  17-557.184 739.477   2
  -7  -2  17 28.6624 72.5145   5
  -2  -7  17 165.417 249.628   2
  -7   2 -17-8.75915 82.0614  19
   2   7 -17 47.7521 151.604  18
  -2   7 -17-46.4060 96.3854  18
   7   2 -17-13.4014 104.766  18
   7  -2  17 32.7741 51.2459   8
   2  -7  17 14.9969 65.7393  17
  -7  -2  17-21.4899 136.856  17
   2  -7  17-476.167 708.130   8
  -2  -7  17 22.2782 104.629  16
   2  -7  17-202.578 189.763  16
  -7  -2  17 113.782 132.822   4
   2   7 -17 73.0441 231.530   7
  -7  -2  17 29.1300 133.589   2
   7  -2  17 36.6332 105.952  16
  -7  -2  17 61.3825 116.586  16
  -2   7 -17 798.814 699.734   7
   2   7 -17 94.0780 286.267  15
  -2   7 -17 681.446 651.542  15
   7  -2  17-17.9460 38.7392   6
  -2  -7  17 55.1652 127.497   6
   2  -7  17-59.9131 148.411   6
   7   3   0 1656.09 486.211   1
  -7   3   0 1857.25 399.036   5
   7  -3   0 1172.05 355.205   1
  -7   3   0 1714.82 377.124  19
   7   3   0 1595.68 408.744  18
   7   3   0 1456.69 432.584   8
  -7   3   0 1525.09 360.014   4
   7  -3   0 959.991 313.777   8
  -7  -3   0-74.2324 157.870  17
   7  -3   0 1330.92 407.151   6
   7  -3   0 1204.43 333.572  14
   7   3   0 851.241 420.868  14
   7  -3   1 654.428 252.211   6
  -7   3   1 787.866 259.797  19
  -7   3  -1 600.910 256.608  12
  -7   3  -1 709.428 235.975   5
   7  -3  -1 490.305 240.729   1
  -7   3  -1 768.248 239.996  19
  -7  -3   1 69.4273 102.328  19
   7   3   1 351.182 65.0529  18
  -7   3   1 664.592 200.398   5
   7   3   1 595.518 295.424   1
  -7   3  -1 797.744 246.545   4
   7   3   1 472.900 279.435   8
   7   3  -1 781.652 288.248   8
  -7  -3  -1-132.739 237.730  17
  -7  -3   1 177.405 231.338  17
   7   3  -1 814.754 337.608   1
   7  -3   1 511.120 207.617   8
   7  -3  -1 209.552 114.549   8
   7   3  -1 906.837 318.902  18
   7   3   1 279.184 197.622  14
   7   3  -1 253.214 181.757  14
   7  -3   1 592.609 237.074  14
   7  -3  -1 444.920 219.659  14
   7  -3   1 558.723 215.254   1
   7   3  -2 156.346 174.949  13
   7   3  -2 1421.55 452.541   1
   7  -3  -2 521.010 242.741   1
  -7   3  -2 946.971 307.916  12
  -7   3   2 893.531 288.773  19
  -7   3  -2 965.037 271.160   5
   7  -3   2 892.503 255.927   1
  -7   3  -2 897.677 260.125  19
  -7  -3   2 153.319 178.671  19
   7   3   2 424.707 238.029   1
   7   3  -2 1202.21 342.089  18
  -7   3  -2 890.918 272.570   4
   7  -3   2 680.491 231.914   8
   7   3   2 576.586 291.604   8
   7   3  -2 1117.67 319.388   8
   7  -3   2 884.814 270.211   6
   7  -3   2 849.278 265.852  14
   7   3  -2 639.408 314.546  14
  -7  -3   2 252.962 200.847  17
   7  -3  -2 572.294 240.944  14
   7   3  -3 1397.05 429.420   1
  -7   3  -3 1294.22 324.216  12
  -7   3  -3 1223.75 289.989   5
   7  -3   3 1304.16 294.416   1
   7   3   3 227.705 144.474   1
  -7  -3   3 436.648 188.874   2
  -7   3  -3 1325.17 311.982  19
  -7  -3   3 745.278 290.359  19
   7   3  -3 1849.26 416.358  18
  -7   3  -3 1300.73 319.418   4
   7  -3   3 1113.50 293.153   8
  -7  -3   3 775.842 347.710  17
   7   3  -3 1736.83 366.125   8
   7  -3   3 1325.50 316.241   6
   7  -3   3 1353.92 323.512  14
   7   3  -3 760.486 381.074  14
  -7   3  -3 740.976 341.814   3
   7   3  -3 1381.75 346.265  13
   7   3  -4 30.9117 75.9966  13
   7  -3   4-39.7514 68.9068   6
  -7   3  -4-43.9490 89.4288  12
  -7  -3   4 78.6413 128.364   5
   7  -3   4 16.2811 40.6376   1
  -7   3  -4 1.93577 61.0184   5
  -7   3  -4-43.6793 85.2827  19
  -7  -3   4 63.3044 69.7645  19
   7   3  -4 36.8386 80.3947  18
   7   3  -4 51.0612 85.0314   8
  -7  -3   4 73.5385 96.7721   2
  -7  -3   4 191.023 211.336  17
   7  -3   4 12.2763 24.4406   8
  -7   3  -4 73.0944 81.0151   4
   7   3  -4-154.660 166.865  14
   7   3  -4-16.3053 80.0680   1
  -7   3  -4-84.4731 162.368   3
   7  -3   4 53.9117 48.6832  14
   7  -3   5 582.078 202.758   6
   7   3  -5 625.102 184.750  13
  -7   3  -5 583.392 212.248  12
  -7  -3   5 244.380 188.694   5
  -7   3  -5 562.371 190.977   5
  -7  -3   5 272.406 122.842  19
  -7   3  -5 563.736 200.837  19
  -7  -3   5 344.924 171.026   2
   7   3  -5 778.660 210.376   8
   7   3  -5 744.235 267.383  18
  -7  -3   5-42.0386 200.325   4
  -7  -3   5 341.690 216.402  17
  -7   3  -5 563.439 214.540   4
   7   3  -5 276.583 198.886  14
   7  -3   5 560.167 175.911   1
   7  -3   5 610.859 206.749  14
   7   3  -5 708.462 308.914   1
  -7   3  -5 617.980 252.886   3
   7  -3   5 494.107 188.057   8
  -7  -3   6 435.890 267.637  19
  -7   3  -6 401.185 217.786   3
   7  -3   6 573.452 207.253   6
   7   3  -6 786.647 341.829   1
   7   3  -6 564.965 192.988  13
  -7   3  -6 437.895 196.705  12
   7   3  -6 852.232 289.902  11
  -7  -3   6 264.195 176.593   5
   7   3  -6 543.208 193.813  20
  -7   3  -6 506.936 179.479   5
  -7   3  -6 409.672 174.405  19
   7   3  -6 718.287 199.221   8
   7   3  -6 687.319 270.292  18
  -7  -3   6 230.124 188.932   4
  -7  -3   6 371.240 231.986   2
   7  -3   6 591.779 181.272   1
  -7  -3   6 606.031 356.339  17
   7  -3   6 561.405 210.606   8
  -7   3  -6 436.189 183.605   4
   7   3  -6 305.014 283.718  14
   7  -3   6 666.986 225.622  14
   7   3  -7 1775.19 327.207  13
  -7   3  -7 96.9212 99.8615  13
   3   7  -7 1617.14 487.072  13
  -7   3  -7 1805.13 428.046  12
   7   3  -7 2150.39 515.277   1
   7   3  -7 2352.71 359.841   8
   7  -3   7 1854.91 330.689   1
  -7  -3   7 1873.79 524.636   5
  -7   3  -7 1523.72 343.207   5
  -7  -3   7 1671.20 422.657   2
   7   3  -7 2623.25 504.106  11
   7   3  -7 2964.60 603.945  20
   7   3  -7 3774.69 605.954  10
  -7  -3   7 2931.91 472.721  19
  -7   3  -7 1620.51 399.317  19
  -7  -3   7 1645.65 499.014   4
  -7   3  -7 1496.52 378.212   4
   7  -3   7 1514.07 358.713   8
   7   3  -7 2349.65 513.702  18
  -7  -3   7 1868.12 574.765  17
  -7  -3   7 1544.66 338.008  16
   7   3  -7 3280.73 578.958   3
   7  -3   7 1701.45 359.471   6
   7  -3   7 1582.63 339.373  14
  -7   3  -7 1510.25 417.389   3
   7  -3   7 2241.24 623.907  16
   7  -3   8 451.177 199.092   6
   3   7  -8 318.705 229.712  13
  -7   3  -8-13.4612 16.3712  13
   7  -3   8 433.662 181.979   1
  -7   3  -8 271.150 176.554   3
   7   3  -8 384.912 174.106  13
   3  -7   8 36.2470 52.2412   6
  -7   3  -8 272.127 159.578  12
  -3   7  -8 228.103 71.2046  12
   7   3  -8 358.058 229.457   1
   7   3  -8 172.807 20.8581  11
  -7  -3   8 303.888 232.611   5
  -7   3  -8 243.357 160.531   5
  -7   3  -8 360.898 180.182  10
   7   3  -8 67.7359 94.9058  20
   7   3  -8 250.302 165.836  10
  -7  -3   8 275.950 119.910  19
  -7   3  -8 247.854 157.321  19
   3   7  -8-2.87931 91.3336  18
   7   3  -8 355.268 140.737  18
  -7  -3   8 265.796 171.400   2
  -7  -3   8 106.125 61.9512   4
  -3  -7   8-115.102 209.926  17
  -7   3  -8 298.721 158.089  20
  -7   3  -8 260.299 167.821   4
   7  -3   8 304.338 157.793   8
  -7  -3   8 131.693 99.8382  17
   7   3  -8 344.814 120.539   8
  -7  -3   8 229.026 130.429  16
   7  -3   8 516.908 272.800  16
   7   3  -8 44.9884 126.495  14
  -3   7  -8 328.090 155.605   3
   7  -3   8 208.908 117.066  14
   7   3  -8 409.851 128.516   3
  -3   7  -9 1111.48 281.123  13
  -7   3  -9 557.998 238.214  13
   7  -3   9 4556.31 713.968   1
  -7   3  -9 1991.78 441.613  12
   3  -7   9 1061.26 323.522   6
  -3   7  -9 4237.84 621.472  12
  -3  -7   9 374.701 201.331   6
   7   3  -9 3580.58 665.369   1
  -7   3  -9 2067.45 488.518   5
  -7  -3   9 3314.63 652.430   5
  -7  -3   9 2704.18 526.481   2
   7   3  -9 3876.36 663.765  11
   7   3  -9 3309.64 497.211   8
  -7   3  -9 1834.12 367.297  20
   7   3  -9 1898.62 534.515  20
  -7   3  -9 2734.26 450.601  10
   7   3  -9 3617.06 726.199  10
  -7   3  -9 2271.41 460.316  19
  -7  -3   9 2973.73 425.743  19
   7   3  -9 4979.48 866.027   9
  -7   3  -9 3152.73 398.603   9
  -7  -3   9 2969.83 561.530   4
  -7   3  -9 2263.28 517.347   4
   3   7  -9 3331.33 689.034  18
   7   3  -9 3644.05 626.221  18
   7  -3   9 3545.86 572.097   8
  -7  -3   9 2760.48 622.514  17
  -3  -7   9-148.643 150.173  17
   7  -3   9 4493.30 813.449  16
  -7  -3   9 3034.48 456.837  16
   7  -3   9 4098.28 613.584   6
  -3   7  -9 4339.66 742.046   3
   7   3  -9 3992.25 398.631   3
   7  -3   9 3593.48 549.975  14
  -7   3  -9 1786.67 441.138   3
   7   3  -9 1492.23 513.064  14
   3   7  -9 4076.84 779.713  13
  -3   7 -10-71.6761 310.794  13
   3   7 -10 195.730 182.599  13
  -7   3 -10 12.3090 11.6049  13
   7   3 -10 114.186 72.2771   3
   3  -7  10 52.0933 114.387   6
  -3  -7  10 138.598 130.119   6
  -7   3 -10 114.680 155.275  12
  -7   3 -10 136.519 165.565   3
  -7   3 -10 114.045 121.806   4
  -3   7 -10 57.8666 66.7957  12
  -3  -7  10 204.267 254.226  17
   7   3 -10 138.083 140.074  11
  -7  -3  10 167.551 164.225   5
  -7   3 -10 28.1406 17.1086  20
   7   3 -10-57.8899 200.045  20
  -7   3 -10 94.0515 69.4364  10
   3   7 -10 147.536 153.347  18
   7   3 -10 332.445 247.696  10
   7   3 -10 135.263 144.654   1
  -7  -3  10 139.389 109.000  19
  -7   3 -10 117.588 116.911  19
   7   3 -10 391.491 306.276   9
  -7   3 -10 108.820 82.6430   9
  -7  -3  10 131.698 104.417   4
  -7  -3  10 208.683 174.510   2
   7  -3  10 123.471 112.166   8
   7  -3  10 134.303 115.591   1
  -7  -3  10 115.859 121.082  17
   7  -3  10 223.992 188.850  16
  -7  -3  10 194.313 142.624  16
  -7   3 -10 232.505 283.200   7
   7   3 -10 161.280 123.846  18
  -7   3 -10 333.004 282.430  15
   3   7 -10 105.017 37.5626   3
   7   3 -10 65.2124 98.7003  14
   7  -3  10 129.609 93.3111  14
  -3   7 -10 128.019 122.658   3
   7  -3  10 104.309 117.316   6
   3   7 -11 1173.90 417.665  13
  -3   7 -11 736.067 529.535  13
  -3  -7  11 487.488 231.802   6
   3  -7  11 675.066 288.084   6
  -7   3 -11 230.634 114.105  13
  -3   7 -11 1195.90 328.867  12
  -7   3 -11 773.273 320.059  12
  -7   3 -11 753.485 325.668   3
   7   3 -11 1167.10 396.843  11
  -7  -3  11 1180.56 403.639   5
   7   3 -11 149.537 143.478  20
   7   3 -11 913.990 469.532  10
  -7  -3  11 896.601 266.707  19
   7   3 -11 1058.21 392.454   1
   7  -3  11 88.1028 90.9805   1
  -7   3 -11 608.373 251.018  19
   7   3 -11 1242.46 403.412   9
  -7   3 -11 676.867 248.785  10
  -7   3 -11 683.387 222.744   9
   7   3 -11 1057.88 374.926  18
  -3   7 -11 1707.17 469.720  18
   3   7 -11 1335.19 455.892  18
   7  -3  11 1442.48 396.958   8
  -7   3 -11 629.868 290.862   4
  -7  -3  11 1139.24 346.713   4
   3  -7  11 349.146 231.758  17
  -3   7 -11 1323.66 286.068   4
  -3  -7  11 356.215 234.989  17
  -7  -3  11 1062.53 347.759   2
  -7  -3  11 1093.78 409.648  17
  -7   3 -11 507.071 228.243  20
   7  -3  11 1694.04 535.772  16
  -7  -3  11 1162.82 336.122  16
  -7   3 -11 839.917 392.295   7
   7  -3  11 1383.67 397.687   6
   3   7 -11 1555.06 403.300   3
  -3   7 -11 1387.96 415.478   3
  -7   3 -11 907.733 424.783  15
   7  -3  11 1480.38 376.748  14
   7   3 -11 1340.77 269.209   3
   7   3 -11 435.303 242.945  14
   3  -7  11 836.790 332.411  14
   3   7 -12 1419.39 457.195  13
   7  -3  12 1309.26 376.231   8
  -3   7 -12 1258.21 553.924  13
  -3  -7  12 530.603 234.138   6
   3  -7  12 809.244 325.681   6
  -7   3 -12 328.357 205.534  13
  -3   7 -12 1202.99 332.967  12
  -3   7 -12 1235.53 192.472   5
   7   3 -12 1184.20 402.820  11
  -7  -3  12 1268.11 401.895   5
  -3  -7  12-153.473 329.693   2
  -7   3 -12 417.775 221.270  20
   7   3 -12-206.874 492.875  20
   7   3 -12 711.130 428.148  10
  -7   3 -12 578.273 276.370  19
   7   3 -12 968.670 346.658   9
  -7  -3  12 1312.20 360.278   4
  -7   3 -12 585.359 200.825   9
  -3   7 -12 1435.01 357.373  18
   7   3 -12 1229.11 392.750  18
  -3   7 -12 1518.69 307.055   4
   7   3 -12 1025.65 379.953   1
  -7   3 -12 57.5753 92.0977   4
   3  -7  12 833.709 299.654  17
  -3  -7  12 509.210 359.461  17
  -7  -3  12 1057.96 362.940   2
  -7  -3  12 1255.70 439.771  17
   7  -3  12 1806.23 558.628  16
  -7  -3  12 1343.78 376.630  16
  -7   3 -12 661.278 357.471   7
   7  -3  12 1558.25 460.261   6
   3   7 -12 1445.08 383.124   3
  -7   3 -12 999.639 461.898  15
  -3   7 -12 1382.05 426.666   3
   7  -3  12 1703.64 447.400  14
   7   3 -12 284.836 247.053  14
  -7   3 -12 646.582 277.722  10
   3   7 -12 1402.63 473.197  18
   3  -7  12 878.510 266.999  14
  -3  -7  13 648.879 270.384   6
   3  -7  13 907.841 364.435   6
  -3   7 -13 907.450 486.608  13
   3   7 -13 1162.23 413.443  13
  -7   3 -13 499.291 294.220  13
  -3   7 -13 1064.96 317.796  12
   3   7 -13 1324.91 344.617  12
  -3   7 -13 1024.47 155.514   5
   7   3 -13 1337.99 426.577  11
  -7  -3  13 1186.54 386.963   5
   7  -3  13 198.144 169.099   2
  -7   3 -13 198.404 135.866  20
  -3  -7  13 220.654 173.031   2
  -7   3 -13 414.374 169.057  10
   7   3 -13 631.983 434.526  10
  -7   3 -13 475.602 219.977  19
  -3   7 -13 1122.32 266.805  18
  -7   3 -13 299.598 180.594   9
  -3   7 -13 1414.06 319.843   4
   7  -3  13 1466.34 407.952   8
   3   7 -13 1289.98 454.603  18
   7   3 -13 929.926 365.982  18
   7   3 -13 900.698 361.711   1
  -7  -3  13 1380.20 347.755   4
   3  -7  13 787.156 275.420  17
  -3  -7  13 789.104 400.638  17
  -7  -3  13 1138.61 398.091   2
  -7  -3  13 1269.88 442.053  17
  -7  -3  13 1448.14 417.818  16
  -3  -7  13 144.113 276.785  16
   3  -7  13 351.294 849.068   8
   7  -3  13 1549.97 537.558  16
  -7   3 -13 342.980 232.199   7
   3  -7  13-7.08781 213.613  16
   7  -3  13 1536.91 474.718   6
  -7   3 -13 471.012 272.401  15
   3   7 -13 1280.32 370.428   3
  -3   7 -13 1214.71 416.300   3
   7  -3  13 1402.66 432.632  14
   3  -7  13 860.943 238.579  14
   7   3 -13 270.367 206.877  14
   7   3 -13 848.118 427.384   9
  -3   7 -14 1251.74 420.768   3
   3  -7  14 1079.22 395.546   6
  -3   7 -14 1016.28 486.933  13
   3   7 -14 1062.47 404.083  13
  -3   7 -14 1495.58 389.744  12
   3   7 -14 1615.28 382.794  12
  -7  -3  14 1720.42 481.533   5
   7   3 -14 1024.02 383.935  11
   7   3 -14 536.669 276.758   9
  -7   3 -14 192.670 99.7094  20
  -3  -7  14 414.073 272.580   2
   7   3 -14 416.746 325.432  10
  -7   3 -14 482.057 271.582  19
  -3   7 -14 1680.01 408.027   4
  -7  -3  14 1510.79 372.174   4
  -3   7 -14 1166.52 268.395  18
   3   7 -14 1473.36 489.115  18
  -7   3 -14 79.8237 328.438   9
   7  -3  14 1601.74 451.574   8
   7  -3  14 1118.87 320.392   2
   3  -7  14 1042.10 310.005  17
   7   3 -14 1095.98 414.669   1
   7   3 -14 921.104 352.977  18
  -3  -7  14 1084.09 475.860  17
  -7  -3  14 1256.25 476.121  17
  -7  -3  14 1294.53 422.833   2
  -7  -3  14 1564.25 466.141  16
  -3  -7  14 268.321 78.2109  16
   3  -7  14 857.370 357.872  16
   3  -7  14 604.688 411.863   8
  -7   3 -14 11.5543 301.023   7
   7  -3  14 1794.58 565.040  16
  -7   3 -14 398.641 235.821  15
   3   7 -14 1409.12 404.343   3
   7  -3  14 1948.60 550.989  14
   3  -7  14 961.495 234.015  14
  -7   3 -14 375.568 214.238  10
   7   3 -14 283.329 222.015  14
   7  -3  14 1535.83 452.047   6
  -3  -7  14 679.219 277.999   6
   3  -7  15 642.849 360.607   6
  -3   7 -15 622.659 298.461   3
  -3   7 -15 631.600 399.600  13
   3   7 -15 682.855 304.902  13
   3   7 -15 956.260 288.241  12
   7   3 -15 336.945 293.781  10
  -3   7 -15 736.843 271.319  12
  -3   7 -15 1304.10 312.896  11
   3   7 -15 1200.91 471.200  11
   7   3 -15 415.855 210.390  11
  -7  -3  15 784.325 350.324   5
  -7   3 -15 49.6814 89.1233  20
  -7   3 -15 175.773 141.000  10
  -3  -7  15 538.344 368.011   2
   7   3 -15 474.849 399.100   9
   7  -3  15 911.377 284.250   2
  -3   7 -15 722.882 204.730  18
   7   3 -15 494.950 292.678  18
  -3   7 -15 695.319 325.385   4
   7  -3  15 929.939 333.851   8
  -7   3 -15 257.377 208.823  19
  -3  -7  15 295.296 132.923  17
   3  -7  15 520.973 207.682  17
   7   3 -15 352.290 257.055   1
  -7  -3  15 785.263 250.031   4
  -7  -3  15 766.404 346.715  17
  -7  -3  15 691.576 327.259   2
   3  -7  15 426.307 65.4616   8
  -3  -7  15 442.388 238.878  16
   3  -7  15 521.877 339.372  16
   7  -3  15 791.754 386.539  16
  -7  -3  15 721.020 345.656  16
   3   7 -15 1516.10 726.036   7
   3   7 -15 1723.55 773.466  15
   7  -3  15 926.771 424.582  14
   7   3 -15 64.1397 134.187  14
   3   7 -15 886.418 335.112  18
   7  -3  15 1010.30 408.066   6
   3  -7  15 586.353 185.724  14
  -3  -7  15 275.300 195.386   6
   3   7 -15 796.243 314.817   3
   3   7 -16 475.486 273.218   3
  -3   7 -16 205.116 172.729   3
  -3   7 -16 200.378 250.308  13
   3   7 -16 492.576 303.348  13
  -3   7 -16 357.077 198.122  12
   3   7 -16 424.311 195.035  12
   3   7 -16 505.669 274.085  11
  -3   7 -16 462.303 192.442  11
   7   3 -16-15.2333 237.591  11
   3   7 -16 234.226 268.285  20
  -7  -3  16 337.650 212.038   5
  -7   3 -16-94.1740 208.174  20
   7   3 -16-515.546 967.109  10
  -7   3 -16-63.8569 285.945  10
  -3  -7  16 568.347 405.784   2
   7   3 -16 298.793 402.833   9
  -7   3 -16 73.7525 140.517  19
   3   7 -16 473.738 238.190  18
  -3   7 -16 310.179 165.606  18
  -3   7 -16 476.997 343.979   4
  -3  -7  16 1840.71 671.712  17
   7  -3  16 546.669 326.803   8
   3  -7  16 331.945 170.281  17
  -7  -3  16 386.741 171.775   4
   7   3 -16 170.435 185.584   1
  -7  -3  16 218.850 147.176  17
  -7  -3  16 268.450 192.803   2
   3  -7  16 329.479 239.728   8
  -3  -7  16 828.098 434.356  16
   3  -7  16 241.847 255.208  16
   7  -3  16 379.073 326.703  16
   3   7 -16 693.189 495.330   7
  -7  -3  16 281.024 224.045  16
   3   7 -16 457.511 317.917  15
   7  -3  16 810.908 452.849  14
   7   3 -16 56.3473 92.0372  18
   7  -3  16 437.884 348.560   6
   3  -7  16 316.758 157.980  14
  -3  -7  16 371.812 363.426   6
   3  -7  16 363.569 286.087   6
   3   7 -17 1408.07 430.423   3
  -3   7 -17 832.229 359.238   3
  -3   7 -17 718.178 388.596  13
   3   7 -17 765.472 372.886  13
   3   7 -17 1450.10 363.922  12
  -3   7 -17 1068.89 368.365  12
   3   7 -17 1646.64 528.565  11
  -3   7 -17 1562.79 345.680  11
   7   3 -17 607.905 316.010  11
  -3   7 -17 748.457 359.402  20
   3   7 -17 914.772 461.872  20
  -7  -3  17 1554.42 472.009   5
  -7   3 -17-522.921 301.370  20
  -7   3 -17 100.417 135.744  19
  -7   3 -17-421.584 534.407  10
  -3   7 -17 1165.84 286.999  18
   3   7 -17 1372.60 413.815  18
   7   3 -17 607.698 327.082  18
   3  -7  17 1244.53 342.262  17
   7  -3  17 1528.69 462.537   8
  -3  -7  17 1078.90 452.638  17
  -7  -3  17 1274.72 525.218  17
   7   3 -17 293.475 348.117   9
  -7  -3  17 1402.70 511.850   2
   7   3 -17 495.776 292.474   1
   3  -7  17 1365.73 507.411   8
  -3  -7  17 911.334 444.732  16
   3  -7  17 965.759 521.931  16
   3   7 -17 1000.99 452.172   7
   7  -3  17 1720.04 641.890  16
  -7  -3  17 1608.36 495.418  16
  -3   7 -17 2236.52 926.428   7
   3   7 -17 1123.18 550.274  15
  -3   7 -17 2583.09 1003.72  15
  -3  -7  17 1164.24 604.628   2
   7  -3  17 1022.61 494.302  14
   7  -3  17 1387.33 511.422   6
  -3  -7  17 476.570 317.269   6
   7   3 -17-768.146 1195.35  10
   3  -7  17 1387.22 530.601   6
   7   4   0-113.103 243.026   1
  -7   4   0-76.6374 190.518  19
   7  -4   1 892.757 375.140   6
   7   4   1 64.6917 133.542   1
  -7   4  -1 1533.26 382.748  19
   7  -4   1 561.295 243.997   1
   7   4  -1 1104.45 401.290   1
   7   4  -1 1240.08 309.020  18
   7   4  -1 735.366 241.770   8
  -7  -4   1 65.5757 123.302  17
   7  -4   1 374.359 192.308   8
   7  -4   1 838.219 306.730  14
   7  -4   2 18.3635 99.0026   6
  -7   4  -2 80.7675 174.365  12
   7  -4   2 185.282 146.093   1
  -7   4  -2 257.791 84.0459   5
  -7   4  -2 239.409 130.543  19
   7   4  -2 174.505 189.908   1
   7   4  -2 290.404 193.032   8
  -7  -4   2-48.2729 149.216  17
   7  -4   2 160.004 101.149   8
  -7   4  -2 189.394 65.7757   4
   7  -4   2 205.487 143.512  14
   7   4  -2 316.050 185.778  18
   7   4  -3 415.914 242.542  18
   7  -4   3 165.044 140.831   6
  -7   4  -3 298.039 181.316  12
  -7   4  -3 177.990 104.295   5
   7   4  -3 89.6507 135.489   1
  -7   4  -3 273.638 150.832  19
   7  -4   3 147.444 91.7155   1
   7   4  -3 172.395 136.554   8
  -7  -4   3 76.5358 120.914  17
   7  -4   3 106.280 83.6109   8
  -7   4  -3 261.674 163.491   4
   7  -4   3 136.905 80.9099  14
   7   4  -4 559.128 234.723  13
   7  -4   4 364.512 170.737   6
  -7   4  -4 568.185 223.835  12
  -7  -4   4-365.802 387.522   2
  -7  -4   4 65.5587 180.005  19
  -7   4  -4 562.878 207.159   5
  -7   4  -4 647.941 240.658  19
   7   4  -4 598.284 274.264  18
   7   4  -4 553.090 209.427   8
   7  -4   4 424.495 190.074   1
   7   4  -4 454.837 307.964   1
   7  -4   4 334.550 174.673   8
  -7  -4   4 199.114 209.231  17
  -7   4  -4 527.589 215.124   4
  -7   4  -4 280.413 180.857   3
   7  -4   4 473.820 200.954  14
   7   4  -5 529.211 323.689  13
   7  -4   5 122.773 132.393   6
  -7   4  -5 28.3202 86.0667  12
  -7   4  -5 71.3615 70.4640   5
  -7  -4   5 339.249 248.809  19
   7   4  -5 579.788 298.924  18
  -7  -4   5-0.18751 101.388   2
   7   4  -5 197.238 150.884   8
  -7  -4   5 562.500 409.023  17
   7  -4   5 13.5451 26.5987   8
  -7   4  -5 49.2997 64.9393  19
  -7   4  -5 51.4770 62.2923   4
   7   4  -5 940.131 449.528   1
  -7   4  -5 68.0743 120.844   3
   7  -4   5 19.0890 53.4825   1
   7  -4   5 40.2451 63.8089  14
   7   4  -6 498.357 206.716  13
   7  -4   6 515.244 214.670   6
  -7   4  -6 407.122 191.070  12
  -7   4  -6 274.036 133.597   5
   7  -4   6 372.310 145.629   1
  -7   4  -6 413.232 175.650  19
   7   4  -6 545.553 277.483  18
   7   4  -6 563.901 198.341   8
  -7  -4   6 359.118 359.797  17
   7  -4   6 266.112 138.725   8
  -7   4  -6 389.173 178.239   4
   7   4  -6 839.761 406.596   1
   7   4  -6 224.394 378.138  14
  -7  -4   6 194.781 196.868   2
  -7   4  -6 491.124 266.730   3
   7  -4   6 345.858 162.465  14
  -7  -4   6 329.176 273.194  19
   4   7  -7 792.063 247.248  13
   7  -4   7 735.204 262.421   6
   7   4  -7 706.141 215.462  13
   4  -7   7 277.108 207.317   6
  -7   4  -7 599.143 217.525  12
  -7   4  -7 687.878 218.083   5
   7  -4   7 656.874 183.442   1
  -7  -4   7 480.767 184.557  19
   4   7  -7 69.8071 143.986  18
   7   4  -7 873.832 212.778   8
   7   4  -7 755.385 307.173  18
  -7   4  -7 623.774 227.478   4
  -7   4  -7 726.857 243.498  19
  -7  -4   7 475.674 276.121  17
   7  -4   7 661.437 251.337   8
   7   4  -7 775.630 364.505   1
   7   4  -7-68.9934 185.644  14
  -7  -4   7 537.917 244.866   2
  -4  -7   7-214.367 240.506  17
   7  -4   7 725.281 235.877  14
  -7   4  -7 681.145 302.010   3
   7   4  -8 1247.01 307.953  13
  -4   7  -8 1683.36 401.485  12
   4  -7   8 248.856 201.461   6
  -7   4  -8 1069.65 301.688  12
   7  -4   8 1281.14 263.233   1
  -7   4  -8 1106.56 275.098   5
   4   7  -8 757.985 285.923  18
  -7   4  -8 1234.73 331.931  19
  -7  -4   8 887.083 252.889  19
  -7   4  -8 1164.53 320.909   4
   7   4  -8 1648.77 439.301  18
  -7  -4   8 807.471 296.677   2
   7   4  -8 1607.85 267.979   8
   7  -4   8 1136.91 307.879   8
  -4  -7   8-59.5639 141.454  17
  -7  -4   8 733.783 331.319  17
   7  -4   8 856.680 193.360  16
   7   4  -8 1470.91 394.557   3
  -4   7  -8 1605.58 456.865   3
   7  -4   8 1298.91 349.707   6
  -7   4  -8 1284.53 404.732   3
   7  -4   8 1185.05 296.990  14
   7   4  -8-64.0983 183.903  14
   7   4  -8 1175.21 422.398   1
   7   4  -8 1318.29 346.743  20
   4   7  -8 1495.49 467.769  13
   7  -4   9 24.9563 86.3139   6
  -7   4  -9-59.3277 64.5235  13
   4   7  -9-51.8859 98.1756  13
  -7   4  -9 47.8517 96.2009   3
   7   4  -9 20.0823 92.3251  13
   4  -7   9 46.1311 77.0246   6
  -4  -7   9 12.6874 87.3714   6
  -7   4  -9 87.9111 104.258  12
  -4   7  -9 25.1474 65.1966  12
  -7  -4   9 11.5792 47.7825   5
   7   4  -9-77.0331 104.012  11
   7  -4   9 49.7006 71.0792   1
  -7  -4   9 19.3860 79.9492  19
  -7   4  -9 0.17431 39.8193   5
  -4  -7   9 113.691 174.959  17
   7   4  -9 119.848 120.354  20
  -7  -4   9 9.61901 79.0465  17
  -7   4  -9 41.9113 23.9897  19
   4   7  -9 77.2808 98.4297  18
  -7  -4   9 39.3477 69.0968   2
   7   4  -9-23.5438 72.8580  18
  -7   4  -9 35.7351 79.1398   4
   7  -4   9-25.2290 58.4310   8
   7   4  -9-16.2061 57.1043   8
  -7  -4   9-140.390 175.235  16
   7  -4   9-133.639 268.489  16
   7   4  -9-35.2455 149.433  14
  -4   7  -9 8.09709 61.7182   3
   7   4  -9 43.6669 66.5146   3
   7  -4   9 17.5372 36.3250  14
   7   4  -9-27.8751 56.4873   1
   4   7 -10 1454.29 454.510  13
   7   4 -10 1394.64 338.711  13
  -4   7 -10 107.745 358.573  13
  -7   4 -10 149.437 51.4619  13
  -7   4 -10 960.061 323.565   3
   4  -7  10 545.649 245.586   6
   7  -4  10 1626.12 376.985   1
  -4  -7  10 256.462 165.730   6
   7   4 -10 1494.29 495.041   1
  -4   7 -10 1487.91 382.729  12
  -7   4 -10 1060.90 296.787  12
   7   4 -10 1676.39 444.416  11
  -7  -4  10 882.352 372.883   5
  -7   4 -10 1187.39 332.828   5
  -7   4 -10 631.527 162.494  11
  -7   4 -10 1088.36 312.285  19
  -7  -4  10 1049.90 250.560  19
   7  -4  10 1413.51 366.365   8
   7   4 -10 1597.49 455.885  18
   4   7 -10 1346.03 451.556  18
   7   4 -10 1455.45 302.633   8
  -7  -4  10 1164.50 360.968   2
   7   4 -10 1713.96 538.254  10
  -4  -7  10 106.985 176.945  17
  -7   4 -10 937.535 323.493   4
  -7  -4  10 1029.34 398.670  17
   7   4 -10 1307.31 423.352  20
  -7  -4  10 926.387 296.887  16
   7  -4  10 1618.70 555.079  16
   4   7 -10 1483.89 384.065   3
   7  -4  10 1690.67 407.601   6
  -4   7 -10 1530.62 458.615   3
   7   4 -10 1887.54 341.419   3
   7  -4  10 1407.23 346.951  14
   7   4 -10-3.40830 80.2100  14
  -4   7 -10 1464.52 344.599   4
   4  -7  10 1243.32 467.738  14
  -4   7 -11 289.366 258.547  13
   4   7 -11 529.623 271.848  13
  -7   4 -11 14.2100 135.455  13
  -4  -7  11 264.347 165.566   6
   4  -7  11 391.926 236.270   6
   7   4 -11 570.069 308.383   1
  -7   4 -11 351.946 215.628   3
   7   4 -11 739.746 272.050  13
  -7   4 -11 221.559 166.906  12
  -4   7 -11 616.930 252.738  12
  -7   4 -11 500.834 291.483   5
   7   4 -11 668.122 268.257  11
  -7  -4  11 462.019 304.287   5
  -7   4 -11 180.907 127.142  20
  -7   4 -11 666.514 272.203  10
   7   4 -11 571.838 350.788  20
   7   4 -11 506.621 356.592  10
  -7   4 -11 393.394 190.220  19
  -4   7 -11 600.852 144.806   5
  -7  -4  11 388.148 161.003  19
   4   7 -11 576.284 301.629  18
   7   4 -11 603.467 279.959  18
  -7  -4  11 510.987 264.947   2
   4  -7  11 188.324 240.027  17
  -7   4 -11 307.615 215.105   4
  -4  -7  11 183.825 210.281  17
  -7  -4  11 663.130 331.842  17
   7  -4  11 585.306 233.173   8
   7  -4  11 452.070 259.214   1
  -7  -4  11 410.328 201.343  16
   7  -4  11 756.360 350.365  16
  -4   7 -11 579.592 195.584   4
   7   4 -11 758.561 216.935   3
   7   4 -11 41.4707 84.1878  14
   4   7 -11 666.220 269.077   3
   7  -4  11 597.427 233.754  14
  -4   7 -11 683.471 317.711   3
  -4   7 -11 850.526 289.150  18
   4  -7  11 411.459 224.270  14
   7  -4  11 671.437 284.923   6
  -4  -7  12 118.443 70.5673   6
  -4   7 -12 240.796 354.968  13
   7   4 -12 400.950 158.037   3
   4   7 -12 400.424 235.848  13
   4  -7  12 310.030 193.993   6
  -7   4 -12-87.7407 150.859  13
   7   4 -12 452.932 233.649  13
  -7   4 -12 350.502 233.228   3
   7   4 -12 311.375 231.517   1
  -7   4 -12 361.048 223.456  12
  -4   7 -12 353.781 197.696  12
   4  -7  12 102.023 57.6484   1
   7   4 -12 376.820 181.275  11
  -7  -4  12 199.455 216.329   5
  -4  -7  12-148.883 372.048   2
   7   4 -12 156.479 159.377  20
  -7   4 -12 219.271 137.255  10
   7   4 -12 502.222 318.376  10
  -4   7 -12 374.909 116.177   5
  -7   4 -12 179.663 126.216  20
   7  -4  12 8.49897 26.0292   1
  -7  -4  12 177.693 108.640  19
  -7   4 -12 190.711 132.024  19
  -4   7 -12 504.023 210.164  18
   4   7 -12 262.178 202.962  18
  -7  -4  12-137.540 313.824   4
   7   4 -12 273.630 175.017  18
  -7  -4  12 253.173 181.885   2
  -7   4 -12 124.157 126.345   4
   4  -7  12 254.190 194.160  17
  -4  -7  12 240.218 142.911  17
   7  -4  12 382.782 197.527   8
  -7   4 -12 439.871 226.290   9
  -7  -4  12 237.310 206.073  17
  -4   7 -12 383.468 165.566   4
   4  -7  12-251.246 517.403   8
  -7  -4  12 318.902 189.278  16
  -7   4 -12 576.875 403.283   7
  -7   4 -12 574.978 384.264  15
   7   4 -12-26.2260 85.7297  14
   7   4 -12 1260.46 533.647   9
   7  -4  12 416.837 197.362  14
   4   7 -12 460.624 228.445   3
  -4  -7  12 106.657 75.7973  19
   7  -4  12 358.602 265.608  16
  -4   7 -12 304.663 203.447   3
   7  -4  12 434.725 249.397   6
   4  -7  12 336.065 184.906  14
  -4  -7  13 660.997 248.612   6
   4   7 -13 1979.13 524.428  13
   4  -7  13 1203.94 406.849   6
  -4   7 -13 1427.54 647.725  13
  -7   4 -13 693.761 286.945  13
  -4   7 -13 1849.69 440.546  12
  -7   4 -13 826.278 346.625   3
   7   4 -13 1663.30 536.986   1
  -7   4 -13 1147.99 380.590  12
  -7  -4  13 2063.19 628.641   5
  -4   7 -13 2057.30 279.712   5
  -7  -4  13 1773.45 516.626   2
   7   4 -13 2154.07 563.305  11
  -7   4 -13 862.279 293.960  20
   7   4 -13 927.042 476.723  20
  -7   4 -13 1218.15 351.347  10
  -4  -7  13 415.422 158.486   2
   7   4 -13 2325.62 732.326  10
  -7   4 -13 1521.51 377.352   9
  -7   4 -13 1031.78 307.635  19
   7   4 -13 2505.77 670.047   9
  -7  -4  13 489.908 138.556  19
  -4   7 -13 1875.20 319.366  18
   4   7 -13 2379.63 599.886  18
  -4   7 -13 2173.78 429.977   4
   7   4 -13 1845.59 503.287  18
   7  -4  13 2199.79 491.194   8
  -7  -4  13 802.916 258.615   4
  -7   4 -13 787.348 378.635   4
   4  -7  13 1287.61 317.871  17
  -7  -4  13 1795.95 557.232  17
  -4  -7  13 1060.59 446.789  17
   7  -4  13 2662.88 709.927  16
  -7  -4  13 1956.35 469.565  16
   4  -7  13 549.914 290.449  16
   4  -7  13 1468.68 477.655   8
  -7   4 -13 1818.69 611.831   7
   7  -4  13 2327.64 553.152   6
  -7   4 -13 1792.87 671.068  15
   4   7 -13 2237.32 493.440   3
  -4   7 -13 1931.63 535.175   3
   7  -4  13 2627.94 529.844  14
   4  -7  13 1453.31 316.879  14
   7   4 -13 2430.09 401.605   3
   7   4 -13 44.2024 101.351  14
  -4   7 -14 308.634 207.373   3
   4  -7  14 326.311 241.962   6
  -7   4 -14 177.910 146.508  19
  -4   7 -14 227.297 344.286  13
   4   7 -14 449.236 286.497  13
  -7   4 -14 61.3761 151.401  13
   7   4 -14 480.113 181.305   3
  -7   4 -14 484.289 335.490  12
  -7   4 -14 291.602 269.026   3
  -4   7 -14 253.033 195.673  12
   4   7 -14 21.6044 260.292  12
   7   4 -14 330.093 271.838   1
   7   4 -14 441.314 280.392  11
  -7  -4  14 274.461 196.633   5
  -7   4 -14 324.538 204.809  20
   7   4 -14 183.626 153.837   9
   7   4 -14-111.682 240.952  20
  -7   4 -14 335.304 214.988  10
   7   4 -14 418.549 298.538  10
  -4  -7  14 168.156 182.174   2
  -4   7 -14 376.666 132.361  18
   4   7 -14 483.092 284.087  18
  -7   4 -14-279.405 361.807   4
   7   4 -14 356.617 227.101  18
  -7  -4  14 287.942 241.128   2
   4  -7  14 249.230 144.434  17
  -4  -7  14 173.166 206.970  17
   7  -4  14 386.022 214.987   8
  -4   7 -14 423.152 229.231   4
  -7  -4  14 163.403 113.803  17
   4  -7  14 197.373 151.764   8
  -4  -7  14-138.063 333.492  16
   4  -7  14-175.045 359.017  16
   7  -4  14 343.209 232.992  16
  -7  -4  14 217.491 182.895  16
  -7   4 -14 218.694 254.494   7
  -7   4 -14 495.912 249.019   9
  -7   4 -14 341.460 285.805  15
   4   7 -14 808.762 565.251  15
   7   4 -14 7.66116 65.7666  14
  -7  -4  14 135.380 122.653   4
   7  -4  14 525.735 289.113  14
   7  -4  14 430.178 248.887   6
   4  -7  14 322.881 146.631  14
   4   7 -14 321.061 175.282   3
  -4  -7  14 195.341 228.803   6
   4  -7  15 603.381 343.036   6
  -4   7 -15 505.675 255.719   3
  -4   7 -15 92.0003 235.754  13
   4   7 -15 553.273 363.083  13
  -7   4 -15 142.812 308.489  13
   4   7 -15 1053.43 345.525  12
  -7   4 -15 834.309 454.479  12
   7   4 -15 547.331 202.700   3
  -7   4 -15 401.149 353.509   3
  -4   7 -15 370.345 181.811  12
   4   7 -15 575.180 292.226  11
  -4   7 -15 969.765 242.232  11
   7   4 -15 397.368 127.727  11
   7   4 -15 206.345 264.502   1
  -7  -4  15 671.753 349.769   5
   4   7 -15-521.198 452.267   1
  -7   4 -15 287.369 193.701  20
   7   4 -15-250.777 105.795  20
  -7   4 -15 182.752 85.1184  10
   7   4 -15 161.532 247.799  10
  -4  -7  15 410.661 378.101   2
  -7   4 -15 321.266 110.805   9
   4   7 -15 792.568 352.672  18
  -4   7 -15 581.560 174.226  18
   7   4 -15 1053.80 598.925   9
   7   4 -15 402.310 157.757  18
  -7  -4  15 180.232 236.173   4
  -4   7 -15 782.210 318.979   4
  -7  -4  15 797.126 434.960   2
   7  -4  15 690.585 299.803   8
  -4  -7  15 359.549 422.675  17
   4  -7  15 565.150 228.227  17
   4  -7  15 614.366 322.064   8
  -4  -7  15-62.0392 113.009  16
   4  -7  15 336.927 202.544  16
   7  -4  15 904.036 496.584  16
  -7  -4  15 870.088 502.880  16
  -7   4 -15 343.182 347.040   7
   4   7 -15 1184.60 525.530   7
  -7   4 -15 175.367 148.805  19
  -7   4 -15 268.808 385.736  15
   4   7 -15 1101.10 589.367  15
   7  -4  15 1021.77 481.024  14
   7  -4  15 1075.32 477.194   6
   4  -7  15 588.434 222.003  14
  -4  -7  15 64.8004 254.851   6
   4   7 -15 943.491 387.186   3
  -4   7 -16 178.837 111.665   3
  -4   7 -16 242.396 319.217  13
   4   7 -16 696.794 374.836  13
  -7   4 -16 61.6694 220.391  13
  -7   4 -16 438.442 367.771  12
   7   4 -16 450.375 215.054   3
  -7   4 -16 569.645 365.987   3
  -4   7 -16 357.243 215.106  12
   4   7 -16 760.998 293.509  12
   4   7 -16 603.549 285.945  11
  -4   7 -16 595.723 190.370  11
   7   4 -16 264.064 190.501  11
  -7  -4  16 455.888 227.375   5
   7   4 -16 81.1749 122.657   1
   4   7 -16 334.704 285.270  20
  -7   4 -16-46.9843 130.358  20
   4   7 -16-379.600 357.066   1
   7   4 -16-656.533 826.437  20
  -7   4 -16-5.22057 149.855  10
   7   4 -16 96.6649 191.858  10
  -7   4 -16 123.067 94.7896  19
  -4  -7  16 183.499 263.490   2
  -4  -7  16 314.926 243.762  17
   7   4 -16 253.003 239.141   9
  -7   4 -16-17.0570 129.668   9
   4   7 -16 443.527 218.393  18
   7   4 -16 265.997 174.979  18
  -4   7 -16 425.016 338.977   4
  -7  -4  16 478.482 200.716   2
   7  -4  16 486.151 244.989   8
   4  -7  16 301.349 83.1469  17
  -7  -4  16 295.149 174.718  17
   4  -7  16 351.547 225.753   8
  -4  -7  16 259.304 115.890  16
   4  -7  16 428.774 303.548  16
  -7   4 -16-136.723 335.352   7
   7  -4  16 537.469 352.726  16
   4   7 -16 118.277 244.697   7
  -7  -4  16 292.182 154.527  16
  -7   4 -16-343.762 434.122  15
   4   7 -16-63.8540 379.202  15
   7  -4  16 714.673 385.451  14
  -4  -7  16-70.9405 233.655   6
   4  -7  16 325.031 145.907  14
   7  -4  16 449.412 249.496   6
   4  -7  16 397.004 323.025   6
   4   7 -16 500.079 270.321   3
   7   5  -2-47.7586 208.852   1
   7   5  -2 2.19553 221.604  18
  -7  -5   2-88.7112 204.928  17
   7  -5   3-100.990 135.606   6
   7   5  -3-289.195 215.587   1
   7   5  -3-13.9434 154.376  18
  -7  -5   3-178.689 186.158  17
  -7   5  -3-89.6752 158.975  19
   7  -5   3 10.0849 157.172  14
   7  -5   4 2.31435 97.5222   6
  -7   5  -4 129.907 86.6120  12
  -7   5  -4-128.072 183.084   5
  -7   5  -4 62.3836 65.4189  19
   7   5  -4 49.0645 122.278   1
   7   5  -4 74.2386 134.029  18
   7   5  -4-15.6547 73.6785   8
  -7  -5   4 51.9786 139.967  17
   7  -5   4 12.0421 88.9743   8
  -7   5  -4-91.0205 166.303   4
   7  -5   4 27.5672 73.0238   1
   7  -5   4 37.7090 106.926  14
   7   5  -5 9.52686 109.110  13
   7  -5   5 37.6229 67.3030   6
  -7   5  -5 96.5350 112.201  12
  -7   5  -5 27.7507 24.7716   5
  -7   5  -5 59.5818 96.7710  19
   7   5  -5 0.92086 71.0136  18
   7   5  -5-9.88656 78.7021   8
  -7  -5   5-123.645 179.869  17
   7  -5   5 40.8309 87.0066   1
   7  -5   5 42.3441 79.7738   8
   7   5  -5-23.3924 134.247   1
  -7   5  -5 24.2239 66.8702   4
  -7   5  -5-313.803 239.152   3
   7  -5   5 23.6305 27.8764  14
   7   5  -6 283.001 174.255  13
   7  -5   6 170.401 145.880   6
  -7   5  -6 279.977 146.362  12
  -7  -5   6-218.243 310.716   2
  -7   5  -6 290.427 156.789   5
  -7   5  -6 254.780 167.301  19
   7   5  -6 306.274 234.738  18
   7   5  -6 204.286 160.677   8
   7   5  -6 233.335 184.639   1
  -7  -5   6 142.939 162.722  17
   7  -5   6 129.242 100.073   8
  -7   5  -6 201.245 151.610   4
   7  -5   6 238.823 129.637   1
  -7   5  -6 219.922 155.175   3
   7  -5   6 211.214 167.494  14
   5   7  -7-73.8709 252.472  13
   7   5  -7 97.7305 105.671  13
   7  -5   7 96.0226 109.712   6
   5  -7   7 71.3414 162.361   6
  -7   5  -7 12.2475 63.8230  12
  -5   7  -7-36.1708 181.166  12
  -7  -5   7-296.819 195.522   2
  -7  -5   7-16.3283 7.19478  19
  -7   5  -7 92.7739 99.3866   5
   5   7  -7-6.63031 133.533  18
   7   5  -7 100.828 149.547  18
   7   5  -7 84.5158 79.5204   8
  -5  -7   7-43.1378 183.953  17
  -7  -5   7-82.7808 92.6057  17
   7   5  -7-56.4408 175.962   1
   7  -5   7 18.0740 20.0807   8
  -7   5  -7 78.7530 89.5153   4
  -7   5  -7 93.8374 75.7311  19
   7  -5   7 39.2625 61.2134   1
  -7   5  -7 88.2141 115.114   3
   7  -5   7 108.150 98.2288  14
   5   7  -8 161.834 156.067  13
   7   5  -8 265.883 170.195  13
   7  -5   8 193.775 143.925   6
   5  -7   8 75.2454 136.945   6
  -7   5  -8 71.6733 35.1736  12
  -5   7  -8 166.109 149.997  12
   7  -5   8 117.492 59.7196   1
  -7   5  -8 132.735 63.5389   5
  -7  -5   8 34.9926 31.9144   2
  -7  -5   8 120.399 144.992  19
  -7   5  -8 229.471 159.290  19
   5   7  -8 268.360 221.914  18
   7   5  -8 279.308 220.982  18
  -5  -7   8 9.79315 195.834  17
   7   5  -8 239.419 109.546   8
  -7  -5   8 42.7845 169.991  17
   7  -5   8 87.0323 78.6215   8
   7   5  -8 181.300 169.026   1
  -7   5  -8 95.1403 72.2505   4
  -5   7  -8 185.870 137.319   3
  -7   5  -8 106.119 51.9480   3
   7  -5   8 150.537 108.253  14
   5   7  -9 458.411 261.302  13
   7  -5   9 451.809 222.025   6
   7   5  -9 400.069 191.019  13
   5  -7   9 183.236 158.560   6
  -5  -7   9 19.3805 60.2809   6
  -7   5  -9 376.106 179.246  12
  -5   7  -9 551.283 237.836  12
  -7   5  -9 405.191 177.690   5
  -7  -5   9 153.394 112.698  19
  -7  -5   9 97.5262 95.7104   2
  -7   5  -9 456.597 205.555  19
   5   7  -9 322.983 230.738  18
   7   5  -9 360.459 240.620  18
  -5  -7   9 90.8798 186.953  17
  -7  -5   9 147.667 191.149  17
   7   5  -9 539.538 150.273   8
   7  -5   9 273.517 159.201   8
  -7   5  -9 423.717 196.550   4
   7   5  -9 403.292 292.462   1
   7  -5   9 366.467 133.292   1
  -5   7  -9 285.950 137.877   4
  -5   7  -9 463.499 269.115   3
   7  -5   9 356.813 186.935  14
  -7   5  -9 258.834 202.561   3
   5  -7   9 312.419 314.282  14
  -7   5 -10 289.527 233.649   3
  -7   5 -10-252.430 286.360  13
   7  -5  10 275.238 191.932   6
   5   7 -10 256.675 187.452  13
   7  -5  10 146.777 102.631   1
   7   5 -10 134.069 113.148  13
   5  -7  10 186.490 183.404   6
  -5  -7  10 60.9571 80.7041   6
  -7   5 -10 188.594 142.712  12
  -5   7 -10 250.944 159.375  12
  -7   5 -10 159.991 70.7624  11
  -7   5 -10 201.287 115.183   5
  -7   5 -10 170.852 121.827  19
  -5   7 -10 33.0616 179.273   5
  -7  -5  10 102.146 91.9789  19
  -7  -5  10 96.4321 154.063   2
   5   7 -10 217.234 163.398  18
   7   5 -10 168.993 161.354  18
  -5  -7  10 26.9551 189.257  17
  -7  -5  10 265.027 228.427  17
   7   5 -10 234.679 104.543   8
  -7   5 -10 232.569 180.666   4
   7  -5  10 184.100 141.580   8
   7  -5  10-149.437 556.698  16
  -5   7 -10 276.182 174.646   4
   7   5 -10 127.005 210.862   1
   7   5 -10 242.264 166.977   3
  -5   7 -10 126.903 154.452   3
   7  -5  10 198.389 139.305  14
   5  -7  10 188.595 195.195  14
   7  -5  11 134.879 149.636   6
  -7   5 -11-3.31326 32.7125   3
  -7   5 -11-31.7716 62.0487  13
   7  -5  11 37.9365 54.9150   1
  -5  -7  11-20.7425 40.4438   6
   5   7 -11-15.6462 82.8742  13
   5  -7  11-18.3812 94.1344   6
   7   5 -11 17.9395 41.2206  13
  -7   5 -11 12.0623 68.7195  12
  -5   7 -11 46.9646 48.0824  12
   7   5 -11 32.8352 161.864  11
   7   5 -11 165.593 183.914  20
  -7   5 -11 9.18295 33.2529  11
   5  -7  11-85.7247 133.318   1
  -7   5 -11-47.4823 39.6798   5
  -5  -7  11-386.622 459.912   2
  -5  -7  11-14.6415 65.7244  19
  -5   7 -11 0.71255 14.6772   5
  -7  -5  11 14.1223 38.2826  19
  -7   5 -11-6.82573 47.5271  19
  -7  -5  11-18.8453 55.8296   2
  -5   7 -11-141.522 200.138  18
   5   7 -11 80.9507 96.0833  18
   7   5 -11 14.5315 95.1787  18
   5   7 -11 0.55736 29.4511   8
   5  -7  11-173.903 161.464  17
  -5  -7  11 2.55452 123.840  17
  -7  -5  11-65.9510 129.307  17
  -7   5 -11 45.9363 75.4470   4
   7  -5  11 3.56679 111.711   8
   7   5 -11 42.9774 48.4105   8
  -7  -5  11-276.557 275.203  16
   7  -5  11-103.712 289.882  16
  -5   7 -11 114.835 142.067   4
   7   5 -11-36.4286 156.952   1
   5   7 -11-62.6920 158.364   3
   7   5 -11 10.0287 42.5839   3
   7  -5  11 50.2439 68.2385  14
  -5   7 -11-2.74696 66.9262   3
   5  -7  11 88.6953 120.078  14
   7  -5  12 1123.18 379.961   6
  -5  -7  12 268.256 161.858   6
  -5   7 -12 359.057 345.757  13
  -7   5 -12 22.9344 123.316  13
  -7   5 -12 624.807 313.867   3
   5  -7  12 757.166 336.858   6
   5   7 -12 1108.93 385.885  13
   7   5 -12 1041.67 315.437  13
  -7   5 -12 597.129 269.932  12
  -5   7 -12 1011.40 330.913  12
  -5   7 -12 1213.94 236.175   5
  -7   5 -12 960.770 211.552  11
   7   5 -12 1378.50 463.820  11
   5  -7  12 596.381 139.603   1
  -7   5 -12 783.318 322.159   5
   5   7 -12-278.095 358.684   1
   7   5 -12 910.537 411.691  20
   7   5 -12 1836.17 637.856  10
  -5  -7  12-4.77997 243.850   2
  -7  -5  12 610.279 193.395  19
  -7   5 -12 1096.72 325.367  19
  -5   7 -12 1145.45 255.135  18
  -5   7 -12 1222.99 331.517   4
  -5  -7  12 492.825 161.115  19
  -7  -5  12 836.913 375.592   2
   5   7 -12 1402.98 455.145  18
   7   5 -12 1167.24 404.232  18
  -5  -7  12 681.814 394.303  17
   5  -7  12 819.413 259.961  17
  -7   5 -12 826.402 337.970   4
  -7  -5  12 550.502 269.162  17
   7  -5  12 1202.59 363.733   8
   5  -7  12 648.989 327.183   8
  -7  -5  12 596.488 234.253  16
   7  -5  12 1142.91 528.530  16
   7  -5  12 1072.84 396.016   1
   5   7 -12 1159.78 353.089   3
   7   5 -12 1323.53 325.212   3
   7  -5  12 1268.70 336.453  14
   7   5 -12 889.043 448.465   1
  -5   7 -12 1114.37 429.356   3
   5  -7  12 793.835 268.339  14
  -5   7 -13-101.405 227.566  13
   5  -7  13-24.4559 66.7530   6
  -7   5 -13-113.865 191.817  13
   5   7 -13 6.23109 71.5959  13
  -7   5 -13 17.4681 32.8951   3
   7   5 -13 76.5278 124.087  13
  -7   5 -13 215.073 175.593  12
  -5   7 -13 53.8196 76.2197  12
   7   5 -13 212.115 257.785  11
  -7   5 -13-8.19323 54.6758  20
   7   5 -13-1.42854 55.0997  20
  -7   5 -13 182.211 181.168  10
   7   5 -13 173.507 243.964  10
   5   7 -13-221.342 340.082   1
  -5  -7  13-77.0898 174.027   2
  -5   7 -13 42.8487 75.7727  18
   7  -5  13-3.73269 86.0298   1
  -7   5 -13 49.5989 101.766  19
  -7  -5  13-13.1522 18.0151  19
   5   7 -13 107.249 136.365  18
  -7  -5  13 100.775 134.812   2
   7   5 -13 186.811 208.634  18
  -7   5 -13 34.0235 41.9612   4
   5  -7  13 81.5794 90.9984  17
  -5  -7  13-0.74892 99.1598  17
  -7  -5  13 51.4509 138.405  17
   7  -5  13 36.4705 53.9793   8
  -5   7 -13 121.000 122.916   4
   5  -7  13 174.422 235.351   8
  -7  -5  13 83.7249 100.104  16
   7  -5  13-11.1146 102.618  16
  -7   5 -13 546.314 426.539  15
   7   5 -13 96.1965 195.703   1
   7  -5  13 39.9980 112.992  14
   5   7 -13 130.092 155.136   3
   5  -7  13 27.0253 45.3876  14
  -5  -7  13 69.9659 120.824   6
  -5   7 -13 87.4006 119.494   3
   7  -5  13 38.5723 55.9123   6
   7   5 -13 133.067 101.782   3
  -5   7 -14 1144.17 431.747   3
   5  -7  14 866.168 373.252   6
  -5   7 -14 703.451 571.994  13
  -7   5 -14 67.0116 326.985  13
   5   7 -14 981.434 403.463  13
  -7   5 -14 592.412 285.676   3
   7   5 -14 836.928 387.307  13
  -5   7 -14 1099.11 424.139  12
  -7   5 -14 559.920 277.082  12
  -5   7 -14 1530.99 498.412   4
   7   5 -14 1060.02 504.904  11
  -7   5 -14 376.253 248.417  20
   7   5 -14 868.525 595.643  20
  -7   5 -14 713.853 259.244  10
   7   5 -14 1259.99 712.559  10
  -5  -7  14 496.123 415.482   2
   5   7 -14-61.2859 73.9691   1
   7   5 -14 2379.85 947.954   9
  -7   5 -14 797.228 316.209  19
   5   7 -14 1347.69 448.098  18
  -7  -5  14 832.684 418.570   2
   7   5 -14 1031.01 443.792  18
  -7   5 -14 663.545 375.545   4
   5  -7  14 808.700 213.001  17
  -5  -7  14 526.039 534.029  17
  -7  -5  14-403.066 326.222  17
   7  -5  14 1087.78 338.870   8
  -7  -5  14 631.902 535.547  16
   5  -7  14 824.267 349.324   8
   5  -7  14-837.537 482.823  16
   7  -5  14 1046.09 496.855  16
  -5  -7  14-273.529 527.261  16
   5   7 -14 1783.81 592.268   7
  -7   5 -14 1267.13 371.169   9
  -7   5 -14 1260.44 583.951   7
   5   7 -14 1116.36 380.565   3
   5   7 -14 1694.64 614.346  15
  -7   5 -14 1243.20 609.169  15
   7  -5  14 1251.59 371.689  14
   7   5 -14 639.498 577.158   1
  -5  -7  14-10.1295 297.186   6
   5  -7  14 841.329 265.895  14
   7  -5  14 1128.79 415.783   6
   5  -7  15 24.5766 150.395   6
  -5   7 -15-71.4186 139.107   3
  -5   7 -15-176.434 349.957  13
  -7   5 -15-88.4791 180.441  13
   5   7 -15-17.5602 113.096  13
   7   5 -15 545.735 517.335   9
   7   5 -15-35.4600 103.855  13
  -7   5 -15-7.61458 49.0904   3
  -7   5 -15 28.7687 173.446  12
  -5   7 -15-19.6006 39.6915  12
  -7  -5  15 457.592 668.402   5
   5   7 -15-104.863 95.5115  11
  -5   7 -15 125.169 103.811  11
   7   5 -15-117.292 77.9743  11
  -7   5 -15 8.49917 89.4632  20
   7   5 -15-327.721 363.668  20
   7   5 -15-194.050 343.079  10
  -5  -7  15 249.805 355.989   2
  -7   5 -15 120.745 184.802   9
  -7   5 -15 212.899 206.348  19
  -7  -5  15 828.481 655.766  17
   5   7 -15 72.0336 183.545  18
   7   5 -15 24.6671 201.603  18
  -7   5 -15-139.453 348.832   4
  -7  -5  15 80.0115 407.796   2
   5   7 -15 144.788 354.248   1
  -5   7 -15-0.04465 83.7665   4
  -5  -7  15 601.614 449.276  17
   7  -5  15 14.5884 109.193   8
   5  -7  15 19.4286 101.743   8
  -5  -7  15-646.270 342.944  16
   5  -7  15-294.455 574.184  16
   7  -5  15-51.2643 102.424  16
  -7  -5  15 569.898 483.321  16
   5   7 -15-277.589 283.564   7
  -7   5 -15 275.145 287.683   7
   5   7 -15-107.201 135.721  15
  -7   5 -15-134.302 257.373  15
   7   5 -15 546.319 368.570   3
   7  -5  15 107.002 122.984  14
  -5  -7  15 10.8165 299.648   6
  -7   5 -15 73.9344 157.090  10
   5  -7  15 20.1760 102.176  14
   7  -5  15 136.674 32.8560   6
   5   7 -15 154.362 157.860   3
   7   5 -15-318.979 220.877   1
  -5   7 -16 134.540 187.757   3
   7   5 -16 94.8874 84.4181   3
  -7   5 -16-52.8872 127.690   3
  -7   5 -16-86.1089 178.795  12
  -5   7 -16 203.180 201.454  12
   7   5 -16 160.435 324.076  20
  -7   5 -16 151.653 224.491  10
  -7   5 -16-82.3222 117.751  19
  -5   7 -16-81.9131 254.991  19
   7  -5  16 50.6617 120.415   8
   5  -7  16-21.2654 32.7729   8
  -7   5 -16 3.82692 237.356   7
  -5  -7  16 110.438 173.472   6
   7   5 -16 142.523 213.384  18
   5  -7  16 136.649 122.121  14
   5   7 -16 54.7693 7.81204   3
   7   6  -4-11.4879 169.628  18
  -7  -6   4-25.9847 85.1129  17
   7  -6   5 218.810 250.488   6
  -7   6  -5-214.870 173.909  12
   7   6  -5-124.736 265.072   1
  -7  -6   5-25.3409 71.0198  17
   7   6  -5 168.387 181.533  18
   7   6  -6-126.268 203.784  13
  -6  -7   6 31.9628 87.3063  17
   7  -6   6-54.8623 143.390   6
  -7   6  -6-56.4139 132.625  12
  -7   6  -6-181.503 245.707   5
   7   6  -6-148.213 246.511   1
  -7   6  -6-171.209 279.433  19
   6   7  -6-170.789 211.546  18
   7   6  -6-35.5640 136.850  18
   7   6  -6-79.2172 141.813   8
  -7  -6   6 133.150 246.662  17
   7  -6   6-147.272 253.739   8
  -7   6  -6-130.908 183.475   4
   7  -6   6-28.1823 63.5939  14
   6   7  -7 240.538 92.5543  13
   7   6  -7 490.039 237.981  13
   7  -6   7 393.443 247.329   6
   6  -7   7 208.672 229.234   6
  -7   6  -7 700.954 281.604  12
  -6   7  -7 610.318 240.045  12
  -7   6  -7 593.805 243.604   5
   7   6  -7 299.401 234.701   1
  -7   6  -7 664.631 257.781  19
   6   7  -7 384.965 228.215  18
   7   6  -7 430.104 252.330  18
   7   6  -7 337.655 177.889   8
  -6  -7   7 20.9110 111.919  17
  -7  -6   7 80.1672 157.176  17
   7  -6   7 329.135 204.919   8
   7  -6   7 209.078 162.489   1
  -7   6  -7 767.690 293.716   4
  -7   6  -7 504.786 317.909   3
   7  -6   7 356.582 238.931  14
   6   7  -8-16.0583 92.1875  13
   7   6  -8 92.1781 120.914  13
   7  -6   8 3.86015 61.0950   6
  -7  -6   8 17.2992 41.2762   6
   6  -7   8-20.6765 22.5697   6
  -7   6  -8-23.3641 70.5392  12
  -6   7  -8-12.6103 54.5001  12
  -6  -7   8 37.0393 136.930  17
  -7  -6   8-316.455 359.057   2
  -7  -6   8-33.4621 79.5533  19
  -7   6  -8 34.9303 37.4438  19
  -7   6  -8-18.3874 58.4524   5
   6   7  -8-70.1821 157.614  18
   7   6  -8-60.2883 38.8426  18
   7   6  -8 77.3581 107.369   8
   7   6  -8-142.411 244.632   1
  -7  -6   8-128.468 173.236  17
   7  -6   8-0.15062 79.4986   1
   7  -6   8-18.0611 43.1717   8
  -7   6  -8-79.2891 88.5339   4
  -6   7  -8-147.513 278.231   4
  -6   7  -8-38.8813 159.427   3
  -7   6  -8 57.6620 140.190   3
   7  -6   8-37.6412 50.5132  14
  -7  -6   9 56.4463 57.1357   6
   6   7  -9-5.22948 69.3426  13
   7   6  -9-1.67187 64.1197  13
   7  -6   9-14.8974 61.6370   6
   6  -7   9 28.9305 130.701   6
  -6  -7   9-68.0152 46.6872  17
  -6  -7   9-47.7736 76.4575   6
  -7   6  -9 7.86219 8.29546  12
  -6   7  -9 24.4611 46.9732  12
  -7  -6   9-199.666 270.936   2
  -7   6  -9-4.83419 48.5644   5
  -6   7  -9-126.638 219.789   5
  -7   6  -9-65.1930 117.524  19
   6   7  -9 10.1541 67.8800  18
   7   6  -9 30.7522 115.348  18
   7   6  -9-44.3797 126.051   1
   7   6  -9 92.5782 98.3076   8
  -7  -6   9-31.3775 83.9736  19
  -7  -6   9-188.421 222.162  17
   7  -6   9-64.5597 85.5271   8
  -7   6  -9 49.1138 51.6690   4
   7  -6   9 12.0530 71.2011   1
  -6   7  -9 158.090 158.689   4
  -6   7  -9 89.2304 141.907   3
  -7   6  -9-4.05606 49.2810   3
   7  -6   9-12.6947 60.6983  14
   6  -7   9-48.0173 66.0258  14
   7  -6  10-18.8027 11.7697   1
   6   7 -10 38.6427 81.8981  13
   7  -6  10-41.5007 94.4866   6
   7   6 -10-9.51306 54.2117  13
  -6  -7  10-41.2987 55.0860   6
   6  -7  10-6.33995 76.1920   6
   7  -6  10 10.2673 54.2452  17
  -7   6 -10 36.4917 67.8486  12
  -6   7 -10 47.1252 136.640  12
  -7   6 -10-11.4452 60.2618   5
  -7  -6  10-144.500 214.770   2
  -6  -7  10 26.4732 39.9807  19
  -6   7 -10-15.3817 47.0752   5
  -7   6 -10 20.3224 47.0919  19
   6   7 -10-21.3963 105.250  18
   7   6 -10-15.4191 34.5747  18
   6   7 -10 8.02889 43.0609   8
   7   6 -10 10.4418 222.332   1
  -7  -6  10 104.979 135.914  19
  -6  -7  10 295.433 339.423  17
  -7  -6  10 47.4585 161.299  17
   7  -6  10-22.9589 67.7962   8
  -7   6 -10 29.4426 77.3515   4
   6  -7  10-252.255 302.765   8
   7   6 -10-0.75070 43.9583   8
  -6   7 -10-44.9406 81.2625   4
   6  -7  10-32.2280 59.4173   1
  -6   7 -10-95.8359 146.634   3
  -7  -6  10 32.8583 60.9749   6
  -7   6 -10-69.0518 181.649   3
   7  -6  10-10.2548 70.1051  14
   6  -7  10 68.4605 105.807  14
  -6  -7  11 2.30314 42.7560   6
   7  -6  11 242.357 200.994   6
   6   7 -11 179.904 133.762  13
   7   6 -11 124.157 131.587  13
   6  -7  11 122.649 196.235   6
   6  -7  11 67.8300 46.6938   1
  -7   6 -11 174.777 153.168  12
  -6   7 -11 107.333 74.6759  12
  -6  -7  11-466.965 397.484   2
  -7   6 -11 140.851 112.730   5
   6   7 -11-203.334 383.455   1
  -6  -7  11 38.9650 117.193  19
  -7  -6  11 76.3380 121.326   2
  -7  -6  11 133.727 102.038  19
  -7   6 -11 184.362 151.301  19
  -6   7 -11 87.1517 118.202  18
   6   7 -11 124.011 179.611  18
   7   6 -11 152.715 170.698  18
   7  -6  11 173.245 103.996   1
   6  -7  11 77.1015 51.6015  17
  -6  -7  11 2.32964 97.3112  17
   7   6 -11 134.238 221.271   1
  -6   7 -11 165.733 115.167   5
  -7   6 -11 92.3439 86.0558   4
  -7  -6  11 47.1717 114.916  17
   7  -6  11 168.525 121.171   8
   6  -7  11 128.272 68.9708   8
  -6   7 -11 241.181 167.361   4
   7   6 -11 26.8138 181.364   3
  -7  -6  11-7.37178 45.6089   6
  -6   7 -11 25.9442 113.625   3
   7  -6  11 220.778 146.468  14
   6  -7  11 82.7232 67.0386  14
  -7   6 -11 192.193 207.324   3
   7  -6  12-20.4223 9.66402   6
  -7   6 -12-100.319 262.469  13
   6  -7  12 25.6599 39.8105   1
   6  -7  12 120.777 155.916   6
   6   7 -12 93.8840 136.315  13
   7   6 -12 121.146 165.013  13
  -7   6 -12 47.1344 67.9043  19
   7  -6  12 20.4675 61.4313   1
  -7   6 -12-17.1181 58.1153  12
  -6   7 -12 107.325 139.017  12
   7   6 -12 252.058 369.683  11
  -7   6 -12 113.423 149.545   5
  -6   7 -12 86.9081 77.5903   5
   6   7 -12-73.9773 226.122   1
  -6  -7  12-22.2526 33.1502  19
  -7  -6  12 37.5495 83.7378   2
  -7  -6  12-52.6254 88.3938  19
  -6   7 -12-328.774 392.563  19
   7   6 -12 155.698 197.713  18
   6  -7  12 68.7478 48.4843  17
  -6  -7  12 157.376 215.443  17
  -7  -6  12-29.9241 121.386  17
  -7   6 -12 176.768 179.901   4
   7   6 -12-143.161 200.814   1
  -6  -7  12-180.756 298.627   2
   6   7 -12 68.6302 191.901  18
   7  -6  12 31.2493 100.013   8
  -6   7 -12 133.379 149.993   4
   6  -7  12 10.2314 122.683   8
   7  -6  12-717.874 698.656  16
   6   7 -12-83.3900 133.127   3
   7   6 -12 78.8967 49.3024   3
   7  -6  12 81.5431 116.871  14
  -6   7 -12 46.4820 128.531   3
   6  -7  12 17.8389 21.9240  14
  -6  -7  12-2.83328 74.1028   6
  -7   6 -12 66.5573 122.868   3
   7  -6  13 831.227 358.891   6
  -7   6 -13 737.237 375.154   3
  -6   7 -13 294.853 328.115  13
   6  -7  13 541.328 290.841   6
  -7   6 -13 86.3946 356.736  13
   6   7 -13 999.048 428.377  13
  -7   6 -13 854.995 324.206  12
  -6   7 -13 659.154 288.022  12
   7   6 -13 913.932 395.678  11
  -7   6 -13 882.654 358.884   5
   7   6 -13 551.654 415.454  20
  -6  -7  13 139.560 199.880   2
   6   7 -13 368.957 369.879   1
  -7  -6  13 480.255 408.986   2
  -7   6 -13 813.942 366.950   4
  -6   7 -13 637.074 279.199  19
   6   7 -13 959.567 427.703  18
   7   6 -13 895.240 403.408  18
  -7  -6  13 1446.58 881.608  17
  -6   7 -13 730.455 281.827   4
   7  -6  13 690.186 270.878   8
   6  -7  13 619.708 322.139   8
  -7   6 -13 1097.14 387.761  19
   7   6 -13 901.417 683.136   1
  -6  -7  13 977.966 626.958  17
   7  -6  13 273.546 362.775  16
   6   7 -13 1262.28 381.318   3
   7  -6  13 752.030 266.320  14
  -6  -7  13 89.7592 245.341   6
   6  -7  13 741.660 255.279  14
  -6   7 -13 760.469 371.855   3
   6  -7  14-89.1588 144.529   6
  -7   6 -14-103.849 155.701   3
  -6   7 -14 102.695 251.390  13
  -7   6 -14-207.675 334.710  13
   6   7 -14-58.2198 55.7732  13
   7   6 -14 98.5241 336.487  13
  -7   6 -14-38.9021 130.475  12
  -6   7 -14 40.4754 93.4589  12
   6   7 -14-287.889 390.940  11
  -6   7 -14 140.991 159.258  11
   7   6 -14 8.35022 402.088  11
   7   6 -14-140.013 280.618  20
   7   6 -14 418.504 660.974  10
  -7   6 -14-27.9878 6.43427  19
  -7  -6  14 8.68966 244.555   2
   6   7 -14-6.56562 126.256   1
   6   7 -14-154.996 202.797  18
   7   6 -14 46.9516 267.968  18
  -6   7 -14 84.5379 27.3725  19
  -7   6 -14-159.572 132.234   4
  -6  -7  14 442.202 363.283  17
  -6  -7  14-210.670 191.946   2
  -6   7 -14-16.3779 17.2000   4
  -7  -6  14 1368.74 674.589  17
   7  -6  14 43.6675 108.308   8
   6  -7  14-68.0174 147.552   8
  -7  -6  14-152.634 189.663  16
   7  -6  14-167.628 368.084  16
   7   6 -14 8.94401 381.277   1
   6   7 -14 112.610 147.906   3
   7  -6  14-5.74289 49.7074  14
   6  -7  14 18.5778 71.8627  14
   7   6 -14 261.646 226.033   3
  -6   7 -14 0.75358 38.5544   3
   7  -6  14-152.102 212.868   6
   6  -7  15 137.933 147.201   6
  -6   7 -15 309.945 276.145   3
  -6   7 -15 93.1817 351.013  13
  -7   6 -15 237.181 210.199   3
  -7   6 -15 124.899 313.031  13
   6   7 -15 300.779 209.838  13
   7   6 -15 609.292 319.945  13
  -7   6 -15 277.521 204.927  12
  -6   7 -15 312.787 222.481  12
  -6   7 -15 232.948 282.330   4
  -7   6 -15 39.8116 93.2516  20
   7   6 -15 252.051 297.273  20
  -7   6 -15 526.351 309.390  10
   7   6 -15 460.757 463.618  10
  -7   6 -15 302.513 228.644  19
  -6   7 -15 126.151 54.8688  19
   6   7 -15 104.681 138.768   1
   6   7 -15 338.083 253.544  18
   7   6 -15 453.638 314.011  18
   6   7 -15 210.065 193.822  20
  -6  -7  15 407.522 325.829  17
  -7  -6  15 665.187 475.895  17
   7  -6  15 406.559 245.422   8
   6  -7  15 374.318 260.605   8
   7  -6  15 80.5810 115.527  16
   7  -6  15 312.225 141.421  14
   6  -7  15 320.595 178.461  14
   6   7 -15 347.153 222.215   3
   7   6 -15 459.206 214.102   3
   7  -6  15 420.331 292.859   6
   7   7  -5-116.554 189.652  18
  -7  -7   5 47.4468 92.3357  17
   7   7  -6 550.674 293.838  18
  -7  -7   6-16.6900 182.839  17
   7  -7   7 13.5828 91.0037   6
  -7   7  -7-75.1019 184.794  12
  -7  -7   7 96.3510 207.443  17
  -7   7  -7-320.844 342.328   4
   7   7  -7 23.9496 83.1036  18
   7   7  -8 506.687 220.213  13
   7  -7   8 145.056 137.732   6
  -7  -7   8-152.187 188.898   6
  -7   7  -8 492.590 248.476  12
   7   7  -8-101.055 377.153   1
   7   7  -8 649.457 330.843  18
   7   7  -8 181.972 112.300   8
  -7   7  -8 629.241 281.861   5
  -7  -7   8-142.930 176.563  17
   7  -7   8-208.814 525.183   8
  -7   7  -8 486.419 237.925   4
  -7   7  -8 336.463 214.032   3
   7  -7   8 348.433 252.987  14
   7   7  -9-2.05763 35.7641  13
   7  -7   9 63.0947 152.062   6
  -7  -7   9 49.0927 74.5580   6
  -7   7  -9 37.8208 93.7967  12
   7   7  -9-335.333 410.385   1
  -7  -7   9 9.68101 104.640  17
  -7   7  -9-18.8605 37.7598   5
   7   7  -9 85.5384 79.2424  18
   7   7  -9 5.23269 76.1644   8
  -7  -7   9 61.9463 113.138  19
   7  -7   9 7.62903 56.8043   1
   7  -7   9-174.372 302.890   8
  -7   7  -9-6.07267 87.5055   4
  -7   7  -9-20.2751 101.325   3
   7  -7   9 75.5625 164.337  14
  -7  -7  10-78.6060 73.5938   6
   7   7 -10 56.6038 104.889  13
   7  -7  10-12.7560 49.3808   6
  -7   7 -10-67.1033 110.893  12
   7  -7  10 0.04307 44.1613   1
  -7  -7  10-44.7536 113.886  19
  -7   7 -10 101.786 117.781   5
   7   7 -10 168.554 200.348  18
  -7  -7  10 169.669 266.203  17
   7   7 -10-97.0153 248.858   1
   7  -7  10-65.4589 184.521   8
  -7   7 -10 80.1510 114.902   4
  -7   7 -10-0.05304 65.4500   3
   7  -7  10-51.8708 109.999  14
   7   7 -11-84.9193 125.485  13
   7  -7  11-34.5773 84.0183   6
  -7   7 -11 27.1384 77.3443  12
   7  -7  11 13.0545 66.9582   1
  -7   7 -11-39.5473 43.7358   5
  -7  -7  11 4.87876 50.6692  19
   7   7 -11-506.278 327.691   1
  -7   7 -11-390.438 266.362  19
   7   7 -11 71.9680 174.617  18
  -7  -7  11-43.9887 32.5795  17
  -7   7 -11 28.0751 94.3726   4
   7  -7  11-45.6327 90.5210   8
  -7   7 -11-49.4004 125.432   3
   7  -7  11 40.9073 75.2074  14
   7  -7  12 127.462 199.764   6
   7   7 -12 271.987 184.372  13
  -7   7 -12 208.758 167.349  12
  -7   7 -12 165.382 127.475   5
  -7  -7  12-204.473 416.481   2
   7   7 -12 1072.85 527.281   1
   7   7 -12 360.848 204.532  18
  -7   7 -12 256.103 159.966  19
  -7  -7  12 485.389 415.627  17
  -7   7 -12 29.9084 16.1693   4
   7  -7  12 216.563 198.006   8
  -7  -7  12 186.872 134.008  19
  -7   7 -12 153.053 168.552   3
   7  -7  12 181.791 105.761  14
  -7   7 -13 52.0238 93.4889  19
   7  -7  13-14.1392 102.490   6
   7   7 -13-31.3842 97.3498  13
  -7   7 -13-11.8354 65.3367  12
  -7  -7  13-211.071 259.777   2
   7   7 -13-74.2541 161.983  18
   7   7 -13 90.5799 215.154   1
  -7  -7  13-255.600 269.035  17
  -7   7 -13 34.7081 123.577   4
   7  -7  13-54.8028 120.311   8
   7   7 -13-368.481 218.394   3
   7  -7  13 12.2934 12.6734  14
  -7   7 -13 37.4586 176.242   3
   8   0   0 254.406 94.4239  13
  -8   0   0 340.963 135.384  12
   8   0   0 710.296 243.933  11
  -8   0   0 328.852 176.068   5
   8   0   0 429.831 189.983   1
  -8   0   0 274.536 153.469  19
  -8   0   0 367.944 137.788   2
   8   0   0 549.279 212.218  18
   8   0   0 552.989 205.933   8
  -8   0   0 319.979 170.422   4
  -8   0   0 268.407 180.285  17
   8   0   0 622.982 197.759   6
   8   0   0 536.979 233.658  14
   8   0  -1 56.3045 71.2581   6
   8   0  -1 40.4357 42.4205  13
  -8   0  -1-16.6405 30.1877  12
  -8   0   1 26.7311 48.0772   2
  -8   0   1-88.4042 81.4041  12
   8   0   1 34.6801 80.4216  11
   8   0   1-1.79104 27.5728   1
   8   0  -1-8.67760 90.1983  11
  -8   0  -1 1.55162 61.4087   5
  -8   0   1 44.7356 71.9471   5
  -8   0  -1-38.9948 28.7214  19
  -8   0   1 44.4094 97.9607  19
  -8   0  -1-5.91700 41.8994   2
   8   0   1 85.1905 72.7601  18
  -8   0  -1 8.78836 67.7201   4
   8   0   1 60.2975 109.325   8
   8   0  -1 69.0738 104.386  18
   8   0  -1 21.2698 29.1261   8
  -8   0  -1-10.0322 70.4287  17
  -8   0   1 26.9751 99.2256  17
  -8   0   1 30.2716 18.2077   4
   8   0  -1 5.14286 43.0034   1
  -8   0  -1 93.6209 136.188   7
  -8   0  -1 81.0975 148.252  15
   8   0   1 59.3823 92.4753  14
   8   0  -1-18.7147 62.8200  14
  -8   0  -1 23.4852 60.7054   3
   8   0   1 9.30163 47.3136   6
  -8   0  -2 368.365 131.855   3
   8   0   2 999.069 303.438   1
  -8   0  -2 529.158 201.957  12
   8   0  -2 938.670 290.652   1
  -8   0   2 497.264 228.612  12
  -8   0   2 742.641 187.798   2
   8   0   2 1339.15 256.484  11
  -8   0  -2 519.976 231.894   5
   8   0  -2 800.503 292.326  11
  -8   0  -2-45.1588 218.933   2
  -8   0   2 622.454 241.264   5
  -8   0  -2 440.210 211.270  19
  -8   0   2 711.010 219.655  19
  -8   0   2 813.155 252.303   4
   8   0   2 995.971 253.099  18
   8   0  -2 950.768 300.044  18
   8   0   2 956.013 291.780   8
   8   0  -2 900.478 251.434   8
  -8   0  -2 473.567 229.676   4
  -8   0  -2 525.270 208.101  17
  -8   0   2 559.249 245.107  17
  -8   0  -2 763.949 307.092   7
   8   0   2 1121.31 285.360   6
   8   0  -2 1017.33 194.924   6
  -8   0  -2 928.802 358.947  15
   8   0   2 988.231 316.402  14
   8   0  -2 887.167 285.991  14
   8   0  -3-44.5900 57.1563   6
  -8   0  -3 75.2582 111.051   3
   8   0   3-29.9454 84.7857  11
  -8   0  -3-10.7551 27.3030   5
   8   0  -3-250.869 221.542  11
  -8   0   3-39.0826 41.0419   5
  -8   0  -3-32.7885 102.152  19
  -8   0   3-18.3098 21.6265  19
   8   0   3-1.07837 56.9776  18
   8   0  -3-55.0273 128.596  18
  -8   0  -3 7.74242 54.6760   4
   8   0   3-2.17808 27.1711   8
  -8   0  -3 4.43460 32.0213  17
  -8   0   3 17.3701 60.4432  17
   8   0  -3-43.4280 77.4446   8
  -8   0   3-9.82726 31.1117   4
  -8   0   3-16.4100 36.7467   2
   8   0   3-2.71444 32.9694  16
  -8   0  -3-9.52473 81.1930   7
   8   0  -3-95.0417 106.175   1
  -8   0  -3 73.2932 163.236  15
   8   0   3-54.2861 123.938  14
   8   0  -3 0.31649 29.9346  14
   8   0   3 7.58062 43.5777   6
   8   0   3 4.73943 78.3412   1
   8   0  -4 160.471 66.0147   6
   8   0   4 283.165 97.1497  11
  -8   0  -4 42.8088 45.4562   5
   8   0  -4 126.830 89.2026  11
  -8   0  -4 12.3200 77.3924  19
  -8   0   4 149.946 113.049   5
   8   0   4 256.842 102.006  18
   8   0  -4 107.627 98.2486  18
  -8   0  -4 43.4612 59.7408   4
   8   0   4 124.242 119.138   8
  -8   0  -4 153.406 85.8494  17
  -8   0   4 141.632 73.4500  17
   8   0  -4 147.355 94.9032   8
  -8   0   4 195.444 125.994   4
  -8   0   4 190.000 106.998   2
  -8   0  -4-84.1560 224.785   7
   8   0   4 223.758 91.1397  16
  -8   0   4 100.746 56.6584  16
  -8   0  -4 4.85532 197.410  15
   8   0   4 192.579 86.5727   1
  -8   0   4 122.963 100.964  19
   8   0   4 223.387 161.780  14
   8   0   4 168.146 159.265   6
   8   0  -4 165.622 116.587  14
   8   0  -4 122.120 93.8733   1
   8   0  -5 91.7147 64.7991   6
   8   0  -5 3.57635 44.6643   1
   8   0  -5 90.3679 171.875  11
  -8   0   5-170.558 125.992   5
   8   0   5 24.4448 25.7783  18
  -8   0  -5 14.3705 79.3812   4
   8   0  -5 54.5155 74.9854  18
   8   0   5-62.9575 41.1995   8
  -8   0  -5 98.5091 106.303  17
  -8   0   5-157.531 194.431  17
   8   0  -5-69.2805 103.084   8
  -8   0   5 9.88148 12.9169   4
  -8   0  -5 59.4920 166.165  19
  -8   0  -5-248.193 361.241   7
   8   0   5-7.92388 119.559   1
   8   0   5 40.6186 37.1204  16
  -8   0   5-25.9502 24.6392   2
  -8   0   5 76.5886 83.2471  16
  -8   0  -5-272.620 373.345  15
  -8   0   5 18.1929 31.2638  19
   8   0   5 42.6743 128.770  14
   8   0   5 49.3679 137.788   6
   8   0  -5 167.474 132.232  14
   8   0  -6 280.388 144.410   6
  -8   0   6 360.769 158.694  19
   8   0  -6 36.9211 90.2082  11
   8   0  -6 177.684 152.695   1
  -8   0   6 323.029 159.870   5
  -8   0  -6-126.955 195.203  19
   8   0   6 464.699 145.744  18
  -8   0  -6-97.7290 278.634   4
   8   0  -6 280.549 174.890  18
   8   0   6 341.208 179.073   8
  -8   0  -6 98.6808 69.4196  17
   8   0   6 582.875 311.451   1
  -8   0   6 316.105 179.965  17
   8   0  -6 355.034 191.119   8
  -8   0   6 429.728 191.508   4
   8   0   6 403.215 165.813  16
  -8   0   6 391.423 166.373   2
  -8   0   6 405.231 179.301  16
   8   0   6 449.526 284.492  14
   8   0   6 572.473 274.516   6
   8   0  -6 268.225 175.780  14
   8   0  -7 33.2961 88.1544  11
  -8   0  -7 92.4118 152.059  19
  -8   0   7-23.4120 96.4288  19
   8   0  -7-22.9526 108.878   1
   8   0   7 16.2563 62.9003  18
   8   0   7-12.2337 133.464   1
   8   0   7-16.9544 64.8993   8
   8   0  -7 139.934 159.357  18
  -8   0  -7 17.7462 40.0511  17
  -8   0   7-12.4097 95.0463  17
  -8   0   7-36.0936 94.9405   4
   8   0   7-9.27422 82.9671  16
  -8   0   7 228.451 191.580  16
  -8   0   7-43.5101 108.713   2
   8   0   7-57.8639 66.5628  14
  -8   0   7 3.84217 58.3128   5
   8   0   7-70.5516 135.545   6
   8   0  -7 53.5708 70.5307  14
   8   0  -8 51.9798 79.4592  11
   8   0   8-46.2180 184.367   1
  -8   0  -8 184.889 234.762  19
  -8   0   8 87.0672 111.423   5
   8   0   8 142.865 89.6891  18
  -8   0   8 61.9322 57.3064  19
   8   0   8 87.0826 173.186   8
  -8   0  -8-3.82882 63.3623  17
   8   0  -8 90.3907 127.817   1
  -8   0   8-47.2970 159.263  17
  -8   0   8 101.230 103.264   4
   8   0   8 165.298 171.485  16
  -8   0   8 216.951 211.965  16
  -8   0   8 45.8245 75.5913   2
   8   0  -8 24.6561 90.2213  18
   8   0   8 23.7573 48.2851  14
   8   0   8 122.332 143.992   6
   8   0  -8 53.7896 91.4147  14
   0   8  -9-231.463 517.947  13
   8   0  -9 50.9420 160.231  11
  -8   0   9-36.0763 60.1107   5
   8   0  -9 11.6841 63.8232  18
   8   0   9-94.8445 140.368   8
  -8   0  -9-10.0767 45.2596  17
  -8   0  -9-0.31606 22.0966  19
  -8   0   9 50.1952 117.583  17
  -8   0   9 19.3151 63.1140   4
   8   0   9 89.5337 181.755  16
   8   0  -9 19.3388 44.0468   1
  -8   0   9 136.155 210.998  16
  -8   0   9-19.1947 61.7926   2
   8   0   9-75.0007 114.005  14
   8   0   9-18.5652 65.2096   6
   8   0  -9-21.6928 51.8376  14
   0   8 -10 520.182 318.135  13
   0  -8  10 94.8062 143.712   6
  -8   0 -10-153.876 206.841  19
  -8   0  10 654.430 293.487   5
   8   0 -10 241.462 209.396  18
   8   0  10 365.228 243.361   8
  -8   0  10 658.770 353.286  17
  -8   0  10 417.709 150.438   4
   8   0  10 593.116 315.361  16
  -8   0  10 513.103 344.455  16
  -8   0  10 525.644 286.043   2
   8   0  10 530.251 331.018  14
   8   0  10 409.240 217.925   6
   0   8 -10 591.366 248.101   3
   8   0 -10 232.381 204.091   1
   8   0 -10 196.890 261.549  11
   8   0 -10 293.526 167.280  14
   0   8 -11 157.763 224.445  13
   8   0 -11 190.472 219.941   1
   0  -8  11 62.4532 125.261   6
   8   0 -11 37.6704 64.4749  11
  -8   0 -11-8.00880 23.1059  19
  -8   0  11 64.7742 120.489   5
   8   0  11-9.70912 14.3633   8
   0  -8  11 173.882 272.187  17
   0   8 -11-190.218 274.461  18
  -8   0  11-123.404 249.365  17
  -8   0  11-136.805 200.010   4
   8   0  11 146.088 146.846  16
  -8   0  11 167.577 271.562  16
  -8   0  11 51.9078 105.608   2
   8   0  11 66.6091 161.780  14
   8   0  11 63.3372 100.784   6
   0   8 -11 22.7153 71.4093   3
   8   0 -11-51.9456 47.1144  14
   0  -8  12 762.747 301.304   6
   0   8 -12 1826.16 441.240  12
  -8   0  12 2375.29 635.941   5
   8   0 -12 832.665 424.222   1
  -8   0  12 1937.05 595.109   2
  -8   0 -12-157.810 188.091  19
   0   8 -12 2137.28 601.719  18
   8   0  12 2140.84 647.608   8
  -8   0  12 2302.32 721.488  17
   0  -8  12 274.411 382.398  17
   8   0  12 2154.96 631.992  16
   8   0  12 1529.11 509.855   6
  -8   0  12 2315.31 819.237  16
   0   8 -12 1761.65 468.925   3
   8   0  12 1860.61 613.888  14
   8   0 -12 964.143 326.905  14
   0   8 -12 1824.32 604.661  13
   0   8 -13 53.2231 98.6126  13
   0  -8  13 103.040 176.029   6
   0   8 -13-19.1531 112.003  12
   8   0 -13-3.58578 84.4071   1
  -8   0 -13 31.7335 167.604  19
  -8   0  13 20.1241 69.6348   5
   0   8 -13 75.3315 145.826  18
   8   0  13 72.0630 126.467   8
   0  -8  13 64.8449 57.1637  17
  -8   0  13-139.226 231.266  17
   8   0  13 233.216 188.016  16
   8   0  13-44.3161 158.587   6
  -8   0  13-123.735 179.859   2
   0   8 -13-11.8549 80.9859   3
   8   0 -13 83.3501 162.406  14
   0  -8  14 573.111 322.914   6
   0   8 -14 1523.77 548.866  13
   0   8 -14 1410.46 396.295  12
  -8   0  14 2191.68 663.275   5
  -8   0  14 1714.44 551.322   2
   8   0 -14 327.427 334.238   1
  -8   0 -14 158.883 202.349  19
   0   8 -14 1679.55 462.891  18
   8   0  14 1443.38 570.631   8
   0  -8  14 671.967 370.798  17
  -8   0  14 1234.66 471.497  17
   8   0  14 1607.42 574.398  16
   0   8 -14 1174.18 393.464   3
   8   0  14 1007.51 435.631   6
   8   0 -14 565.856 288.321  14
   0  -8  15-54.4261 49.6319   6
   0   8 -15-60.2871 163.922  13
   0   8 -15-54.9621 58.7771  12
   8   0 -15 133.473 243.693   1
   0   8 -15 11.7637 50.6466  18
   8   0  15 2.03978 99.6326   8
   0  -8  15 125.056 213.462  17
  -8   0  15-444.778 504.808  17
   0  -8  15-682.392 553.837  16
   8   0  15-57.6004 102.691  16
   8   0  15 43.4549 164.157   6
  -8   0  15 224.175 282.725   2
   0   8 -15-38.1581 133.995   3
   8   0 -15 61.8620 168.883  14
   0  -8  16 162.928 283.962   6
   0   8 -16 142.670 98.6899  13
   0   8 -16 145.124 121.039  12
   0   8 -16 271.193 201.553  18
   8   0  16 154.884 195.208   8
   0  -8  16-19.7510 68.5749  17
   0  -8  16-249.834 454.150  16
   8   0  16-15.7856 100.970  16
   8   0  16 98.8934 103.707   6
   0   8 -16 108.721 154.763   3
  -8  -1   0 60.1326 49.8602   3
   8  -1   0 345.681 131.435   6
   8   1   0 415.329 215.851   1
  -8  -1   0 367.856 157.927  12
  -8   1   0 365.407 188.368  12
   8   1   0 568.223 187.016  11
  -8  -1   0 155.786 113.222   5
  -8   1   0 299.327 161.221   5
  -8  -1   0 142.990 110.225   2
  -8   1   0 243.398 131.548  19
   8   1   0 375.070 160.041  18
   8  -1   0 299.970 172.233  18
   8   1   0 533.107 157.541   9
  -8  -1   0 159.589 139.546   4
   8   1   0 365.991 175.880   8
  -8  -1   0 162.144 117.013  17
   8  -1   0 360.120 160.920   8
  -8   1   0 205.138 141.881  17
  -8   1   0 331.951 161.891   4
  -8   1   0 205.369 80.1525   2
   8  -1   0 252.420 131.338   1
   8   1   0 289.729 189.608  14
   8   1   0 409.691 203.426   6
   8  -1   0 372.424 188.078  14
  -8  -1   0 207.515 150.953  19
   8   1   1 1475.73 397.770   1
   8   1  -1 1286.68 346.401   1
  -8  -1   1 608.176 167.439  12
  -8   1  -1 755.247 239.053  12
  -8   1  -1 844.341 269.364   5
   8  -1   1 1075.15 286.835   1
  -8   1   1 1020.82 300.625   5
  -8   1   1 739.644 288.898  12
  -8   1  -1 868.269 165.559   2
   8  -1  -1 1105.08 300.776   1
   8   1  -1 1712.77 324.555  11
  -8  -1  -1 530.714 267.726   5
  -8   1   1 975.261 201.775   2
  -8  -1   1 753.766 284.066   5
  -8   1  -1 811.170 266.876  19
  -8   1   1 998.064 283.238  19
  -8  -1  -1 464.818 232.842  19
  -8  -1   1 743.473 261.432  19
  -8   1  -1 802.895 267.741   4
   8   1   1 1248.50 293.427  18
   8   1  -1 1500.58 330.873  18
   8  -1   1 1281.83 349.540  18
  -8   1   1 1100.16 291.168   4
   8  -1  -1 1185.14 406.057  18
   8   1   1 1439.49 379.213   8
  -8  -1   1 608.474 206.086   2
   8   1  -1 1271.28 311.784   8
   8  -1   1 1038.21 279.665   8
   8  -1  -1 1098.89 291.425   8
   8   1  -1 1226.12 268.985   9
  -8  -1  -1 475.851 233.569   4
  -8  -1   1 679.270 266.247   4
  -8  -1  -1 601.740 226.374  17
  -8   1  -1 638.130 261.778  17
  -8   1   1 864.370 366.034  17
  -8  -1   1 510.972 191.685   7
   8   1   1 1169.96 351.382   6
   8   1  -1 1410.12 326.119   6
  -8  -1   1 765.833 278.013  17
   8  -1   1 1089.76 252.232   6
  -8  -1   1 707.608 255.227  15
   8  -1  -1 1136.09 238.776   6
   8   1   1 1428.95 409.207  14
   8   1  -1 1191.79 370.539  14
   8  -1   1 1135.69 316.253  14
   8  -1  -1 1151.21 336.687  14
  -8   1  -1 4.53481 63.3563   3
   8   1  -1 885.709 218.902  13
   8  -1   2 83.6195 76.9103   6
   8   1  -2 108.537 57.8239  13
   8  -1  -2 121.555 77.6171   6
  -8   1  -2 38.7897 56.0494  12
  -8  -1   2 39.3864 52.3555  12
  -8  -1  -2 22.2325 25.3695   5
   8   1  -2 201.860 141.636  11
   8  -1  -2 41.4227 68.2682   1
  -8   1  -2 70.7787 94.2493  19
  -8  -1   2 80.1225 100.730   5
   8   1  -2 103.093 111.432   1
  -8   1  -2 69.4204 85.3116   5
  -8   1  -2 103.340 59.8995  20
  -8   1   2 28.2325 61.9458   5
  -8  -1  -2-1.97221 124.411  19
  -8  -1   2 177.707 120.734  19
  -8   1   2 127.531 110.296  19
   8   1  -2 2.05190 67.9156   9
   8  -1   2 77.1628 69.2712   1
  -8   1  -2 89.8954 59.7063   2
   8   1   2 114.229 96.2410  18
  -8  -1   2 122.809 98.6368   2
   8   1  -2 159.613 115.649  18
   8  -1   2 168.749 111.870  18
  -8  -1  -2-95.7612 146.218   4
   8  -1  -2 114.823 144.778  18
   8   1   2 139.794 137.033   8
  -8  -1  -2 83.0296 98.0748  17
  -8  -1   2 138.239 127.324   4
   8   1  -2 89.0621 95.5497   8
   8  -1   2 72.2183 71.7154   8
  -8  -1   2 124.638 165.039  17
  -8   1  -2 71.8434 77.8418   4
  -8   1  -2 1.85726 93.8733  17
  -8   1   2 176.243 199.998  17
   8  -1  -2 77.7223 85.3914   8
  -8   1   2 97.2605 94.0085   4
  -8  -1   2-6.59473 103.983   7
   8   1   2 118.901 68.8024  16
  -8   1   2 115.679 91.8312   2
  -8  -1   2 106.676 110.708  15
   8   1   2 57.3780 52.7870   1
   8   1   2 48.9180 43.3771   6
   8   1   2 98.8595 70.1700  14
   8   1  -2 54.7508 76.5293  14
   8  -1   2 34.9761 26.3036  14
   8   1  -2-8.61130 67.8673   6
  -8   1  -2-36.4504 107.101   3
   8  -1  -2 35.9165 26.4295  14
  -8   1  -3 197.692 113.450   3
   8   1  -3 415.629 110.670  13
   8  -1  -3 295.778 122.794   6
  -8   1  -3 173.625 115.637  12
  -8  -1   3 83.2325 53.9754  12
   8   1  -3 663.052 235.911  11
  -8   1  -3 152.884 90.6976   5
  -8  -1   3 314.385 207.768   5
   8  -1   3 384.267 160.535   1
  -8   1  -3 140.186 53.8118   2
  -8   1  -3 141.602 71.8740  20
  -8  -1  -3 81.2529 120.541  19
  -8   1  -3 191.858 132.884  19
  -8  -1   3 655.664 239.339  19
   8   1  -3 381.293 197.946   1
  -8   1   3 368.422 163.260  19
   8   1  -3 129.436 178.177   9
   8   1   3 422.626 156.755  18
   8   1  -3 475.406 179.676  18
  -8  -1  -3-95.1720 183.174   4
   8  -1   3 456.241 183.953  18
  -8   1   3 435.766 206.374   5
   8  -1  -3 234.073 148.359  18
  -8  -1   3 299.863 143.637   2
  -8  -1  -3 86.0894 68.5708  17
   8  -1   3 350.622 156.741   8
  -8  -1   3 257.999 157.115   4
  -8   1  -3 245.449 158.608   4
   8   1  -3 392.849 158.613   8
  -8  -1   3 370.312 231.871  17
  -8   1  -3 133.012 81.7922  17
  -8   1   3 385.440 250.115  17
   8  -1  -3 277.805 114.276   8
  -8   1   3 359.347 171.479   4
   8   1   3 458.627 222.453   1
  -8  -1   3 367.207 136.269   7
   8   1   3 440.163 157.429  16
  -8  -1   3 318.039 157.496  15
  -8   1   3 394.065 159.517   2
   8  -1  -3 196.403 128.984   1
   8   1   3 263.784 145.123   6
   8   1   3 417.315 271.000  14
   8   1  -3 392.900 223.319  14
   8  -1   3 525.718 225.399  14
   8   1   3 485.747 246.483   8
   8   1  -3 334.841 127.020   6
   8  -1  -3 362.026 187.050  14
   8  -1   3 393.922 163.775   6
  -8   1  -4 103.634 128.795   3
  -8   1  -4 288.028 255.092  12
   8  -1   4 341.757 219.433   1
   8  -1  -4 240.858 122.971   6
   8   1  -4 1593.26 448.979  11
  -8   1  -4 168.569 142.058   5
  -8  -1   4 229.169 217.876   5
  -8   1  -4 58.3003 73.2335  20
  -8  -1  -4 118.548 260.845  19
  -8   1   4 211.517 146.638   5
  -8   1  -4 139.321 174.629  19
  -8   1   4 205.136 127.337  19
   8   1   4 273.196 180.310  18
   8   1  -4 413.118 237.162   1
   8   1  -4 334.191 212.753  18
   8  -1   4 392.180 173.242  18
  -8  -1   4 555.858 417.343  17
   8   1   4 189.603 182.394   8
  -8  -1  -4-14.9840 101.748  17
  -8   1  -4 142.008 119.366   4
  -8  -1   4 218.964 148.811   2
   8  -1   4 225.841 151.906   8
   8   1   4 291.945 204.800   1
  -8  -1   4 205.614 189.202   4
   8   1  -4 212.418 124.801   8
  -8   1  -4 124.910 96.1471  17
  -8   1   4 173.846 195.899  17
   8  -1  -4 238.818 176.731   8
   8  -1  -4 254.557 162.527   1
   8  -1   4 103.487 133.297  16
  -8   1   4 221.572 140.819   4
   8  -1  -4 123.778 120.789  18
  -8   1  -4 400.086 236.324   7
   8   1   4 331.909 167.847  16
  -8   1  -4 298.933 239.154  15
  -8   1   4 291.785 144.100   2
   8   1   4 226.733 225.976   6
   8   1   4 295.283 199.906  14
   8  -1   4 143.872 140.038  14
   8   1  -4 700.494 330.616  14
   8  -1  -4 186.982 139.220  14
   8   1  -4 413.982 122.763   6
   8  -1   4 284.064 134.566   6
  -8   1  -5 553.850 379.521  12
  -8   1  -5 246.230 200.896   3
   8   1  -5 913.831 369.612   1
  -8   1  -5 233.211 227.950   5
  -8   1  -5 128.583 225.118  20
  -8   1  -5 688.813 389.289  19
  -8  -1  -5-43.9687 209.978  19
  -8   1   5 59.0661 127.367   5
  -8   1   5 9.47215 48.8680  19
   8   1   5 52.9829 132.012  18
   8  -1   5-33.2102 53.6549  18
   8   1   5 141.895 216.332   1
   8  -1  -5-9.27612 123.954  18
   8   1   5 61.5394 227.326   8
  -8  -1  -5 65.8163 100.945  17
  -8   1  -5 269.141 248.397   4
   8  -1   5 162.233 173.028   8
  -8   1  -5 469.541 292.541  17
   8   1  -5 431.307 233.974   8
  -8   1   5 185.199 278.530  17
   8  -1   5 37.5177 148.395  16
  -8   1   5 102.611 132.997   4
  -8   1  -5 252.336 287.479   7
   8   1   5 139.581 202.037  16
   8   1  -5 520.376 125.530   6
  -8   1  -5 204.066 277.856  15
   8   1  -5 1407.65 460.636  14
   8   1   5 404.895 277.654   6
   8   1   5 281.959 254.048  14
  -8   1   5 121.405 137.829   2
   8  -1   5 232.102 141.997  14
   8  -1  -5 140.512 135.195   1
   8  -1  -5 139.439 124.517  14
   8  -1   5 22.5721 90.7077   6
   8  -1   5 202.073 176.966   1
   8   1  -6 88.6973 63.9095   6
  -8  -1   6 501.485 333.053   5
   8  -1  -6 153.734 98.2760   1
  -8  -1   6 442.953 246.878   2
  -8   1  -6 155.345 197.982   5
   8   1  -6 214.780 421.586  11
  -8   1  -6-21.0510 70.0108  20
  -8  -1   6 448.973 267.204  19
  -8  -1  -6-112.528 180.209  19
  -8   1  -6 118.996 212.894  19
  -8   1   6 120.753 83.9811   5
   8   1   6 495.278 434.624   1
   8   1  -6-180.563 473.698   9
   8   1   6 84.7965 123.652  18
   8  -1   6 167.220 97.5072  18
   8   1  -6 498.748 297.476  18
   8   1   6 251.409 339.754   8
  -8  -1   6 647.145 482.311  17
  -8   1  -6 127.006 167.576   4
  -8  -1  -6-82.0648 72.1195  17
   8  -1   6 198.881 146.534   8
  -8   1  -6-31.6294 143.269  17
  -8  -1   6 297.071 218.997   4
   8   1  -6 423.439 212.621   8
  -8   1   6 166.934 164.292  17
  -8  -1   6 327.302 136.635  16
   8   1  -6 122.418 204.817   1
   8  -1   6 267.345 196.588  16
  -8   1  -6 136.639 165.135   7
  -8   1   6 46.4578 38.1936   4
   8   1   6 247.692 222.263  16
  -8   1  -6 30.5752 70.9111  15
   8  -1   6 227.443 181.070   1
  -8   1   6 158.408 110.817  19
   8   1   6 297.592 328.518   6
   8   1   6 229.369 333.036  14
   8  -1   6 200.869 183.928  14
  -8   1   6 315.633 200.120   2
   8   1  -6 334.730 268.376  14
   8  -1   6 190.080 171.324   6
   8  -1  -6 43.2403 102.869  14
  -8   1  -7 67.2742 63.8591  13
   8   1  -7 118.267 49.5221   6
   8   1  -7 168.731 109.648  11
   8   1   7-199.431 277.484   1
  -8  -1   7 249.800 197.845   5
  -8  -1  -7-41.0730 83.1139  19
  -8   1   7 122.503 133.474   5
   8  -1  -7-71.9520 149.933   1
  -8  -1   7 142.369 108.721  19
   8  -1   7 230.662 92.0494  18
  -8   1   7-64.9035 161.555  19
   8   1  -7 109.205 111.173  18
  -8   1  -7-8.28493 106.254   4
   8  -1   7 189.401 148.470   8
  -8   1  -7 158.766 147.917  19
  -8   1  -7 3.28401 18.6157  17
  -8  -1   7 86.2451 67.8180  17
   8   1   7 245.283 232.595   8
  -8   1   7 18.1989 63.0401  17
  -8  -1   7 143.505 114.179   4
   8   1  -7 72.9799 77.4277   8
   8  -1   7 182.868 133.012   1
  -8  -1   7 76.8482 64.5117   2
   8  -1   7 152.964 117.396  16
  -8   1  -7 111.739 127.575   7
  -8  -1   7 187.298 91.9498  16
  -8   1   7 66.7346 121.498   4
   8   1   7 173.956 169.728  16
  -8   1  -7 89.4439 150.786  15
   8   1  -7 57.8161 62.5101   1
   8   1   7 160.501 198.743   6
   8   1   7 32.6097 93.1088  14
   8  -1   7 119.495 116.656  14
  -8   1   7 255.179 197.791   2
   8   1  -7 212.416 151.552  14
   8  -1   7 291.586 176.388   6
   8  -1  -7 148.332 116.351  14
   8   1  -8 235.759 73.8688   6
   8   1  -8 409.169 259.967  11
  -8  -1   8 597.863 278.738   5
  -8   1  -8-378.372 391.848  20
  -8  -1  -8 63.7019 79.2457  19
  -8   1  -8-2.46337 80.5832  19
  -8   1   8 728.835 311.990   5
  -8  -1   8 534.315 196.572  19
  -8   1  -8 48.8520 23.7237   4
   8   1  -8 483.585 255.225  18
   8   1   8 347.302 273.195   8
   8  -1   8 542.657 260.350   1
   8  -1   8 581.670 130.893  18
  -8   1  -8 100.773 59.1312  17
   8  -1   8 593.606 272.872   8
  -8  -1   8 377.919 248.455  17
   8  -1  -8 332.249 214.456   1
  -8   1   8 502.019 308.406  17
  -8  -1   8 541.259 224.007   4
   8   1  -8-209.072 525.700   8
  -8  -1   8 477.650 208.370   2
  -8   1  -8-51.8473 155.902   7
   8  -1   8 644.398 259.885  16
  -8  -1   8 518.940 179.546  16
   8   1   8 544.044 315.425  16
   8   1   8 397.376 272.640   6
   8   1   8 426.809 294.321  14
   8  -1   8 598.690 285.433  14
   8  -1   8 567.988 251.164   6
  -8   1   8 583.401 312.070   2
   8   1  -8 444.867 239.689   1
   8   1  -8 465.898 228.082  14
   8  -1  -8 376.832 206.803  14
   1   8  -9 79.5972 313.901  13
   8   1  -9 323.574 212.524   1
   8   1  -9 297.909 235.756  11
  -8  -1   9 286.693 186.133   5
  -8   1  -9 37.1786 78.5854  19
   8  -1   9 439.541 253.008   8
   8  -1   9 150.664 94.7260   1
  -8   1   9 507.621 234.486   5
  -8  -1   9 287.248 144.576  19
   8  -1   9 413.763 96.9665  18
  -8   1  -9-264.243 314.477   4
   8   1  -9 263.963 186.965  18
   8   1   9 172.648 215.567   8
  -8   1  -9 40.0730 48.6495  17
  -8  -1   9 376.800 252.949  17
  -8   1   9 5.77207 275.944  17
  -8  -1   9 418.026 207.999   4
  -8   1  -9-47.5892 302.399   7
  -8  -1   9 383.635 213.929   2
   8  -1   9 569.830 267.410  16
  -8  -1   9 393.716 184.089  16
   8   1   9 468.186 277.085  16
  -8   1  -9-195.188 411.754  15
   8   1   9 417.388 250.873   6
   8   1   9 264.351 250.208  14
   8  -1  -9 262.035 245.799   1
   8  -1   9 461.931 255.283  14
   8  -1   9 456.790 232.624   6
   8   1  -9 265.149 191.898  14
  -8   1   9 389.003 218.239   2
   8  -1  -9 317.453 209.291  14
  -1   8 -10 187.235 110.049  13
   1   8 -10 488.277 334.774  13
   1  -8  10-6.95318 60.2200   6
  -1  -8  10-46.2187 95.2656   6
   8  -1 -10 157.280 257.597   1
   8   1 -10 423.555 255.815   1
   8   1 -10 113.702 34.0795  11
  -8  -1  10 346.183 180.260   5
  -8   1 -10 76.7804 59.5267  19
  -8   1  10 368.588 63.1730   5
  -8  -1  10 110.042 170.162  19
   1   8 -10 498.393 169.512  18
   8   1  10 435.713 308.819   8
   8   1 -10 276.280 206.327  18
  -1  -8  10-85.6382 178.594  17
   8  -1  10 511.735 267.276   8
  -8  -1  10 420.052 258.665  17
  -8   1  10-348.242 293.432  17
  -8  -1  10 492.691 218.153   4
   8  -1  10 618.458 291.863  16
  -8  -1  10 390.360 220.754   2
  -8  -1  10 478.533 238.435  16
   8   1  10 450.594 317.989  16
   8   1  10 241.131 253.589   6
   8   1  10 234.120 85.1833  14
   1   8 -10 287.615 113.152   3
   8  -1  10 488.885 240.582  14
  -1   8 -10 388.449 194.549   3
   8  -1  10 526.617 283.790   6
   8   1 -10 231.699 176.691  14
  -8   1  10 596.805 377.283   2
   8  -1 -10 286.208 207.748  14
  -1   8 -11 906.333 443.830  13
   1   8 -11 1286.55 502.900  13
   1  -8  11 276.829 204.127   6
  -1  -8  11 283.809 175.969   6
  -8   1 -11-97.1987 219.622  19
  -8  -1  11 1199.20 415.822   5
  -1   8 -11 1042.00 300.500  12
   8   1 -11 652.847 312.609   1
   8   1 -11 573.576 283.633  11
   8  -1 -11 597.335 445.061   1
  -1   8 -11 1017.00 290.296  18
   1   8 -11 947.914 392.153  18
  -8  -1  11 1228.25 350.835   4
   8   1  11 874.007 424.952   8
   8   1 -11 739.625 324.629  18
   1  -8  11-132.284 283.982  17
   8  -1  11 1248.45 438.975   8
  -1  -8  11-127.276 238.356  17
  -8  -1  11 1041.79 427.085  17
   8  -1  11 1560.88 480.234  16
  -8  -1  11 1253.85 400.047   2
  -8  -1  11 1398.50 419.044  16
   8  -1  11 1378.33 452.265   6
   1   8 -11 1031.21 352.769   3
   8   1  11 929.479 419.814  16
  -1   8 -11 1318.46 398.104   3
   8   1  11 830.836 363.321   6
   8  -1  11 1297.13 471.515  14
   8   1 -11 583.440 250.688  14
  -1   8 -12 422.964 316.352  13
   1   8 -12 283.962 234.241  13
  -1  -8  12 210.201 193.955   6
   1  -8  12 44.7767 27.5860   6
  -1   8 -12 374.121 185.547  12
   1   8 -12 564.803 331.227  18
   8   1 -12-29.9784 151.948  11
  -1  -8  12 163.437 148.284  17
  -8  -1  12 324.990 233.319   5
   8   1 -12 185.465 152.469   1
  -8   1 -12-104.773 214.258  19
  -1   8 -12 487.657 336.268  18
   8   1  12 702.827 416.839   8
   8   1 -12 234.129 205.658  18
   8  -1  12 617.382 264.929   8
   1  -8  12-97.0825 92.1470  17
  -8  -1  12 420.399 282.277  17
  -8  -1  12 433.997 203.602   4
   8  -1  12 457.899 306.529  16
  -8  -1  12 371.074 254.350   2
  -8  -1  12 495.193 271.926  16
   8   1  12 384.501 284.441  16
   8  -1  12 364.866 92.6573   2
   8   1  12 33.4038 149.489   6
   8  -1  12 414.908 290.622  14
   8  -1  12 494.549 262.513   6
   1   8 -12 405.234 218.203   3
  -1   8 -12 461.227 240.904   3
   8   1 -12 213.821 160.983  14
   1   8 -13 1860.86 578.166  13
   8  -1  13 2306.83 619.322   8
  -1  -8  13 544.213 261.855   6
   1  -8  13 676.828 351.261   6
  -1   8 -13 1991.74 458.554  12
   1   8 -13 1920.07 458.550  12
  -8  -1  13 2357.13 589.326   5
  -8  -1  13 2077.70 552.740   2
   8  -1  13 1779.09 240.839   2
   8   1 -13 461.001 236.982  11
  -8   1 -13-34.5015 86.1053  19
  -1   8 -13 2226.84 572.873  18
   1   8 -13 2164.82 607.247  18
   8   1 -13 937.382 397.188   1
  -8  -1  13 2099.16 485.137   4
  -1   8 -13 1838.17 286.428   4
   8   1  13 1643.56 670.420   8
   8   1 -13 755.445 358.854  18
  -8  -1  13 1919.98 628.400  17
   1  -8  13 621.812 362.675  17
  -1  -8  13 404.201 315.851  17
   8  -1  13 2230.48 600.810  16
   8  -1  13 1853.51 569.595   6
  -8  -1  13 2044.89 592.920  16
   8   1  13 1424.03 558.003  16
   1   8 -13 1968.68 479.925   3
  -1   8 -13 1907.88 488.090   3
   8   1  13 905.257 321.158   6
   8  -1  13 2022.30 642.482  14
   8   1 -13 833.656 283.473  14
  -1   8 -13 1898.73 672.145  13
  -1  -8  14-47.0636 113.623   6
   1  -8  14 106.616 165.549   6
  -1   8 -14 204.415 244.475  13
   1   8 -14 139.188 139.527  13
  -1   8 -14 206.951 169.525  12
   1   8 -14 225.675 183.087  12
  -8   1 -14 28.2372 20.0984  19
  -8  -1  14 185.692 189.935   5
  -1   8 -14 171.183 190.632  18
   1   8 -14 142.167 149.887  18
   8   1  14 172.421 304.931   8
   8   1 -14-42.4152 39.8187   1
   8   1 -14 65.4520 64.2410  18
   8  -1  14 276.459 289.420   8
   1  -8  14 136.502 127.597  17
  -1  -8  14 175.841 160.786  17
   8   1 -14-102.310 199.166  11
  -8  -1  14-14.6117 158.498  17
  -8  -1  14 212.570 156.171   4
   8  -1  14 113.026 173.450  16
  -8  -1  14 222.475 227.659  16
  -8  -1  14 174.898 161.940   2
   8   1  14-137.051 360.386   6
   8  -1  14 21.6570 35.6190  14
   8  -1  14 177.151 74.8323   2
   8  -1  14 38.2544 39.0655   6
   1   8 -14 151.812 128.000   3
   8   1 -14 108.250 99.5072  14
  -1   8 -14 203.257 159.679   3
   1  -8  14 30.3698 72.9385  14
  -1  -8  15 409.546 282.600   6
   1  -8  15 540.623 314.535   6
  -1   8 -15 694.061 357.043  13
   1   8 -15 917.524 414.322  13
   1   8 -15 1226.09 388.643  12
  -1   8 -15 970.700 308.018  12
   8   1 -15 332.395 278.388  11
  -8   1 -15 82.1074 170.017  19
  -8  -1  15 1257.39 438.802   5
   8   1 -15 416.084 286.486   1
  -8  -1  15 1405.85 397.200   4
   1   8 -15 1217.34 448.112  18
   8  -1  15 952.859 456.908   8
  -1   8 -15 1063.54 343.082  18
   1  -8  15 515.654 315.644  17
  -1  -8  15 663.059 366.812  17
  -8  -1  15 1170.91 489.823  17
  -1  -8  15-529.215 466.300  16
   1  -8  15-333.244 521.280  16
   8  -1  15 1349.79 541.267  16
  -8  -1  15 1225.21 507.166  16
  -8  -1  15 910.430 403.535   2
   1   8 -15 1244.55 413.748   3
   8  -1  15 1271.68 523.115   6
   8   1 -15 254.948 149.984  14
  -1   8 -15 947.463 352.050   3
   1  -8  15 468.402 164.668  14
   1  -8  16 411.458 339.740   6
  -1   8 -16 110.858 173.145  13
   1   8 -16 117.503 156.572  13
   1   8 -16 192.156 202.652  18
  -1   8 -16 237.721 129.040  12
   1   8 -16 238.419 193.461  12
   8   1 -16-90.2031 109.039  11
  -1   8 -16 119.498 78.5864  18
   8  -1  16 214.512 242.836   8
   1  -8  16 171.269 179.612  17
  -1  -8  16 58.5859 11.3161  17
   8   1 -16 176.753 216.164   1
  -8  -1  16 411.575 268.491  17
  -1  -8  16-285.216 501.254  16
   1  -8  16-231.717 481.902  16
  -8  -1  16 327.459 223.814   5
   8  -1  16 161.621 143.311  16
  -8  -1  16 65.4286 138.309   4
  -8  -1  16 91.6966 221.396  16
  -8  -1  16 392.278 286.149   2
   8  -1  16 218.244 132.597   6
  -8   1 -16-316.476 314.015  19
   8   1 -16-11.1006 97.7332  14
   1   8 -16 119.398 47.0647   3
  -1   8 -16 78.7706 130.702   3
  -1  -8  16 54.6771 30.3152   6
   8   2   0 2800.25 601.711   1
  -8   2   0 2135.81 532.913  12
  -8   2   0 2728.85 490.083   5
   8  -2   0 2486.95 458.190   1
  -8   2   0 2893.72 371.053   2
  -8   2   0 2494.17 442.451  19
  -8  -2   0 714.403 309.827  19
   8   2   0 3185.95 512.757  18
   8   2   0 3259.08 583.802   8
  -8   2   0 2625.99 469.427   4
   8  -2   0 2241.63 429.763   8
   8  -2   0 2897.61 430.627   6
   8   2   0 2824.00 687.324  14
   8  -2   0 2718.24 497.574  14
  -8  -2   0 933.518 318.528  17
   8  -2  -1 691.948 214.870   6
  -8   2  -1 538.674 209.037  12
  -8  -2   1 227.788 160.465   5
  -8  -2  -1-21.9364 84.2332  19
   8  -2   1 624.167 217.028   1
  -8   2  -1 610.015 141.270   2
  -8   2   1 817.229 261.245   2
  -8  -2   1-65.4469 198.438   2
  -8   2  -1 575.304 212.830   5
  -8   2   1 675.867 244.846   5
  -8   2  -1 587.315 197.209  19
  -8   2   1 644.502 224.941  19
   8   2   1 681.035 231.136  18
   8   2  -1 767.844 221.899  18
  -8  -2   1 259.337 184.381   4
   8   2   1 725.651 285.379   8
   8   2  -1 746.685 247.074   8
  -8  -2  -1 53.1333 52.4835  17
  -8  -2   1 281.684 171.843  17
   8  -2   1 507.158 196.275   8
   8  -2  -1 535.294 215.381   8
  -8  -2   1 329.388 229.651  19
  -8   2  -1 618.239 220.678   4
   8   2   1 820.333 342.737   1
  -8   2   1 694.766 234.936   4
   8  -2  -1 526.917 214.174   1
   8  -2   1 744.100 209.247   6
   8   2   1 71.7109 84.3125   6
   8   2  -1-40.9124 122.306   6
   8   2   1 680.211 338.426  14
   8   2  -1 822.451 290.741   1
   8   2  -1 637.154 307.330  14
   8  -2   1 686.182 252.383  14
   8  -2  -1 570.222 226.303  14
   8   2  -2 1021.33 269.131  13
   8   2  -2 1305.59 375.012   1
  -8  -2   2 610.682 150.613  12
   8  -2  -2 840.505 303.623   1
  -8   2  -2 834.267 268.506  12
  -8   2  -2 806.382 245.904   5
   8  -2   2 865.423 244.542   1
  -8   2   2 942.770 304.169   5
  -8   2  -2 794.940 136.839   2
  -8  -2   2 487.852 272.608   5
  -8  -2   2 987.335 313.742  19
  -8   2   2 1139.23 324.937   2
  -8   2   2 929.468 277.084  19
  -8  -2  -2 55.4175 190.865  19
  -8  -2   2 422.867 185.637   2
  -8   2  -2 763.991 234.536  19
   8   2   2 1028.27 321.582  18
   8   2  -2 1166.72 318.460  18
  -8   2  -2 868.465 268.513   4
   8   2  -2 1107.67 297.845   8
  -8   2   2 956.166 289.448   4
  -8  -2   2 426.239 253.270   4
   8   2   2 871.638 350.194   8
  -8  -2  -2-67.5369 121.454  17
  -8  -2   2 634.002 282.317  17
   8   2   2 1078.85 400.935   1
   8  -2   2 692.917 226.854   8
   8  -2  -2 576.339 252.901   8
   8  -2   2 953.885 247.685   6
   8  -2  -2 969.544 296.290   6
   8   2  -2 1185.21 480.306  14
   8   2   2-10.1164 95.2811   6
   8  -2   2 857.396 272.462  14
   8  -2  -2 870.679 303.180  14
  -8   2  -2 18.5937 145.699   3
   8   2   2 900.691 391.950  14
   8  -2   3 22.1970 51.6409   6
   8  -2  -3-146.779 289.029   6
  -8   2  -3 170.204 222.356  12
  -8  -2   3 152.711 300.317   2
  -8  -2   3-4.26302 320.328   5
  -8   2  -3 153.912 148.662   5
   8   2   3 47.9251 47.8488  18
  -8  -2  -3-31.2324 133.310  19
  -8   2   3 117.993 111.270   5
  -8   2  -3 121.449 169.641  19
  -8   2   3 63.9631 31.4961  19
   8   2  -3 427.276 308.416   8
   8  -2  -3 62.4303 149.557   1
   8   2   3 77.1279 63.3494   1
   8   2   3-88.8830 131.002   8
  -8  -2   3 223.438 393.654   4
  -8  -2  -3 1.42512 54.0369  17
  -8   2  -3 72.6413 44.8560   2
   8  -2   3 19.1119 66.0245   8
  -8   2  -3 26.4331 71.5845   4
   8  -2  -3-15.4148 88.3450   8
   8  -2   3 78.0408 78.7028   1
  -8   2   3-46.3291 125.816   4
   8   2  -3 8.37058 368.600   6
   8   2   3-94.0069 173.910   6
   8   2   3 87.1378 289.544  14
  -8   2  -3-5.85716 93.4371   3
   8  -2   3-43.7404 90.8824  14
   8  -2  -3 135.977 180.055  14
  -8   2   3 32.8098 135.084   2
   8   2  -4 351.432 266.092  13
  -8   2   4 1.72550 222.804   2
   8  -2   4 212.114 90.6000   6
   8   2   4 331.845 258.457   1
  -8   2  -4 212.938 162.700  12
  -8  -2   4 237.717 265.451   5
  -8   2  -4 207.368 166.377   5
  -8   2  -4 122.213 72.1518   2
  -8  -2   4 553.680 248.655  19
  -8   2  -4 232.130 185.522  19
  -8   2   4 206.004 160.818   5
  -8   2   4 153.070 99.3213  19
   8   2   4-2.05493 160.735  18
  -8  -2   4 588.993 302.380   2
   8  -2   4 286.952 142.416   1
   8   2   4 303.748 398.715   8
  -8  -2  -4 220.801 233.501  17
  -8  -2  -4 19.4831 165.447  19
  -8  -2   4 862.546 418.698  17
   8  -2   4 157.658 91.0797   8
  -8   2  -4 238.322 157.670   4
   8  -2  -4-201.630 468.598   8
  -8   2   4 65.0444 124.904   4
   8   2   4-243.175 279.963   6
   8  -2  -4 154.941 36.7446   1
   8   2   4 298.141 420.538  14
  -8  -2   4 218.115 307.659   4
   8  -2   4 287.880 138.288  14
   8  -2  -4 103.342 119.509  14
  -8   2  -4 221.091 246.718   3
   8  -2   5 637.069 224.414   6
  -8   2   5 568.950 140.282   2
  -8   2  -5 676.320 317.767   3
   8   2  -5 414.089 211.907  13
  -8   2  -5 945.874 352.236  12
  -8   2  -5 436.398 216.049  19
   8   2  -5 983.289 436.385   1
   8   2  -5 270.165 362.125  11
   8  -2  -5 351.204 218.116   1
  -8  -2   5 559.487 282.662   5
  -8   2  -5 571.302 239.087   5
  -8   2  -5 373.913 119.847  20
   8  -2   5 621.452 216.592   1
  -8   2  -5 532.181 166.812  10
   8   2   5 148.173 26.8073   1
  -8  -2   5 246.421 173.620  19
  -8   2   5 532.173 238.686   5
  -8   2   5 521.985 194.361  19
   8   2   5 568.283 378.690   8
  -8  -2   5 619.750 221.660   2
  -8  -2   5 447.281 223.333   4
   8  -2   5 695.947 245.335   8
  -8  -2   5 94.5437 132.844  17
  -8   2  -5 690.629 279.994   4
   8   2   5-199.102 351.885   6
   8   2  -5 915.174 544.778  14
   8   2   5 1016.98 505.682  14
   8  -2   5 592.171 228.954  14
   8  -2  -5 438.564 232.084  14
  -8   2  -6 64.1077 64.1008   3
   8   2  -6 227.063 120.891  13
   8  -2   6 149.001 126.868   1
  -8   2  -6 41.0638 123.813  12
   8   2  -6 198.429 220.684  11
  -8   2  -6 69.4337 31.4580   5
  -8  -2   6 128.581 139.692   5
  -8   2  -6 102.181 58.7267  20
  -8   2  -6 66.7561 50.5681  10
   8   2  -6 138.107 171.138   1
  -8   2  -6 41.7797 77.2235  19
  -8  -2   6 163.982 128.326  19
   8   2  -6 194.112 342.377   9
  -8   2   6-4.68221 179.744   5
   8   2   6-0.81748 117.030   8
   8  -2  -6 132.749 166.544   1
  -8  -2   6 61.1333 47.9377   2
   8   2  -6 138.948 285.394  10
  -8   2  -6 109.742 73.3189   4
   8  -2   6 90.4451 80.7912   8
  -8  -2   6 6.22116 116.040  17
   8   2  -6 219.281 136.059   8
  -8  -2   6 90.4305 92.4525   4
  -8  -2   6-20.4377 64.3493  16
   8  -2   6 153.018 35.8791  16
   8   2   6-262.138 290.122   6
   8   2   6 74.8624 144.047  14
   8   2  -6 143.388 171.691  14
   8   2  -6 167.097 158.793  18
   8  -2   6 176.573 125.354  14
   8  -2  -6 17.0172 22.3282  14
   8  -2   6 150.676 107.809   6
  -8   2  -7-13.3731 70.5795  13
   8  -2   7 1171.06 345.908   1
  -8   2  -7 541.002 253.263   3
  -8   2  -7 608.439 261.068  12
  -8  -2   7 964.201 281.911   2
  -8   2  -7 583.611 256.966   5
   8   2  -7 1148.84 356.505  11
  -8  -2   7 834.974 312.470   5
  -8   2  -7 535.921 194.068  20
  -8  -2   7 804.884 244.049  19
  -8   2  -7 369.553 129.162  10
   8   2  -7 549.325 330.917  10
  -8   2  -7 514.124 235.559  19
   8   2  -7 1480.70 456.906   9
  -8   2   7 1301.77 397.113   5
   8   2  -7 908.270 321.524   1
   8   2  -7 1181.61 352.828  18
   8  -2   7 1092.17 332.610   8
   8   2  -7 1112.81 279.966   8
   8   2   7 968.753 450.760   8
  -8   2  -7 505.811 237.759   4
  -8  -2   7 1033.44 318.977   4
  -8  -2   7 737.547 280.473  17
   8  -2   7 1408.95 434.092  16
  -8  -2   7 1004.10 213.900  16
  -8   2  -7 1042.13 399.222   7
   8  -2   7 1103.94 311.617   6
   8   2  -7 967.261 194.054   3
   8   2   7 34.9305 216.295   6
  -8   2  -7 991.924 419.330  15
   8  -2   7 1099.49 318.461  14
   8  -2  -7 567.052 385.209   1
   8   2  -7 888.253 337.622  14
   8  -2  -7 659.503 315.585  14
  -8   2  -8-8.54204 44.7625  13
   8   2  -8 30.7726 34.7668   3
  -8   2  -8 266.660 246.401  12
  -8   2  -8 15.1884 92.3166   3
  -8   2  -8 27.1239 130.449   5
   8   2  -8-6.18420 52.7528  11
  -8  -2   8-50.4234 77.1957   5
  -8   2  -8-40.5559 81.0705  20
   8   2  -8-294.532 280.750  10
  -8   2  -8 47.0626 90.5726  19
  -8  -2   8 75.1675 76.8103  19
   8   2  -8 11.3317 32.1832   9
   8   2  -8 19.5670 84.8055   1
   8   2   8 103.783 203.487   8
   8   2  -8 42.8599 102.565  18
  -8   2  -8 89.1011 41.2717  10
  -8   2  -8-26.2332 91.6989   4
   8  -2   8-72.7670 120.122   8
  -8  -2   8-18.1805 36.8355   2
  -8  -2   8-38.4783 93.5526   4
  -8  -2   8 9.80262 56.5082  17
   8   2  -8 7.65927 14.2358   8
   8  -2   8 84.8562 111.396  16
  -8  -2   8 21.7459 37.5870  16
  -8   2  -8 147.678 235.195   7
   8  -2   8-6.91144 96.1454   1
  -8   2  -8 107.872 212.954  15
   8   2  -8 54.9047 110.187  14
   8  -2   8 44.0053 92.5804  14
   8  -2   8 2.83862 34.0230   6
   2   8  -9 672.384 310.092  13
  -8   2  -9 106.483 108.686  13
   2  -8   9 79.1285 149.893   6
   8   2  -9 1254.31 411.474  11
  -8   2  -9 188.798 52.2515  10
  -8   2  -9 569.836 256.751  19
  -8  -2   9 907.156 260.311  19
   8   2  -9 597.237 355.588   9
  -8  -2   9 898.152 309.417   4
   8   2  -9-371.897 520.460  10
   8   2   9 699.722 403.590   8
   8   2  -9 818.247 299.353  18
  -8   2  -9 365.596 241.016   4
   8   2  -9 958.562 353.852   1
   8  -2   9 1150.72 368.172   8
   8  -2   9 1167.86 435.133   1
  -8  -2   9 798.194 368.938  17
  -8  -2   9 810.684 276.538   2
  -8  -2   9 833.833 320.679   5
  -8  -2   9 832.689 239.503  16
   8   2  -9 172.379 368.429   8
   8  -2   9 1352.65 416.859  16
  -8   2  -9 455.216 260.091   7
   8  -2   9 1278.70 370.452   6
  -8   2  -9 624.449 328.432  15
   8  -2   9 1301.42 375.503  14
  -8   2  -9 327.171 192.091  20
  -2   8  -9 931.334 307.786   3
   8   2  -9 778.240 342.204  14
  -2   8 -10 98.7108 461.911  13
   2   8 -10 895.952 409.618  13
  -8   2 -10 141.010 115.404  13
   2  -8  10 76.9622 119.772   6
  -2  -8  10-0.34646 83.2288   6
  -2   8 -10 632.057 240.683  12
  -8   2 -10-134.353 354.621  10
   8   2 -10 810.284 308.959  11
  -8  -2  10 692.635 325.474   5
  -8   2 -10 176.607 41.1517  20
   8   2 -10-688.943 839.209  10
  -8  -2  10 689.052 238.556  19
   8   2 -10 302.243 155.391   9
  -8   2 -10 482.323 232.441  19
   8  -2  10 452.995 233.626   1
   2   8 -10 486.739 256.557  18
   8   2  10 621.872 424.871   8
  -8   2 -10 144.118 63.1424   4
   8   2 -10 671.895 297.031  18
  -2  -8  10 37.0964 112.763  17
   8  -2  10 1079.01 384.069   8
  -8  -2  10 694.371 325.255  17
  -8  -2  10 793.200 276.208   4
   8   2 -10 619.252 285.481   1
  -8  -2  10 751.547 288.801   2
   8  -2  10 1074.89 401.073  16
  -8   2 -10 436.848 298.980   7
  -8  -2  10 846.952 254.937  16
  -2   8 -10 786.817 328.148   3
  -8   2 -10 483.384 334.277  15
   8  -2  10 989.914 338.679  14
   8   2 -10 604.561 293.725  14
   8  -2  10 1036.30 348.249   6
  -2   8 -11 466.240 415.870  13
   2   8 -11 778.970 348.213  13
   2  -8  11 193.754 194.184   6
  -2  -8  11 172.903 158.247   6
  -2   8 -11 922.157 302.561  12
   8   2 -11-692.817 988.655  10
   8   2 -11 790.759 345.409  11
   8  -2  11-98.3887 256.143   1
  -8  -2  11 925.590 355.428   5
  -8   2 -11 103.334 79.3522  20
  -8   2 -11 243.286 210.146  19
  -8   2 -11-472.753 665.127  10
  -8  -2  11 597.331 218.679  19
   8   2 -11 463.955 213.266   9
  -8   2 -11 39.6752 262.869   4
   8   2 -11 931.441 366.842  18
   2  -8  11-322.789 482.708  17
  -2  -8  11-102.707 95.8024  17
   8  -2  11 1233.29 386.829   8
  -8  -2  11 787.542 367.852  17
  -8  -2  11 820.973 297.226   4
  -8  -2  11 1035.25 337.257   2
   8   2 -11 734.405 305.974   1
  -8   2 -11-43.3164 185.213   7
   8  -2  11 1363.34 444.328  16
  -8  -2  11 934.691 304.186  16
   2   8 -11 946.303 320.729   3
  -2   8 -11 1120.81 384.009   3
  -8   2 -11 17.9227 266.018  15
   8  -2  11 1127.52 386.321  14
   8   2 -11 628.337 323.998  14
   8  -2  11 1142.25 399.422   6
   2   8 -11 967.082 410.330  18
   2   8 -12 1484.27 511.283  13
  -2   8 -12 1360.68 629.990  13
  -2  -8  12 413.620 244.591   6
   2  -8  12 359.460 251.680   6
  -2   8 -12 1694.82 427.536  12
  -8  -2  12 1625.20 498.900   5
  -8  -2  12 1698.91 492.169   2
   8   2 -12 1010.42 377.003  11
  -8   2 -12 25.8161 141.793  20
  -8   2 -12 140.123 130.275  19
  -2   8 -12 2210.62 619.274  18
   2   8 -12 1615.47 558.263  18
  -8  -2  12 1838.59 411.529   4
   8   2 -12 157.685 248.924   9
   8  -2  12 1885.20 498.346   8
   8   2 -12 1010.22 359.043  18
   2  -8  12 203.992 234.675  17
  -2  -8  12 188.947 239.383  17
  -8  -2  12 1478.67 492.094  17
   8  -2  12 2065.44 570.714  16
  -8  -2  12 1926.36 470.758  16
  -8   2 -12 74.6937 317.924   7
   8  -2  12 1923.34 521.856   6
   8   2 -12 1053.46 391.808   1
   2   8 -12 1658.71 434.895   3
  -2   8 -12 1662.89 471.844   3
  -8   2 -12 91.0361 347.702  15
   8  -2  12 2090.85 563.232  14
   8   2 -12 693.943 325.190  14
  -2   8 -13 676.452 420.098  13
   2   8 -13 404.146 259.325  13
  -2  -8  13 172.904 195.056   6
   2  -8  13 179.934 194.791   6
  -2   8 -13 423.835 224.486  12
   8   2 -13 146.521 36.9658  11
  -8  -2  13 445.814 245.383   5
   8  -2  13 373.761 131.839   2
   8   2 -13-361.785 526.117   9
  -2   8 -13 623.043 320.452  18
   2   8 -13 376.300 291.958  18
   8   2 -13 184.041 136.340  18
   2  -8  13 110.158 221.029  17
   8  -2  13 568.943 300.296   8
  -2  -8  13 1.15335 132.413  17
  -8  -2  13 449.499 275.868  17
  -8  -2  13 493.035 212.035   4
  -8  -2  13 377.857 238.282   2
  -2   8 -13 508.713 174.690   4
   8  -2  13 651.221 345.661  16
  -8  -2  13 451.012 232.717  16
   8   2 -13 300.560 187.466   1
  -8   2 -13 160.645 213.114  19
   8  -2  13 575.189 298.189  14
   8  -2  13 469.645 250.183   6
   8   2 -13 264.093 218.674  14
   2   8 -13 517.224 251.297   3
  -2   8 -13 309.998 182.775   3
   2  -8  13 438.445 358.399  14
   2   8 -14 1751.13 555.965  13
  -2  -8  14 597.864 264.770   6
  -2   8 -14 2038.02 764.582  13
   2  -8  14 1122.10 445.693   6
  -2   8 -14 1774.87 438.098  12
   2   8 -14 2146.86 479.153  12
  -8  -2  14 2585.48 600.283   5
  -8  -2  14 1899.56 548.400   2
   8   2 -14 794.931 337.953  11
  -8   2 -14 141.648 165.676  19
  -2   8 -14 2104.06 473.193  18
   2   8 -14 2111.41 607.494  18
  -2   8 -14 2385.72 385.528   4
  -8  -2  14 2237.56 471.211   4
   8  -2  14 2697.18 645.901   8
   8   2 -14 1196.24 450.183  18
  -8  -2  14 2149.77 613.719  17
   2  -8  14 1043.27 411.573  17
  -2  -8  14 494.655 309.688  17
   8  -2  14 2582.55 697.434  16
  -8  -2  14 2618.08 623.620  16
   8  -2  14 2288.76 585.131   6
   2   8 -14 2103.44 504.005   3
  -2   8 -14 1941.62 512.000   3
   8  -2  14 2325.70 664.877  14
   2  -8  14 1200.98 308.947  14
   8   2 -14 1004.28 448.836   1
   8   2 -14 366.588 142.911  14
  -2  -8  15 346.699 222.246   6
   2  -8  15 302.456 212.097   6
  -2   8 -15 879.807 569.274  13
   2   8 -15 432.515 242.138  13
  -2   8 -15 830.903 362.014  12
   2   8 -15 788.046 281.079  12
   8   2 -15 215.527 123.138  11
  -8  -2  15 550.799 266.158   5
  -8   2 -15-22.0443 68.7917  19
  -2   8 -15 687.897 295.470  18
   2   8 -15 718.889 307.794  18
   8   2 -15 196.744 149.442  18
   8  -2  15 825.225 447.160   8
   2  -8  15 380.188 257.360  17
  -2  -8  15 650.761 452.989  17
  -8  -2  15 556.749 340.070  17
  -8  -2  15 586.019 247.814   4
   2  -8  15-576.634 538.617  16
  -8  -2  15 521.137 290.968   2
   8  -2  15 884.289 425.194  16
  -8  -2  15 746.980 345.801  16
   8  -2  15 1021.43 582.662  14
   8  -2  15 940.792 381.414   6
   8   2 -15 84.1376 134.876  14
   8   2 -15 166.766 170.589   1
   2   8 -15 494.808 242.133   3
   2  -8  15 345.459 160.418  14
  -2   8 -15 1142.41 432.132   3
   8   2 -16 143.759 211.174   1
   2  -8  16 398.729 254.022   6
  -2   8 -16 534.059 346.211  13
   2   8 -16 637.614 374.282  13
  -2   8 -16 565.561 291.002  12
   2   8 -16 686.791 280.253  12
   8   2 -16 234.087 229.795  11
  -2  -8  16-787.637 665.313   2
  -8  -2  16 760.640 359.002   5
  -8   2 -16 135.203 173.236  19
   2   8 -16 617.065 289.704  18
  -2   8 -16 597.335 230.136  18
   8   2 -16 355.180 283.387  18
   8  -2  16 684.974 354.855   8
   2  -8  16 411.065 219.205  17
  -2  -8  16-9.88650 242.902  17
  -8  -2  16 701.412 393.747  17
  -2  -8  16-661.957 502.329  16
   2  -8  16-258.508 535.811  16
  -8  -2  16 811.979 281.997   4
  -8  -2  16 719.253 349.210   2
   8  -2  16 691.006 365.165  16
  -8  -2  16 641.453 345.318  16
   8  -2  16 778.428 434.283  14
   8  -2  16 711.035 293.710   6
   8   2 -16-49.4432 130.385  14
   2   8 -16 707.773 293.625   3
  -2  -8  16 171.895 124.762   6
  -2   8 -16 501.883 283.796   3
   8  -3   0 249.034 151.186   6
  -8  -3   0 10.0095 83.4280  19
  -8   3   0 419.779 202.582   5
  -8   3   0 353.257 177.373  19
   8   3   0 663.021 307.620  18
   8   3   0 573.864 303.231   8
  -8  -3   0 92.4012 108.771  17
   8  -3   0 240.206 149.188   1
   8   3   0 479.469 335.247   1
   8  -3   0 231.364 149.397   8
  -8   3   0 406.027 187.341   4
   8   3   0 711.329 462.684  14
   8  -3   0 293.467 161.217  14
   8   3   1 3115.20 731.280   1
   8   3  -1 3622.68 707.688   1
  -8   3  -1 2537.63 619.196  12
  -8   3  -1 2775.81 495.924   5
  -8   3   1 2689.45 534.683   5
   8  -3   1 2111.15 447.334   1
   8  -3  -1 1800.20 469.194   1
  -8   3  -1 2765.45 489.756  19
  -8   3   1 2733.63 512.665  19
  -8  -3   1 707.265 330.288  19
   8   3   1 2597.15 555.278  18
   8   3  -1 3427.08 603.742  18
   8   3   1 2463.11 621.957   8
   8   3  -1 3143.93 581.425   8
  -8   3  -1 2687.99 488.825   4
  -8   3   1 2339.55 477.775   4
   8  -3   1 1762.59 412.700   8
   8  -3  -1 1504.11 426.407   8
  -8  -3   1 596.874 323.724  17
   8  -3   1 2506.76 479.152   6
   8  -3  -1 2366.99 624.051   6
   8   3   1 2361.84 742.797  14
   8   3  -1 2885.57 802.166  14
   8  -3   1 2227.45 461.008  14
   8  -3  -1 2003.08 461.179  14
   8   3  -2 1332.63 494.050   1
   8  -3   2 86.5519 61.8877   6
  -8   3  -2 180.446 149.797  12
  -8  -3   2 1236.52 570.359  19
  -8   3  -2 109.041 115.909   5
  -8   3   2 41.6214 120.857   5
  -8   3  -2 81.9561 85.1956  19
   8   3   2 148.729 219.869   1
  -8   3   2 42.0024 37.9756  19
   8   3  -2 1428.32 420.154  18
   8   3   2-81.0268 263.322  18
   8   3   2 130.039 133.956   8
   8   3  -2 487.205 185.504   8
  -8  -3  -2 83.5669 137.673  17
  -8  -3   2 1015.61 460.351  17
   8  -3  -2 27.5844 64.7037   1
   8  -3   2 131.150 97.4540   8
   8  -3  -2-130.563 361.266   8
   8  -3   2 170.901 125.266   1
  -8   3  -2-28.5969 83.5600   4
   8   3   2 162.745 15.7970  14
   8  -3   2 93.5318 113.683  14
   8  -3  -2 64.0201 77.5850  14
   8  -3  -3 534.281 293.878   1
  -8   3  -3 1203.68 321.245  12
  -8   3  -3 1130.75 300.906   5
  -8   3   3 1232.11 372.458   5
   8  -3   3 1264.17 313.375   1
  -8   3  -3 1106.84 192.911   2
  -8  -3   3-249.883 290.081   2
   8   3   3 572.563 195.904   1
  -8   3  -3 1157.30 306.021  19
  -8   3   3 1312.08 355.553  19
  -8  -3   3 356.242 368.582  19
  -8   3  -3 1127.89 313.020   4
   8   3  -3 2872.88 532.144   8
   8  -3   3 852.839 270.347   8
   8   3   3 816.870 350.691   8
  -8  -3   3 1134.63 485.441  17
   8  -3   3 1158.13 302.454   6
   8  -3   3 1193.52 336.776  14
  -8   3  -3 444.934 197.059   3
   8  -3  -3 691.658 306.864  14
   8  -3   4 224.933 111.316   1
   8  -3   4 147.333 87.5905   6
  -8  -3   4-9.41880 112.183  12
  -8   3  -4 227.369 136.574  12
  -8  -3   4 165.582 290.404   5
  -8   3  -4 283.404 147.030   5
   8   3  -4 752.879 327.287   8
  -8  -3   4 163.193 423.879  19
  -8  -3   4 188.384 247.973   2
  -8   3  -4 133.773 119.045  19
   8   3  -4 736.382 407.426  18
  -8  -3   4-67.1036 166.733   4
   8   3   4-28.0567 179.941   8
  -8  -3   4 337.215 397.810  17
   8  -3   4 122.341 110.796   8
  -8   3  -4 193.157 128.945   4
   8   3  -4 749.382 665.527  14
  -8   3  -4 161.622 56.6843   2
   8   3  -4 471.297 349.362   1
  -8   3  -4 175.509 189.794   3
   8  -3   4 202.456 107.592  14
   8  -3   5 10.4965 75.5299   6
   8   3  -5 4.57851 41.7250  13
  -8   3  -5 57.8884 114.740  12
  -8  -3   5-48.1667 106.006   5
   8   3   5-81.7589 189.114   8
   8   3  -5-16.0595 50.2684  20
  -8  -3   5-19.4674 80.2087  19
  -8   3  -5-35.6061 4.93093  19
  -8  -3   5-45.0036 40.3258   2
   8   3  -5-41.1419 35.6173  18
  -8  -3   5-81.2190 178.392   4
   8   3  -5-8.99152 81.9872   8
  -8  -3   5 13.6000 73.1866  17
   8  -3   5 48.1034 33.2165   8
  -8   3  -5-45.4749 53.3460   4
   8  -3   5 33.4943 44.1389   1
   8   3  -5 61.6217 152.321  14
   8  -3   5 5.12854 24.9270  14
  -8   3  -5-52.8503 150.219   3
  -8   3  -5-22.2430 2.81449   5
   8   3  -5-17.4286 63.9533   1
   8  -3   6 383.890 173.329   6
   8   3  -6 421.634 262.633   1
   8   3  -6 438.673 163.342  13
  -8   3  -6 581.338 247.816   5
  -8   3  -6 695.918 289.767  12
   8   3  -6 750.665 312.197  11
  -8  -3   6 305.709 242.843   5
  -8  -3   6 312.125 195.943  19
   8   3  -6 1095.27 367.498  10
   8   3  -6 353.802 171.229  20
  -8   3  -6 600.105 232.029  19
  -8  -3   6 367.891 191.456   2
   8  -3   6 401.186 166.627   1
   8   3  -6 669.309 267.954  18
  -8  -3   6 244.117 181.866   4
  -8  -3   6 238.586 180.765  17
   8   3  -6 539.288 187.894   8
   8  -3   6 491.769 209.066   8
  -8   3  -6 539.909 298.621   4
   8   3  -6 340.950 272.376  14
   8  -3   6 433.996 187.030  14
  -8   3  -6 383.061 233.388   3
   8  -3   7 54.6813 92.4775   6
  -8   3  -7-46.5654 54.6561   3
   8   3  -7 6.76722 54.6092  20
   8   3  -7 41.0258 59.2149  13
   8   3  -7-17.6788 73.2499   1
  -8   3  -7 54.8223 93.9529  12
   8   3  -7 21.6820 99.7161  11
  -8  -3   7 9.22879 59.5954   5
   8  -3   7 3.84697 34.0964   1
  -8   3  -7-33.4604 29.8409   5
   8   3  -7 170.360 172.558  10
  -8   3  -7 47.6069 46.9694  19
   8   3  -7 28.1889 62.6707  18
  -8  -3   7-114.117 174.730   4
  -8  -3   7 28.4011 80.3384  19
  -8  -3   7 68.2727 157.802  17
  -8   3  -7 57.8181 65.6004   4
   8  -3   7 27.0003 6.42760   8
   8   3  -7-9.36794 33.9903   8
   8  -3   7-283.553 448.499  16
   8   3  -7-221.748 205.733  14
  -8  -3   7 106.389 116.469   2
   8  -3   7-3.89968 53.5554  14
   8   3  -8 1325.00 299.474  13
  -8   3  -8 672.421 294.890   3
   8  -3   8 1774.45 397.573   1
   8   3  -8 1509.80 453.700   1
  -8   3  -8 678.614 258.919  12
  -8  -3   8 1102.30 338.463   2
   8   3  -8 2064.03 479.456  11
  -8  -3   8 1230.84 419.231   5
  -8   3  -8 1044.99 331.450   5
  -8   3  -8 852.782 260.632  20
  -8   3  -8 1264.94 298.338  10
   8   3  -8 436.195 245.094  20
   8   3  -8 1929.50 515.387  10
  -8   3  -8 1054.38 324.900  19
  -8  -3   8 1083.78 276.838  19
  -8   3  -8 1396.25 278.233   9
   8   3  -8 2688.08 678.927   9
   8  -3   8 1402.93 371.135   8
   8   3  -8 1602.86 421.041  18
   8   3  -8 1783.12 347.008   8
  -8  -3   8 983.049 347.034   4
  -8   3  -8 805.141 311.403   4
  -8  -3   8 791.583 354.553  17
  -8  -3   8 889.419 245.750  16
   8  -3   8 1590.34 538.186  16
   8   3  -8 2218.04 503.180   3
   8  -3   8 1743.20 400.889   6
   8  -3   8 1463.46 363.412  14
   8   3  -8 869.586 415.180  14
   3   8  -9 13.8568 197.256  13
  -8   3  -9 49.3356 78.5834  13
  -8   3  -9 106.942 100.589   3
   8   3  -9 232.428 156.735  13
   3  -8   9 9.30700 74.3159   6
  -8   3  -9 226.297 166.424  12
  -8   3  -9 131.676 117.084   5
   8   3  -9 250.862 162.783  11
   8   3  -9 94.4467 149.712   1
  -8  -3   9 208.630 196.012   5
  -8   3  -9 149.285 110.610  20
  -8   3  -9 105.385 83.5404  10
   8   3  -9-71.9690 235.058  20
   8   3  -9 91.2484 112.190  10
  -8   3  -9 120.112 94.9879  19
   8   3  -9 524.502 402.326   9
   3   8  -9-97.4087 216.332  18
  -8   3  -9 205.549 171.525   4
   8   3  -9 287.655 214.589  18
  -8  -3   9 201.635 169.158   2
  -8  -3   9 145.539 173.324   4
  -3  -8   9-86.7340 214.079  17
   8  -3   9 148.557 136.375   8
  -8  -3   9 111.549 87.4875  17
   8   3  -9 169.979 107.112   8
  -8  -3   9 218.615 142.370  16
   8  -3   9 432.450 293.348  16
  -8  -3   9 225.480 130.537  19
  -8   3  -9 581.719 394.872  15
  -8   3  -9 211.691 94.9169   9
   8  -3   9 254.398 193.665   1
  -3   8  -9 29.8732 130.900   3
   8   3  -9 110.020 59.6769  14
   8  -3   9 211.589 134.021  14
   8   3  -9 211.451 98.2874   3
   8  -3   9 173.999 144.981   6
   3   8 -10 606.285 321.267  13
  -8   3 -10 85.4445 157.259  13
   3  -8  10 0.92442 98.6795   6
  -8   3 -10 246.299 206.528   3
  -3  -8  10-57.4063 111.149   6
  -8   3 -10 595.923 262.455  12
  -8   3 -10 267.249 140.703  19
  -3   8 -10 530.971 208.240  12
  -8   3 -10 196.026 96.9643   5
   8   3 -10 639.432 294.060  11
  -8  -3  10 453.644 248.013   5
  -8   3 -10 225.404 132.436  20
   8   3 -10-531.214 569.546  20
  -8   3 -10 389.813 189.412  10
   8   3 -10 707.828 350.970  10
   8   3 -10 620.001 293.736   9
  -8  -3  10 429.048 184.217  19
  -8   3 -10 443.925 212.505   9
   3   8 -10 605.578 306.973  18
   8   3 -10 588.508 283.082  18
  -8   3 -10 217.121 185.095   4
  -3  -8  10 135.361 225.812  17
  -8  -3  10 527.733 282.372   4
  -8  -3  10 597.013 267.626   2
   8  -3  10 710.120 286.172   8
  -8  -3  10 551.918 267.754  17
   8  -3  10 588.283 348.021   1
   8   3 -10 58.1297 341.380   8
   8   3 -10 546.815 301.361   1
   8  -3  10 738.783 330.428  16
  -8  -3  10 513.480 212.165  16
  -8   3 -10 765.606 418.599   7
  -8   3 -10 658.929 394.110  15
   8   3 -10 597.560 158.738   3
   8   3 -10 365.306 284.977  14
  -3   8 -10 512.164 255.793   3
   8  -3  10 599.117 241.847  14
   8  -3  10 589.167 263.401   6
  -3   8 -11 584.654 107.895  13
  -8   3 -11 226.287 144.811  13
   3  -8  11 417.695 247.315   6
  -3  -8  11 104.725 77.4329   6
  -3   8 -11 1567.99 423.583  12
  -8   3 -11 957.493 372.592  12
  -8   3 -11 547.927 294.864   3
  -8  -3  11 1587.19 489.963   5
  -8  -3  11 1497.96 447.752   2
   8   3 -11 1619.08 486.101  11
  -8  -3  11 1411.01 425.650   4
  -8   3 -11 761.772 292.334  20
   8  -3  11 1752.03 459.218   8
  -8  -3  11 1053.09 301.458  19
  -8   3 -11 725.311 265.767  10
   8   3 -11 807.590 445.458  10
   8   3 -11 1173.41 426.018   1
  -8  -3  11 1115.47 412.622  17
  -8   3 -11 768.633 266.003  19
   8   3 -11 1724.67 533.622   9
  -8   3 -11 577.485 179.777   9
   8   3 -11 1373.70 433.066  18
   3   8 -11 1424.65 466.813  18
   8  -3  11 879.661 358.581   1
  -8   3 -11 568.254 298.889   4
   8  -3  11 2005.46 571.023  16
  -8  -3  11 1622.92 382.552  16
  -8   3 -11 1086.74 478.433   7
   3   8 -11 1570.20 398.830   3
   8  -3  11 1995.95 495.369   6
  -3   8 -11 1768.71 497.702   3
  -8   3 -11 857.482 473.427  15
   8  -3  11 1894.34 468.281  14
   8   3 -11 1664.39 288.415   3
   8   3 -11 835.673 426.169  14
   3   8 -11 1569.81 509.999  13
  -3   8 -12 246.200 283.432  13
   3   8 -12 457.732 256.003  13
  -8   3 -12 49.7873 81.7633  13
  -3  -8  12 83.3183 110.645   6
   3  -8  12 115.618 182.684   6
   8   3 -12 517.599 187.071   3
  -8   3 -12 721.781 361.756  12
  -8   3 -12 471.046 322.034   3
  -3   8 -12 440.054 222.669  12
   8   3 -12 448.582 234.409  11
  -8  -3  12 412.329 254.600   5
   8  -3  12-138.707 227.827   1
   8   3 -12 194.549 160.060  10
  -8   3 -12 327.870 200.826  19
   8   3 -12 472.981 313.703   9
  -8  -3  12 177.652 63.3973  19
   8   3 -12 398.930 295.192   1
  -8   3 -12-17.0626 306.961   9
  -3   8 -12 664.037 309.839  18
   3   8 -12 579.875 329.610  18
  -8   3 -12 32.7578 96.5481   4
   8   3 -12 463.553 268.413  18
   3  -8  12 344.482 425.523  17
  -3  -8  12 209.870 268.080  17
  -8  -3  12 334.770 173.044   4
  -8   3 -12 130.219 162.613  10
   8  -3  12 536.604 258.706   8
  -8   3 -12 130.258 97.5852  20
  -8  -3  12 305.286 223.948   2
  -8  -3  12 322.531 249.279  17
   8  -3  12 435.757 268.255  16
  -8  -3  12 402.029 217.628  16
  -8   3 -12 404.373 295.119   7
  -3   8 -12 424.537 161.349   4
  -8   3 -12 540.874 379.073  15
   3   8 -12 443.589 230.326   3
   8   3 -12 159.114 206.725  14
   8  -3  12 522.766 269.251  14
  -3   8 -12 332.236 210.786   3
   8  -3  12 500.962 258.148   6
   3   8 -13 2379.29 629.125  13
  -3   8 -13 1958.88 818.629  13
  -3  -8  13 789.998 315.742   6
   3  -8  13 1048.22 415.205   6
  -8   3 -13 494.876 239.321  13
  -3   8 -13 2434.20 522.843  12
   8   3 -13 1883.25 569.933   1
  -8  -3  13 2512.87 616.691   5
  -8  -3  13 2178.52 559.211   2
   8   3 -13 2015.06 554.447  11
  -8   3 -13 503.820 261.505  20
  -8   3 -13 629.399 353.648  10
   8   3 -13 735.398 463.615  10
  -8   3 -13 1271.73 385.490  19
  -8  -3  13 2378.53 517.189   4
  -3   8 -13 2886.75 580.305  18
   3   8 -13 2268.25 655.194  18
   8   3 -13 2211.98 591.431  18
  -3   8 -13 2694.05 433.869   4
   8  -3  13 3033.37 633.658   8
  -8  -3  13 2324.74 665.648  17
   3  -8  13 1004.99 394.961  17
  -3  -8  13 425.981 325.164  17
   8   3 -13 1428.85 542.693   9
   8  -3  13 3548.04 826.940  16
  -8  -3  13 2422.35 516.808  16
  -8   3 -13 678.267 386.252   7
   8  -3  13 3010.15 634.739   6
   3   8 -13 2497.11 548.097   3
  -3   8 -13 2570.50 609.713   3
  -8   3 -13 1018.91 451.230  15
   8  -3  13 3392.28 677.999  14
   3  -8  13 1481.99 435.766  14
   8   3 -13 190.292 153.413  14
  -3  -8  14 161.884 122.757   6
  -3   8 -14 290.161 280.807  13
   3  -8  14 270.525 241.016   6
   3   8 -14 219.590 153.515  13
  -8   3 -14-12.7131 122.076  13
  -3   8 -14 243.513 135.766  12
   8   3 -14 223.664 105.415  11
  -8  -3  14 175.609 176.956   5
  -8   3 -14-39.5121 89.6374  20
  -8   3 -14-7.30190 168.442  10
   8   3 -14-345.019 643.406  10
  -8   3 -14 45.3780 123.975  19
   8   3 -14 251.762 213.553   9
   3   8 -14 515.044 308.204  18
   8   3 -14 217.499 185.893   1
   8   3 -14 340.302 246.693  18
   3  -8  14 163.963 159.286  17
  -3  -8  14-201.633 381.107  17
  -8  -3  14 482.857 245.025   4
  -8  -3  14 194.280 140.769   2
  -8  -3  14 310.422 220.220  17
  -3   8 -14 392.311 191.149   4
  -8   3 -14-233.071 406.666   7
   8  -3  14 476.587 302.727  16
  -8  -3  14 391.872 190.211  16
  -8   3 -14-198.210 410.033  15
   8  -3  14 366.466 235.288   8
   8  -3  14 313.476 169.288  14
   8   3 -14 1.92778 163.900  14
   8  -3  14 312.662 119.747   6
   3   8 -14 409.291 234.952   3
  -3   8 -14 241.209 108.909   3
  -3   8 -14 395.097 173.101  18
   3  -8  14 240.825 140.653  14
  -3  -8  15 237.781 102.186   6
   3  -8  15 1049.47 429.584   6
  -3   8 -15 1411.61 657.092  13
   3   8 -15 1397.53 498.683  13
  -3   8 -15 1451.19 417.367  12
  -8  -3  15 1777.93 572.680   5
   3   8 -15 1701.31 393.000  12
   8   3 -15 975.560 395.579  11
  -3  -8  15-327.013 693.790   2
  -8   3 -15 105.368 74.5518  20
  -8   3 -15-171.493 366.884  10
   8   3 -15-708.309 1102.15  10
  -8  -3  15 1784.09 428.047   4
  -3   8 -15 2045.00 461.706   4
   8   3 -15 417.267 292.922   9
  -3   8 -15 1549.60 360.203  18
   3   8 -15 1768.92 606.768  18
   8   3 -15 958.442 398.894  18
  -8   3 -15 241.507 220.247  19
   8   3 -15 899.815 419.823   1
   8  -3  15 1860.84 516.652   8
   3  -8  15 983.215 325.246  17
  -3  -8  15 756.240 386.110  17
  -8  -3  15 1815.48 513.612   2
  -8  -3  15 1431.14 548.273  17
   8  -3  15 1982.76 647.801  16
  -8  -3  15 1712.20 478.704  16
   8  -3  15 1969.53 589.050   6
  -8   3 -15-357.377 580.757  15
   3   8 -15 1724.84 471.399   3
  -3   8 -15 1658.77 526.107   3
   8  -3  15 2022.41 639.393  14
   3  -8  15 1001.54 275.199  14
   8   3 -15 398.809 299.132  14
   3  -8  16 252.979 300.998   6
  -3   8 -16 200.772 184.385  13
   3   8 -16 357.322 188.309  13
  -3   8 -16 435.155 230.659  12
   3   8 -16 387.395 176.214  12
   8   3 -16 216.924 65.2888  11
  -8  -3  16 543.383 314.230   5
  -3  -8  16-322.146 490.768   2
  -8   3 -16-107.020 229.505  20
  -8   3 -16-736.571 722.793  10
  -8   3 -16-0.73020 38.6676  19
   8   3 -16-1366.52 1503.41  10
   3   8 -16 407.023 258.977  18
   8   3 -16-242.580 468.769   9
  -3   8 -16 327.941 154.929  18
   8   3 -16 165.123 161.476  18
   8   3 -16 242.039 201.421   1
   8  -3  16 599.595 335.193   8
  -3  -8  16 240.143 96.7843  17
   3  -8  16 241.634 162.766  17
  -8  -3  16 423.569 217.247   4
  -8  -3  16 300.804 181.213  17
  -8  -3  16 134.525 80.0032   2
  -3  -8  16-449.294 556.198  16
   3  -8  16-474.170 492.399  16
   8  -3  16 487.092 331.584  16
  -8  -3  16 597.407 289.282  16
   3   8 -16 1071.98 734.652  15
   8  -3  16 480.035 268.590  14
   8  -3  16 546.942 311.265   6
   3  -8  16 196.205 145.130  14
   3   8 -16 344.002 158.021   3
  -3  -8  16 120.905 77.6694   6
  -3   8 -16 278.722 225.022   3
   8   4   0 2189.65 596.655   1
  -8   4   0 2772.12 554.590   5
   8  -4   0 1157.15 397.512   1
  -8   4   0 3021.99 576.606  19
   8   4   0 2155.83 472.572  18
   8   4   0 1741.46 468.641   8
  -8  -4   0 73.3286 115.759  17
   8  -4   0 656.849 275.128   8
   8  -4   0 1236.87 386.542  14
   8  -4   1 91.3532 121.351   6
   8   4  -1-93.5539 192.883   1
  -8   4  -1-45.7821 98.2717   5
  -8   4  -1-127.487 162.413  19
  -8   4   1-193.741 218.549  19
   8   4  -1-48.3835 100.044  18
   8   4   1-81.5218 158.569   8
   8   4  -1-38.8153 94.6067   8
  -8  -4   1 75.3741 63.9701  17
   8  -4   1-61.2051 108.305   1
   8  -4   1-27.2009 56.0960   8
  -8   4  -1-275.522 232.584   4
   8  -4   1-49.0026 80.7404  14
   8   4  -2 1996.51 586.724   1
  -8   4  -2 2012.11 564.362  12
  -8   4  -2 2159.47 466.655   5
   8  -4   2 1383.17 374.238   1
   8   4  -2 2333.38 538.352  18
   8   4  -2 2266.29 481.560   8
  -8   4  -2 2105.84 476.617   4
   8  -4   2 1321.11 386.628   8
  -8  -4   2 128.921 197.668  17
  -8  -4   2 76.8369 114.549  19
   8  -4   2 1694.05 462.937   6
   8  -4   2 1494.90 402.337  14
  -8   4  -2 2302.33 479.500  19
   8  -4   3 38.2206 66.7606   6
  -8   4  -3 7.52311 71.0504  12
   8  -4   3 16.3754 41.0113   1
  -8   4  -3 11.9404 69.4204   5
  -8   4  -3 12.6275 43.5224  19
   8   4  -3 226.000 262.724  18
   8   4  -3-8.32432 108.607   8
  -8  -4   3 110.559 98.8258  19
  -8  -4   3 185.265 184.315  17
   8   4  -3 144.930 201.078   1
   8  -4   3 5.36459 51.3393   8
  -8   4  -3-27.1484 18.7999   4
   8  -4   3-3.70867 47.9314  14
   8   4  -4 277.447 139.997  13
   8  -4   4 413.111 211.181   6
  -8   4  -4 362.494 185.644  12
  -8  -4   4-231.923 297.486   2
  -8  -4   4 127.691 186.745  19
  -8   4  -4 275.608 147.212   5
  -8   4  -4 339.166 188.714  19
   8   4  -4 534.456 268.362  18
   8   4  -4 387.229 170.872   8
  -8  -4   4 61.4536 42.0132  17
   8  -4   4 263.934 168.490   8
   8   4  -4 416.915 289.531   1
  -8   4  -4 301.405 172.592   4
   8  -4   4 286.814 162.075   1
   8   4  -4 145.253 143.119  14
  -8   4  -4 23.0021 174.490   3
   8  -4   4 384.885 192.649  14
   8   4  -5 67.1684 52.2677  13
   8  -4   5 24.5013 78.0437   6
  -8   4  -5 94.1425 109.814  12
  -8  -4   5-144.372 187.261   2
  -8   4  -5 78.7451 52.8808   5
  -8  -4   5 1.81461 84.0458  19
  -8   4  -5-22.9353 108.981  19
   8  -4   5 23.3886 55.9332   1
   8   4  -5 23.3598 80.8914  18
   8   4  -5 290.657 176.817   8
  -8  -4   5-78.7399 127.613  17
   8  -4   5-22.3397 59.6428   8
  -8   4  -5 25.9704 36.2389   4
   8   4  -5 283.492 249.635   1
   8   4  -5 396.290 291.461  14
  -8   4  -5-8.28980 61.3305   3
   8  -4   5-29.7635 69.0169  14
   8  -4   6-46.7214 76.3399   1
   8   4  -6 40.4806 83.4443  13
   8  -4   6 8.02859 55.3192   6
  -8   4  -6-57.1963 81.7946  12
  -8   4  -6-3.24499 53.7956   5
  -8  -4   6-14.8505 50.6834   2
  -8  -4   6-40.2282 96.1932  19
  -8   4  -6-7.61802 42.6417  19
   8   4  -6 10.7760 80.1188  18
   8   4  -6 22.3357 89.0252   8
  -8  -4   6 32.9196 105.257  17
   8  -4   6-22.6515 80.9074   8
  -8   4  -6-81.7190 98.1452   4
   8   4  -6 28.0687 140.928   1
   8   4  -6-226.852 217.183  14
  -8   4  -6-10.2999 100.790   3
   8  -4   6 36.3867 69.8894  14
   8  -4   7 292.323 171.994   6
   8   4  -7 206.203 117.758  13
  -8   4  -7 194.895 153.070  12
   8   4  -7 330.588 180.088  20
  -8   4  -7 199.163 135.526   5
  -8  -4   7 232.125 164.696  19
  -8  -4   7 86.6810 118.354   2
  -8   4  -7 199.996 97.8355  19
   8   4  -7 285.354 175.471  18
   8   4  -7 247.868 148.371   8
  -8  -4   7-64.8172 128.823  17
   8  -4   7 235.209 173.057   8
  -8   4  -7 173.714 131.321   4
   8  -4   7 261.381 128.539   1
   8   4  -7 231.495 203.574   1
   8   4  -7 18.5395 98.5562  14
   8  -4   7 291.388 168.674  14
  -8   4  -7 226.166 186.343   3
  -8   4  -8 33.9401 66.3381   3
   4   8  -8-320.263 368.417  13
   8  -4   8 55.3137 75.7828   6
   8   4  -8 0.99855 29.7209  13
  -8   4  -8-14.6925 48.2796  12
  -8  -4   8 103.906 209.510   5
   8   4  -8 89.4076 209.034  11
  -8   4  -8 6.89936 12.3157   5
   8   4  -8 98.7205 148.698  20
  -8  -4   8-58.8348 106.961  19
   8  -4   8 16.6364 62.1657   1
  -8  -4   8-1.14778 23.4407   2
   4   8  -8-313.725 283.716  18
   8   4  -8-8.88965 33.7918  18
  -4  -8   8-3.53978 106.202  17
  -8  -4   8 108.489 138.129  17
   8   4  -8 24.9211 36.7934   8
  -8   4  -8 3.30504 12.5542   4
   8  -4   8-77.1072 96.2532   8
  -8   4  -8 69.6447 99.9911  19
   8   4  -8 9.39302 101.085  14
   8   4  -8-71.5253 112.393   1
   8  -4   8-32.1583 76.6921  14
   8  -4   9 272.072 179.416   6
   4   8  -9 45.7368 149.772  13
  -8   4  -9 16.0354 98.1749   3
   8   4  -9 248.876 164.615  13
   4  -8   9 56.2939 124.908   6
  -8   4  -9 101.417 89.0785  12
   8  -4   9 191.259 143.431   1
  -4   8  -9 45.8446 119.517  12
  -8  -4   9 316.606 314.182   5
   8   4  -9 259.680 192.067  11
  -8   4  -9 144.036 95.7917   5
   8   4  -9 313.314 209.619  20
   8   4  -9 544.600 405.272  10
  -8  -4   9 154.008 122.619  19
  -8   4  -9 107.723 94.2294  19
   4   8  -9-65.8430 158.958  18
  -8  -4   9 156.266 149.822   2
   8   4  -9 331.199 207.304  18
  -4  -8   9 112.518 163.029  17
  -8  -4   9 320.297 225.666  17
  -8   4  -9 191.903 132.581   4
   8  -4   9 301.984 200.744   8
   8   4  -9 239.234 123.809   8
   8  -4   9 41.7170 403.228  16
   8   4  -9 75.9924 360.686   3
   8   4  -9 54.1307 43.8425  14
  -4   8  -9 67.2558 69.5336   3
   8  -4   9 169.492 101.697  14
   8   4  -9 37.4558 51.0855   1
  -8   4 -10 26.2690 53.2162  13
   4   8 -10 1026.90 401.689  13
   8   4 -10 938.241 371.653   1
  -8   4 -10 502.072 264.924   3
   8   4 -10 869.227 271.882  13
   4  -8  10 297.418 214.129   6
  -4  -8  10-17.5564 66.3915   6
  -8   4 -10 653.129 247.518  12
  -4   8 -10 860.904 313.715  12
  -8  -4  10 641.290 354.372   5
   8   4 -10 1132.51 399.761  11
  -8   4 -10 593.377 246.594   5
  -8   4 -10 566.785 241.368  20
  -8   4 -10 1024.42 335.513  10
   8   4 -10 544.089 308.971  20
   8   4 -10 904.415 383.266  10
  -8   4 -10 735.650 268.252  19
  -8  -4  10 724.172 248.936  19
   4   8 -10 693.475 345.013  18
  -8  -4  10 590.656 276.621   2
   8   4 -10 892.134 259.024   8
   8   4 -10 864.253 341.114  18
  -4  -8  10 139.268 234.213  17
  -8   4 -10 533.217 259.907   4
  -8  -4  10 587.981 276.955  17
   8  -4  10 878.411 304.944   8
  -8  -4  10 360.901 143.000  16
   8  -4  10 877.990 443.550  16
  -4   8 -10 995.352 386.850   3
   8   4 -10 1205.30 315.693   3
   8   4 -10 19.1740 45.3169  14
   8  -4  10 814.439 268.259  14
   8  -4  10 1049.89 329.952   1
   8  -4  10 950.205 329.899   6
   4   8 -11 215.280 188.150  13
  -8   4 -11 116.868 179.325  13
  -8   4 -11 181.576 159.757   3
   8   4 -11 114.627 178.698   1
   8   4 -11 167.596 139.983  13
   4  -8  11 98.6945 90.4256   6
  -4  -8  11 131.532 155.604   6
  -8   4 -11 107.238 127.254  12
  -4   8 -11 53.6810 34.3050  12
  -8   4 -11 55.3649 69.4981   5
  -8  -4  11 82.5002 169.867   5
   8   4 -11 200.841 189.349  11
  -8   4 -11 128.168 80.3959  20
  -8   4 -11 75.0051 125.791  10
   8   4 -11 83.3670 141.061  20
   8   4 -11 304.603 299.456  10
  -8   4 -11 68.0266 114.682  19
   8   4 -11 1323.69 541.301   9
  -8   4 -11 351.222 226.380   9
  -8  -4  11 109.663 110.889  19
   4   8 -11 135.055 110.556  18
   8   4 -11 111.006 128.345  18
  -8  -4  11 218.093 190.097   2
  -8   4 -11 136.231 86.5990   4
  -4  -8  11-183.576 175.005  17
  -8  -4  11 38.0099 57.7430  17
   8  -4  11 122.607 144.345   8
  -8  -4  11 182.472 132.518  16
   8  -4  11 349.983 273.433  16
   8  -4  11 121.947 160.289   1
  -4   8 -11 104.575 45.9417   4
  -8   4 -11 580.115 410.313  15
   8   4 -11 108.089 202.875  14
  -4   8 -11 256.514 214.399   3
   8  -4  11 115.653 97.1522  14
   8   4 -11 167.602 96.8408   3
   8  -4  11 194.068 139.959   6
  -8  -4  11-204.991 381.063   4
   4   8 -12 2394.33 602.345  13
   8   4 -12 2091.33 472.302  13
  -4   8 -12 501.412 256.663  13
  -8   4 -12 537.937 374.706  13
  -4  -8  12 206.095 120.958   6
   4  -8  12 688.258 322.202   6
  -8   4 -12 1244.65 410.824   3
   8   4 -12 1751.50 556.508   1
  -4   8 -12 2281.44 515.276  12
  -8   4 -12 1124.48 371.945  12
  -8  -4  12 1930.78 532.186   2
   8   4 -12 2351.63 615.322  11
  -8  -4  12 1977.96 644.067   5
  -8   4 -12 1087.70 326.354  20
  -8   4 -12 1715.33 415.208  10
   8   4 -12 2153.95 705.965  10
  -8  -4  12 1368.83 339.381  19
  -8   4 -12 1611.51 369.402   9
  -8   4 -12 1497.67 378.283  19
   8   4 -12 3251.52 780.437   9
  -4   8 -12 3081.84 653.026  18
   4   8 -12 2439.97 652.289  18
   8   4 -12 2411.82 636.974  18
  -4   8 -12 2411.55 442.527   4
   8  -4  12 2319.26 530.131   8
  -8  -4  12 788.952 283.796   4
   8  -4  12 865.151 359.898   1
  -8   4 -12 1342.57 481.340   4
   4  -8  12 653.050 469.900  17
  -4  -8  12 463.935 367.588  17
   8   4 -12 815.266 425.521  20
  -8  -4  12 1597.89 553.742  17
   8  -4  12 2924.85 818.449  16
  -8  -4  12 1919.61 460.836  16
  -8   4 -12 2028.02 688.697   7
   4   8 -12 2311.14 530.188   3
   8  -4  12 2728.14 577.020   6
  -8   4 -12 2132.29 726.881  15
  -4   8 -12 2431.36 610.955   3
   8   4 -12 2640.49 424.629   3
   8  -4  12 2498.01 518.410  14
   8   4 -12-73.2107 185.337  14
   4  -8  12 1311.81 454.622  14
  -4   8 -13-228.494 269.419  13
  -4  -8  13 61.3459 20.4317   6
   8   4 -13-25.2981 77.6443   3
   4   8 -13 27.1625 86.2846  13
   4  -8  13-67.4632 135.332   6
  -8   4 -13 28.9385 49.9545  13
  -8   4 -13 99.1555 163.934   3
  -8   4 -13-56.0304 72.5431  12
   8   4 -13-0.04992 36.3905   1
  -4   8 -13-70.2135 110.379  12
   8   4 -13-98.4533 159.537  11
  -8  -4  13 201.914 364.444   5
   8  -4  13-197.088 238.196   1
  -8   4 -13 44.6380 96.1067  20
   8   4 -13-271.913 374.634  20
  -8   4 -13 107.787 144.921  10
   8   4 -13-15.9928 140.737  10
  -8   4 -13 4.01870 74.0966  19
   8   4 -13 411.906 416.300   9
  -8   4 -13 73.4922 120.280   9
  -8  -4  13-149.365 184.851  19
  -4   8 -13 4.97404 69.9011  18
   4   8 -13-65.1539 127.535  18
  -8  -4  13-55.3696 236.661   4
   8   4 -13 72.0514 172.201  18
  -8   4 -13 66.4545 122.174   4
  -8  -4  13-39.8754 98.6028   2
   4  -8  13 42.6789 219.937  17
  -4  -8  13 70.0860 133.501  17
   8  -4  13 14.4681 92.7182   8
  -8  -4  13-133.206 134.624  17
  -4   8 -13 29.1626 91.6626   4
   8  -4  13 11.9737 42.2037  16
  -8  -4  13-95.1492 111.597  16
  -8   4 -13 234.284 310.218   7
  -8   4 -13 67.4723 219.714  15
   8   4 -13-91.0371 260.684  14
   4   8 -13-52.1587 106.063   3
   8  -4  13-28.8280 101.130  14
  -4   8 -13-16.9047 122.003   3
   8  -4  13-85.9520 97.1640   6
   4  -8  13 86.2969 129.427  14
   4   8 -14 2475.35 638.950  13
  -4  -8  14 467.286 202.771   6
  -4   8 -14 1020.42 627.978  13
   4  -8  14 1082.46 415.416   6
  -8   4 -14 333.570 86.3702  13
  -4   8 -14 2229.28 525.729  12
  -8   4 -14 1565.24 530.580   3
  -8   4 -14 1507.12 487.488  12
  -8  -4  14 2447.04 676.069   2
   8   4 -14 1982.89 638.032   1
   8   4 -14 2794.09 715.367  11
  -8  -4  14 2105.49 560.445   5
  -8   4 -14 1096.55 365.233   9
  -8   4 -14 1064.22 360.743  20
   8   4 -14 53.8505 659.141  20
  -8   4 -14 1265.83 359.170  10
   8   4 -14 1362.36 441.041  10
  -8   4 -14 1512.06 382.853  19
   8   4 -14 3369.65 923.219   9
  -4   8 -14 2237.03 412.957  18
   4   8 -14 2793.06 691.715  18
  -4   8 -14 2853.99 511.692   4
   8   4 -14 1888.99 577.260  18
   8  -4  14 2510.73 582.056   8
  -8   4 -14 807.170 438.085   4
  -8  -4  14 1585.86 477.690   4
  -8  -4  14 2331.84 740.543  17
   4  -8  14 1313.48 370.285  17
  -4  -8  14 687.075 329.438  17
   8  -4  14 3457.18 900.082  16
  -8  -4  14 3154.26 655.804  16
  -8   4 -14 1303.69 547.244   7
   8  -4  14 2631.84 665.901   6
   4   8 -14 2630.08 580.963   3
  -4   8 -14 2137.72 592.446   3
  -8   4 -14 1821.83 668.752  15
   8  -4  14 3320.04 704.572  14
   8   4 -14 2767.72 461.269   3
   4  -8  14 1338.68 348.773  14
   8   4 -14 130.359 173.408  14
   4  -8  15-14.3369 162.599   6
  -4   8 -15 39.0647 75.6718  13
   4   8 -15 99.7516 114.146  13
  -8   4 -15 125.237 227.922  13
   8   4 -15 162.349 122.032   3
  -8   4 -15 337.075 318.953  12
  -8   4 -15 51.8408 197.148   3
  -4   8 -15 92.6317 144.344  12
   8   4 -15 72.0448 169.580   1
  -8  -4  15 90.1699 210.196   5
   8   4 -15 161.351 174.049  11
  -4  -8  15-393.170 561.432   2
  -8   4 -15 63.8056 102.254  20
   8   4 -15-1019.52 924.979  20
  -8   4 -15-19.0631 185.453  10
  -8   4 -15-123.965 185.590  19
   8   4 -15 39.9823 167.657   9
  -8   4 -15 77.5027 119.720   9
   8   4 -15-49.8191 352.477  10
  -4   8 -15 98.2447 61.7260  18
   4   8 -15-19.3109 144.860  18
  -8  -4  15-82.6994 231.339   4
   8   4 -15 114.832 59.4831  18
  -8  -4  15 144.281 147.452   2
   4  -8  15 3.41638 24.4250  17
  -4  -8  15 161.468 267.848  17
   8  -4  15 122.496 165.929   8
  -4   8 -15 292.587 210.232   4
  -8  -4  15-25.3473 164.747  17
   8  -4  15 133.871 255.423  16
  -8  -4  15 92.6357 70.1551  16
  -8   4 -15-69.6013 204.970   7
  -8   4 -15 43.6977 101.002  15
   8  -4  15 57.7938 50.2588  14
   4   8 -15 192.023 160.180   3
   8  -4  15-19.7569 137.261   6
   4  -8  15 51.6118 78.2590  14
  -4   8 -15 76.9640 161.393   3
  -4  -8  15 1.73481 78.2416   6
   8   5  -1 463.749 254.054   1
   8   5  -1 775.331 296.538  18
  -8  -5   1-78.2463 154.277  17
   8  -5   2 338.482 359.615   6
   8   5  -2 148.327 174.860   1
  -8   5  -2 255.143 91.9207   5
  -8   5  -2 556.384 206.792  19
   8   5  -2 545.979 257.642  18
   8   5  -2 348.396 174.939   8
  -8  -5   2 9.49384 103.157  17
   8  -5   2-49.9179 339.491   8
   8  -5   2 337.006 225.300  14
   8  -5   3 305.823 203.009   1
   8  -5   3 244.489 188.295   6
  -8   5  -3 518.636 191.108   5
   8   5  -3 442.249 261.146   1
  -8   5  -3 548.000 231.386  19
   8   5  -3 420.601 251.094  18
   8   5  -3 195.393 141.595   8
  -8  -5   3 234.406 250.779  17
   8  -5   3 117.542 50.2816   8
  -8   5  -3 390.207 163.040   4
   8  -5   3 231.556 179.875  14
   8  -5   4-2.38443 33.6795   6
  -8   5  -4 61.8355 104.368  12
   8  -5   4 14.5644 28.2990   1
  -8  -5   4-13.4579 75.7948  19
  -8   5  -4 93.7900 97.4176  19
   8   5  -4 240.377 221.556  18
   8   5  -4 38.8692 98.7854   1
   8   5  -4 99.7671 95.7420   8
  -8  -5   4 30.4736 80.2401  17
   8  -5   4-2.70206 106.690   8
  -8   5  -4 42.9986 88.8678   4
  -8   5  -4 110.113 86.0244   5
   8  -5   4 82.8542 139.533  14
   8   5  -5-65.8728 175.867  13
   8  -5   5-30.5595 51.5872   6
  -8   5  -5 33.6601 60.1821  12
  -8  -5   5-72.2659 35.9089  19
  -8   5  -5 28.5048 80.0882   5
  -8   5  -5-7.05953 60.6008  19
   8   5  -5-96.8631 152.702  18
   8  -5   5-41.9478 71.3728   1
   8   5  -5 103.688 102.900   8
   8   5  -5-149.221 178.171   1
  -8  -5   5-48.3756 43.2519  17
   8  -5   5 19.0878 66.3036   8
  -8   5  -5-29.1796 46.0271   4
   8  -5   5 1.87515 12.6291  14
   8   5  -6 19.1417 9.19143  13
   8  -5   6 58.6703 83.9249   6
  -8   5  -6 50.1252 82.1724  12
  -8  -5   6-209.965 301.343   2
  -8  -5   6 29.5605 102.700  19
  -8   5  -6 21.6145 31.0727  19
   8   5  -6-81.7872 133.974  18
   8   5  -6 93.8468 127.525   8
  -8  -5   6-19.7726 31.1894  17
   8   5  -6 106.642 198.353   1
   8  -5   6 21.7414 36.9426   8
  -8   5  -6 139.335 157.276   4
  -8   5  -6 139.134 135.409   5
   8  -5   6 60.9459 99.4159   1
  -8   5  -6-3.75497 122.572   3
   8  -5   6 34.4491 93.6367  14
   8   5  -7 19.5512 83.3062  13
   8  -5   7 46.4410 57.8266   6
  -8   5  -7 75.2406 88.3352  12
  -8  -5   7-99.0259 182.231   2
  -8   5  -7-15.8550 70.2954   5
  -8  -5   7-207.308 180.001  19
   8  -5   7 69.4866 73.9057   1
  -8   5  -7 56.5634 49.9336  19
   8   5  -7 12.6947 51.7290  18
   8   5  -7 144.247 140.842   8
  -8  -5   7 199.572 262.012  17
   8   5  -7-3.76787 59.7584   1
   8  -5   7 44.8148 41.9038   8
  -8   5  -7 24.3879 67.8648   4
  -8   5  -7 18.4565 118.318   3
   8  -5   7 139.668 121.549  14
   5   8  -8-316.749 331.503  13
   8  -5   8-15.3661 64.5458   6
   8   5  -8-28.7149 76.3066  13
  -8   5  -8-34.3898 76.4455  12
  -8   5  -8 48.5878 71.1640   5
  -8  -5   8-0.77237 82.0841   2
  -8  -5   8-29.3020 53.4019  19
   5   8  -8-139.763 214.172  18
   8   5  -8 160.214 184.594  18
  -8   5  -8 79.4812 107.323  19
  -5  -8   8 77.5271 177.561  17
   8   5  -8 69.5756 92.8547   8
  -8  -5   8-8.98919 68.6165  17
   8  -5   8-14.9846 80.5181   8
  -8   5  -8 27.4385 84.1551   4
   8   5  -8-64.9001 70.3338   1
   8  -5   8 41.3817 77.5818   1
  -8   5  -8 14.0505 140.694   3
   8  -5   8-31.5246 41.2284  14
   5   8  -9-42.2312 189.333  13
   8  -5   9 64.1287 69.5687   6
   8   5  -9-10.9283 52.4962  13
   5  -8   9 134.476 193.357   6
  -8   5  -9 1.34611 49.0045  12
  -5   8  -9-122.706 189.998  12
  -8   5  -9-24.0851 61.1334   5
  -8  -5   9 7.65139 92.2752  19
  -8  -5   9 128.416 174.967   2
  -8   5  -9 32.8352 69.1912  19
   5   8  -9-108.068 156.892  18
   8   5  -9-40.9482 88.7241  18
  -5  -8   9 68.5058 121.491  17
   8  -5   9 3.35405 23.5723   1
  -8  -5   9 51.7289 192.478  17
   8   5  -9 25.0334 36.0710   8
  -8   5  -9-79.2945 119.662   4
   8  -5   9-27.2163 91.3519   8
   8   5  -9 46.4632 100.793   1
  -5   8  -9-111.199 183.350   3
   8  -5   9 12.0953 72.9225  14
  -8   5  -9 4.50919 108.820   3
   8  -5  10 17.4454 48.0218   6
   5   8 -10 36.1169 79.4957  13
   8   5 -10 1.76375 21.6335  13
   5  -8  10 153.003 193.828   6
  -5  -8  10-31.5034 77.6397   6
  -8   5 -10 84.4069 82.9177  12
  -5   8 -10 30.6447 51.1724  12
   8   5 -10 68.9826 134.871  11
  -8   5 -10 29.7198 99.8142   5
   8  -5  10 81.8406 91.3030   1
   8   5 -10 48.6235 115.183  20
  -8  -5  10 119.607 151.640  19
  -8   5 -10 108.626 147.945  19
  -8  -5  10 43.5230 20.4245   2
   5   8 -10 32.3635 74.4644  18
   8   5 -10 133.792 119.976  18
  -5  -8  10 277.271 219.129  17
  -8  -5  10 140.926 201.100  17
  -8   5 -10 152.700 190.536   4
   8   5 -10 45.1986 63.5921   8
   8  -5  10 45.3729 120.985   8
  -5   8 -10-131.762 257.166   4
   8   5 -10 101.616 156.720   1
  -5   8 -10 49.5278 104.270   3
   8  -5  10-27.1933 55.6507  14
  -8   5 -10 128.451 149.578   3
   8   5 -11 1170.45 344.549  13
  -8   5 -11 915.142 383.985   3
  -8   5 -11-116.216 257.276  13
   5  -8  11 405.583 273.766   6
  -5  -8  11 182.354 169.837   6
   8  -5  11 1231.66 338.731   1
  -5   8 -11 1291.24 394.427  12
  -8   5 -11 1002.78 319.303  12
   8   5 -11 1619.05 495.387  11
  -8   5 -11 1028.55 343.190   5
   8   5 -11 2241.03 732.470  10
   8   5 -11 1049.89 405.805  20
  -8   5 -11 1145.72 349.482  19
  -8  -5  11 681.128 339.027   2
   5   8 -11 1118.59 448.028  18
  -5   8 -11 1501.44 404.859   4
   8  -5  11 1260.51 403.123   8
   8   5 -11 1340.52 299.303   8
   8   5 -11 1320.43 453.537  18
  -8   5 -11 935.213 343.139   4
  -8  -5  11 535.594 303.151  17
   8  -5  11 547.510 353.062  16
   8   5 -11 1583.64 426.711   3
   8  -5  11 1439.72 423.012   6
  -5   8 -11 1263.92 462.968   3
   8   5 -11 1239.95 514.837   1
   8  -5  11 1341.40 373.649  14
  -8  -5  11 698.274 253.031  19
   5  -8  11 886.083 485.782  14
   5   8 -11 1221.98 429.640  13
  -8   5 -12-22.7453 140.753  13
  -8   5 -12-38.6697 135.305   3
   5   8 -12-14.0560 20.6437  13
  -5  -8  12 33.7255 10.7875   6
   5  -8  12-58.7138 120.418   6
   8   5 -12 59.9507 96.6366  13
  -8   5 -12 150.327 145.639  12
  -5   8 -12 58.6056 100.046  12
   8   5 -12-80.2336 195.268  11
  -8   5 -12 8.37682 84.4350   5
  -8   5 -12-34.4605 82.9590  20
   8   5 -12 34.9151 83.4076  20
   8   5 -12 318.643 318.519  10
  -5   8 -12 93.0454 75.2438   5
  -8  -5  12-47.7360 63.5086  19
  -8   5 -12-2.61494 99.2809  19
  -5   8 -12 34.0782 86.3731  18
  -8  -5  12-70.5783 110.570   2
   5   8 -12-49.0365 44.5395  18
   5  -8  12 30.4845 182.826  17
  -5  -8  12 227.994 266.475  17
  -8   5 -12 54.6342 101.150   4
  -8  -5  12 97.3162 166.099  17
   8  -5  12-18.7011 103.291   8
  -8  -5  12-252.612 311.803  16
   8  -5  12-57.9290 257.947  16
  -5   8 -12 81.7884 118.456   4
   8  -5  12-83.0509 118.748   1
   8   5 -12-42.4072 59.0406   1
   8   5 -12 44.1849 118.018  18
   8   5 -12 73.1953 96.6903   3
   8  -5  12 0.88394 57.5100  14
  -5   8 -12 69.1947 130.052   3
   5  -8  12-48.4319 54.2033  14
   8  -5  12 7.97680 22.0744   6
   8   5 -13 1843.03 458.257  13
  -5   8 -13 159.639 249.763  13
  -5  -8  13 340.432 214.704   6
  -8   5 -13 358.232 331.020  13
   5   8 -13 1342.47 462.203  13
  -8   5 -13 681.944 366.203   3
   5  -8  13 596.077 329.439   6
  -5   8 -13 1569.47 445.325  12
  -8   5 -13 1127.39 424.835  12
  -8  -5  13 2574.28 705.328   2
   8   5 -13 2228.89 719.532  11
  -8   5 -13 786.149 311.958  20
   8   5 -13 2289.38 728.912  20
  -8   5 -13 1117.59 350.433  10
   8   5 -13 2690.31 858.972  10
  -8  -5  13 1751.27 393.447  19
  -8   5 -13 1648.82 400.738   9
   8   5 -13 6860.29 1392.60   9
  -8   5 -13 1424.15 384.217  19
   8   5 -13 2593.65 693.422  18
  -5   8 -13 1800.40 421.359   4
   5   8 -13 1162.75 470.767  18
   8  -5  13 1572.86 440.863   8
   8  -5  13 527.095 301.607   1
  -8  -5  13 4867.88 1130.92  17
  -8   5 -13 1082.35 389.121   4
   5  -8  13 605.207 279.068  17
  -5  -8  13 701.158 419.964  17
   8  -5  13 1867.46 735.337  16
   5   8 -13 1522.39 400.291   3
   8  -5  13 1809.41 515.805   6
  -5   8 -13 1594.54 526.774   3
   8   5 -13 2423.24 478.562   3
  -8   5 -13 1699.77 697.040  15
   8  -5  13 1679.70 432.028  14
   8   5 -13 2263.18 706.597   1
   5  -8  13 825.483 309.077  14
  -5   8 -14-72.7966 252.913  13
   5  -8  14 103.335 121.929   6
  -8   5 -14-67.8970 209.655  13
   5   8 -14-17.4080 127.202  13
  -8   5 -14-4.52074 114.578   3
   8   5 -14 31.6600 71.0022  13
  -8   5 -14-361.490 230.807  12
  -5   8 -14-73.7797 162.709  12
  -8  -5  14 21.8329 28.8328   5
   8   5 -14-262.671 307.347  11
  -5  -8  14-618.798 636.214   2
  -8   5 -14 36.1529 75.1245  20
   8   5 -14-185.439 304.857  20
  -8   5 -14-109.117 133.887  10
   8   5 -14 44.5349 243.526  10
   8   5 -14 525.871 483.715   9
  -8   5 -14 71.4970 153.173   9
  -8   5 -14 42.6933 56.3368  19
   5   8 -14-65.6202 181.908  18
  -8  -5  14-124.158 137.057   2
   8   5 -14-14.9869 194.540  18
  -8   5 -14-64.9946 200.116   4
  -5  -8  14-117.265 168.059  17
  -8  -5  14-116.202 190.577  17
   8  -5  14-89.0122 153.230   8
  -5   8 -14 53.4526 77.1072   4
  -8  -5  14-41.9148 67.3225  16
   8  -5  14 235.445 170.619  16
  -8   5 -14 407.190 385.595   7
  -8   5 -14 350.879 366.389  15
   5   8 -14-4.14125 46.2436   3
   8  -5  14 68.6357 111.670  14
   8   5 -14-63.3152 81.2938   1
  -5   8 -14-16.4966 114.699   3
   5  -8  14-9.06431 69.7701  14
   8  -5  14-0.24559 69.4217   6
   8   5 -14 35.4609 47.7708   3
  -5  -8  14 26.6738 86.7938   6
   8   6  -2-147.241 241.868  18
  -8  -6   2-39.8151 156.266  17
   8   6  -3 522.174 215.981  18
  -8  -6   3-148.793 168.628  17
   8  -6   4 93.4583 228.826   6
   8   6  -4-182.040 309.669   1
   8   6  -4 142.883 150.476  18
   8   6  -4 23.7570 115.145   8
  -8  -6   4 13.6513 131.381  17
  -8   6  -4-260.513 331.199   4
   8  -6   5 154.494 166.963   6
  -8   6  -5 210.457 36.0013  12
   8   6  -5 76.4397 38.2579   1
  -8   6  -5 305.897 114.017   5
  -8   6  -5 222.192 91.9620  19
   8   6  -5 174.992 165.516  18
   8   6  -5 217.598 149.208   8
  -8  -6   5 205.084 275.877  17
   8  -6   5-56.6181 265.563   8
  -8   6  -5 160.025 70.7433   4
   8  -6   5 314.768 231.652  14
   8   6  -6-26.1311 239.216  13
   8  -6   6 187.808 193.682   6
  -8   6  -6 158.747 102.767  12
   8  -6   6 36.1652 15.0055   1
  -8  -6   6-17.6949 132.107  19
   8   6  -6 210.904 241.282   1
  -8   6  -6 224.434 158.376  19
   8   6  -6 347.495 257.531  18
  -8   6  -6 268.591 176.356   5
   8   6  -6 147.938 135.760   8
  -8  -6   6 52.3044 119.161  17
   8  -6   6 125.522 93.7536   8
  -8   6  -6 267.848 193.392   4
   8  -6   6 108.880 98.8397  14
   8   6  -7 30.1200 75.5298  13
   8  -6   7 148.676 180.084   6
  -8   6  -7 179.740 183.485  12
  -8  -6   7-66.5839 60.6722  19
   8   6  -7 161.889 181.600   1
  -8   6  -7 95.7842 99.4088   5
  -8   6  -7 47.6253 41.9552  19
   8  -6   7 121.899 122.194   1
   6   8  -7-89.0813 171.186  18
   8   6  -7 141.285 198.706  18
   8   6  -7 95.2461 98.6142   8
  -6  -8   7 81.5505 157.854  17
  -8  -6   7 74.6280 34.9284  17
   8  -6   7 104.524 106.057   8
  -8   6  -7 125.684 118.825   4
  -8   6  -7 76.8316 50.1258   3
   8  -6   7 85.8906 113.340  14
   8   6  -8 309.866 160.243  13
   8  -6   8 270.037 201.069   6
  -8   6  -8 237.346 144.637  12
  -8  -6   8-339.354 361.494   2
  -8   6  -8 438.877 211.289   5
  -8  -6   8 109.273 147.430  19
   6   8  -8 186.931 161.281  18
   8   6  -8 880.477 449.292  18
   8   6  -8 804.989 478.059   1
   8   6  -8 728.834 269.072   8
  -6  -8   8-30.0950 135.380  17
  -8  -6   8 21.4324 215.195  17
   8  -6   8 251.435 184.960   8
  -8   6  -8 322.145 211.953   4
   8  -6   8 234.855 158.925   1
  -8   6  -8 520.946 231.670  19
  -8   6  -8 309.527 242.693   3
   8  -6   8 266.079 183.705  14
   6   8  -9 163.094 77.1126  13
   8   6  -9 338.974 190.527  13
   8  -6   9 269.915 210.554   6
   6  -8   9 127.946 182.764   6
  -8   6  -9 203.947 142.416  12
  -6   8  -9 209.098 113.317  12
   8  -6   9 148.346 122.564   1
  -8   6  -9 139.506 58.3685   5
  -8  -6   9-23.6617 78.5988  19
  -8  -6   9-240.602 259.852   2
  -8   6  -9 298.659 188.630  19
   6   8  -9 288.973 233.389  18
   8   6  -9 256.615 159.979  18
   8   6  -9 106.562 157.533   1
  -6  -8   9 189.415 224.722  17
   8   6  -9 448.174 172.671   8
  -8  -6   9-165.560 245.524  17
   8  -6   9 150.105 147.933   8
  -8   6  -9 225.842 173.973   4
  -6   8  -9 107.418 195.226   4
  -6   8  -9 167.323 157.744   3
  -8   6  -9 159.017 208.702   3
   8  -6   9 135.448 107.707  14
   6   8 -10 99.3340 136.115  13
   8  -6  10-13.5712 59.0332   6
   8   6 -10-42.8577 11.8478  13
   6  -8  10 41.3213 152.083   6
  -6  -8  10-25.2662 51.8129   6
  -8   6 -10 50.0205 67.8368  12
  -6   8 -10-33.4019 74.6526  12
  -8   6 -10 62.4549 44.1368   5
  -8  -6  10-130.144 191.579   2
  -8  -6  10-23.5712 71.6237  19
  -8   6 -10 83.0934 131.255  19
   6   8 -10 146.145 176.473  18
   8   6 -10 96.2827 154.049  18
  -6  -8  10-66.0542 200.750  17
   8   6 -10-19.9159 174.239   1
  -8  -6  10 212.838 277.711  17
   8   6 -10 116.117 104.652   8
  -8   6 -10-9.95769 89.0518   4
   8  -6  10 1.70658 50.2076   8
  -6   8 -10 20.9710 74.6328   4
   8  -6  10-32.9338 60.3758   1
  -6   8 -10 87.6497 82.3344   3
  -8   6 -10-27.2795 9.01321   3
   8  -6  10 66.7724 102.431  14
   8  -6  11 110.217 3.18035   6
   6   8 -11 167.656 176.721  13
   8   6 -11 118.840 147.932  13
  -6  -8  11 23.8547 87.1338   6
   6  -8  11 61.3009 141.096   6
  -8   6 -11 126.242 166.732  12
  -6   8 -11 237.184 175.278  12
  -8   6 -11 103.408 97.5621   5
  -8  -6  11-96.8588 174.368   2
  -8  -6  11 12.4731 24.5670  19
  -6   8 -11 260.104 164.654   5
   8  -6  11 43.2799 47.7362   1
  -8   6 -11 121.612 156.321  19
   6   8 -11 205.382 232.606  18
   8   6 -11 217.940 194.774  18
  -6  -8  11-75.1585 161.608  17
  -8  -6  11-233.960 163.896  17
   8   6 -11-96.7642 184.405   1
  -8   6 -11 144.227 150.272   4
   8  -6  11 110.749 124.546   8
  -6   8 -11 291.093 172.783   4
  -6   8 -11 313.693 238.894   3
   8  -6  11 191.018 140.657  14
  -8   6 -11 397.122 270.675   3
   6  -8  11 171.133 203.301  14
   8  -6  12 571.253 280.221   6
  -6  -8  12 100.906 82.1567   6
   6   8 -12 442.536 272.979  13
   8   6 -12 1204.93 428.409  13
   6  -8  12 164.261 138.739   6
   8  -6  12 535.906 206.778   1
  -8   6 -12 319.788 196.227  12
  -6   8 -12 454.032 222.273  12
   8   6 -12 1791.70 682.750  11
  -8   6 -12 570.180 255.701   5
   8   6 -12 1364.85 529.893  20
  -6   8 -12 695.362 237.872   5
  -8  -6  12 494.866 356.133   2
  -8  -6  12 575.846 222.795  19
  -8   6 -12 451.249 258.947  19
   6   8 -12 243.372 208.551  18
   8   6 -12 1187.43 567.921  18
  -6  -8  12 209.425 263.474  17
  -8  -6  12 1537.84 779.778  17
  -8   6 -12 313.086 220.336   4
   8  -6  12 549.269 288.269   8
   8   6 -12 1557.76 782.444   1
  -6   8 -12 649.956 266.038   4
   8   6 -12-251.842 493.959   3
  -6   8 -12 528.443 328.271   3
   8  -6  12 400.127 202.404  14
   6  -8  12 409.577 300.659  14
  -8   6 -12 241.739 244.826   3
  -8   6 -13 244.142 179.408   3
   8  -6  13 260.789 225.137   6
  -8   6 -13-77.9177 260.633  13
   6   8 -13 305.926 230.174  13
   6  -8  13 32.8976 159.787   6
   8   6 -13 260.541 208.403  13
   8   6 -13 362.232 311.031  20
  -8   6 -13 352.349 204.022  12
  -6   8 -13 250.775 176.374  12
   8   6 -13 383.447 240.637  11
  -8   6 -13 239.736 215.354   5
   8   6 -13 962.175 646.156  10
  -8  -6  13 56.9832 107.752   2
  -8   6 -13 175.852 146.917  19
   6   8 -13 108.310 147.639  18
   8   6 -13 206.389 62.6855  18
  -6  -8  13 19.0091 126.059  17
  -8   6 -13-31.9339 134.898   4
  -8  -6  13 183.798 113.766  17
   8  -6  13 275.625 168.240   8
  -6   8 -13 356.414 212.416   4
   8  -6  13-452.261 923.168  16
   8   6 -13 303.941 284.915   1
   8   6 -13 232.798 121.624   3
   8  -6  13 342.906 205.662  14
  -6   8 -13 203.901 173.266   3
   6  -8  13 182.502 160.640  14
   8   7  -4-67.1829 160.455  18
  -8  -7   4-17.3916 90.4934  17
   8   7  -5 475.928 278.247  18
  -8  -7   5 74.8470 116.883  17
   8  -7   6 208.801 271.827   6
   8   7  -6 156.012 139.939  18
  -7  -8   6 330.765 317.215  17
  -8  -7   6-56.5995 68.3204  17
  -8   7  -6-245.108 393.340   4
   8   7  -7 546.676 143.941  13
   8  -7   7 457.183 289.863   6
  -8   7  -7 1088.50 372.219  12
   8   7  -7-49.5024 312.459   1
  -8   7  -7 1312.07 467.691   5
   7   8  -7 665.502 294.108  18
   8   7  -7 874.848 383.153  18
  -7  -8   7 91.4421 179.248  17
  -8  -7   7 148.783 222.766  17
   8   7  -7 602.367 232.374   8
   8  -7   7-162.248 402.932   8
  -8   7  -7 1542.44 544.583   4
   8  -7   7 536.303 343.902  14
   8   7  -8-9.40636 108.204  13
   8  -7   8 179.491 247.869   6
   7  -8   8 175.559 260.782   6
  -8   7  -8 138.399 137.825  12
   8  -7   8 18.3316 109.466   1
  -8  -7   8 85.7772 207.381  19
   8   7  -8-231.946 340.715   1
  -8   7  -8 148.415 117.397   5
   7   8  -8 91.6086 145.260  18
   8   7  -8 78.9106 94.6342  18
   8   7  -8 104.166 98.8927   8
  -7  -8   8 142.032 240.970  17
  -8  -7   8-35.8610 106.093  17
   8  -7   8-117.128 393.988   8
  -8   7  -8 24.5534 78.9554   4
  -8   7  -8-136.390 303.528   3
   8  -7   8 227.885 238.862  14
   7   8  -9 357.362 178.947  13
   8   7  -9 647.254 295.658  13
   8  -7   9 253.317 182.053   6
   7  -8   9 420.908 308.558   6
  -7  -8   9-11.2689 96.7735   6
  -8   7  -9 815.247 320.423  12
  -7   8  -9 637.608 263.679  12
   8  -7   9 350.721 178.291   1
  -8  -7   9-106.820 133.695  19
   8   7  -9 176.751 139.078   1
  -8   7  -9 741.026 307.462   5
  -8   7  -9 728.580 288.380  19
   8   7  -9 548.187 305.253  18
   7   8  -9 395.535 255.461  18
   8   7  -9 602.495 226.899   8
  -7  -8   9 46.5621 188.006  17
  -8  -7   9 93.2641 192.291  17
   8  -7   9 270.974 236.467   8
  -8   7  -9 737.049 335.292   4
  -7   8  -9 825.466 394.664   4
  -8   7  -9 627.137 377.836   3
   8  -7   9 328.278 227.126  14
   7   8 -10 37.6199 81.6662  13
   8   7 -10 52.4298 56.1962  13
   8  -7  10 97.8912 149.353   6
   7  -8  10 69.0082 104.615   6
  -8   7 -10 76.2542 20.6066  12
  -7   8 -10 94.5545 40.3738  12
  -8   7 -10 207.824 143.131   5
  -8  -7  10 130.290 148.373  19
  -7   8 -10 47.8453 88.7112   5
   8   7 -10-4.16363 280.241   1
  -8   7 -10-98.6864 247.537  19
   7   8 -10 52.2982 81.0859  18
   8   7 -10 274.777 243.593  18
   8  -7  10 137.973 101.242   1
  -7  -8  10-182.051 241.254  17
  -8  -7  10 167.702 330.178  17
   8  -7  10 114.921 164.573   8
  -8   7 -10-74.9878 98.5845   4
  -7   8 -10 117.800 143.361   4
  -7   8 -10 56.5976 120.614   3
  -8   7 -10 169.412 250.495   3
   8  -7  10 156.346 224.085  14
   7  -8  10 106.049 297.759  14
   7   8 -11-54.6544 131.589  13
   8   7 -11-35.1563 90.4889  13
   8  -7  11-31.0976 93.8515   6
   7  -8  11-9.69770 101.685   6
  -8   7 -11-92.8657 114.483  12
  -7   8 -11 5.70565 32.2809  12
  -8   7 -11-28.6956 67.8795   5
  -7  -8  11-32.2577 19.2652  19
  -8  -7  11 101.334 175.480  19
  -7   8 -11 25.6754 113.773   5
  -8   7 -11-46.9392 147.272  19
   8   7 -11 64.9038 173.904   1
   7   8 -11-61.0671 130.927  18
   8   7 -11-181.928 115.321  18
  -7  -8  11-124.429 117.603  17
  -8  -7  11 45.0347 200.884  17
  -8   7 -11 0.14491 64.4725   4
   8  -7  11 25.3779 135.754   8
  -7   8 -11-41.9388 57.3693   4
   7  -8  11 113.045 151.856   1
  -7   8 -11 91.0947 89.3616   3
   8  -7  11 37.1300 73.0258   1
  -8   7 -11 18.8301 79.2069   3
   8  -7  11 32.4222 96.7269  14
   7  -8  11 118.190 249.330  14
   8  -7  12 60.9138 202.720   6
   7   8 -12 134.627 164.473  13
   8   7 -12 144.652 108.626  13
   7  -8  12 9.21286 90.7389   6
  -8   7 -12 102.234 149.185  12
  -7   8 -12 133.024 112.928  12
  -8   7 -12 226.169 167.114   5
  -8  -7  12-149.157 325.082   2
  -7   8 -12 158.218 120.749   5
  -8   7 -12 189.494 149.303  19
   8   7 -12 80.9639 216.583   1
   7   8 -12 159.560 207.582  18
   8   7 -12-71.5625 129.830  18
  -7  -8  12 40.6431 194.879  17
  -8  -7  12 136.948 204.216  17
  -8   7 -12 133.596 130.980   4
   8  -7  12 145.539 225.811   8
  -7   8 -12 282.404 211.253   4
   7  -8  12-420.430 650.422   8
  -7   8 -12 134.306 172.690   3
  -8   7 -12 180.623 252.007   3
   8  -7  12 1.93647 85.5201  14
   7  -8  12 33.7406 113.058  14
   8   8  -6 1114.75 379.497  18
  -8  -8   6 222.011 319.282  17
   8   8  -7-107.637 133.621  18
  -8  -8   7-21.4106 66.4195  17
   8  -8   8 664.450 483.088   6
  -8   8  -8 1515.80 508.201  12
   8   8  -8 1060.05 445.758  18
   8   8  -8 504.054 203.730   8
  -8  -8   8-96.4324 176.741  17
   8   8  -9-181.355 306.155  13
   8  -8   9 139.908 211.482   6
  -8   8  -9-39.2015 102.924  12
  -8   8  -9 173.387 214.958   5
   8   8  -9-14.6807 89.9202  18
  -8  -8   9 45.2125 88.1085  17
  -8   8  -9-17.7274 146.732   4
   8   8 -10 531.815 246.638  13
   8  -8  10 231.766 203.333   6
  -8   8 -10 667.184 294.099  12
  -8  -8  10 87.6531 177.030  19
  -8   8 -10 1168.31 446.428   5
   8   8 -10 430.551 247.809  18
  -8  -8  10 47.3769 140.247  17
   8  -8  10-359.570 771.758   8
   8  -8  10 377.420 226.412   1
  -8   8 -10 894.378 434.384   4
  -8   8 -10 274.613 59.8646   3
   8  -8  10 468.474 324.403  14
   9   0   0-109.595 81.6074  13
  -9   0   0 51.9212 161.817  12
   9   0   0-115.356 164.770  11
  -9   0   0-53.2412 78.2467   5
   9   0   0-7.29866 67.8018   1
  -9   0   0 14.8008 78.7575  19
  -9   0   0-34.4426 49.5267   2
   9   0   0-24.8048 91.8995  18
  -9   0   0-10.3603 71.7763   4
   9   0   0-47.9632 53.3587   8
  -9   0   0-10.6840 122.169  17
  -9   0   0 41.4640 176.728   7
  -9   0   0 34.0248 109.697  15
   9   0   0-84.4274 73.2255  14
   9   0   0-39.4626 92.0264   6
   9   0  -1 360.553 99.0403  13
  -9   0  -1 180.458 177.009  12
  -9   0   1 160.176 122.290  12
   9   0   1 357.392 191.989   1
   9   0   1 458.576 212.890  11
   9   0  -1 577.341 302.616  11
  -9   0  -1 261.991 183.471   5
  -9   0   1 213.943 167.411   5
  -9   0  -1 158.001 112.572   2
  -9   0  -1 200.751 191.015  19
  -9   0   1 238.893 198.214  19
   9   0  -1 340.718 186.764   1
   9   0   1 523.518 229.693  18
   9   0  -1 500.440 244.639  18
  -9   0   1 224.845 121.327   2
  -9   0  -1 140.372 116.849   4
   9   0   1 366.702 205.136   8
  -9   0   1 242.032 163.831   4
   9   0  -1 364.575 198.068   8
  -9   0  -1 167.601 135.110  17
  -9   0   1 194.693 188.913  17
  -9   0  -1 512.678 300.985   7
  -9   0  -1 399.168 257.470  15
   9   0   1 312.254 159.033  14
  -9   0  -1-62.9821 87.0950   3
   9   0  -1 430.863 197.040  14
   9   0   1 464.353 187.288   6
   9   0  -1 416.992 151.996   6
   9   0  -2 27.4342 27.8934   6
  -9   0  -2-38.2597 77.2431   3
   9   0   2-8.45300 67.0460   1
  -9   0  -2 7.47595 88.7441  12
  -9   0   2-100.220 141.995  12
   9   0   2-11.3216 6.20309  11
  -9   0  -2-74.6632 124.594   5
   9   0  -2-73.6992 145.612  11
  -9   0   2-40.2788 49.2985   5
  -9   0  -2-101.872 142.514  19
  -9   0   2 41.7343 95.5053  19
   9   0   2-46.1333 9.66978  18
   9   0  -2-39.3756 108.877  18
   9   0  -2 24.5031 115.459   1
  -9   0  -2 14.2833 66.7230   4
  -9   0   2-40.4460 45.4822   2
   9   0   2 55.1663 117.063   8
  -9   0  -2-86.5753 157.677  17
   9   0  -2-15.4477 59.4698   8
  -9   0   2 21.6872 32.5625   4
  -9   0   2-87.5291 161.671  17
  -9   0  -2-124.550 205.099   7
  -9   0  -2-62.3606 114.010  15
   9   0   2-84.6491 107.314  14
   9   0  -2 78.8681 98.2185  14
   9   0   2 19.6533 60.6483   6
   9   0  -3 174.684 96.3832   6
  -9   0  -3 9.09911 24.1526   3
  -9   0  -3 233.598 214.662  12
  -9   0  -3 65.4548 80.5426   5
   9   0   3 240.934 130.065  11
   9   0  -3 223.680 171.511  11
  -9   0   3 106.140 121.606   5
  -9   0  -3 93.5703 110.888  19
  -9   0   3 73.7964 80.5419  19
   9   0   3 172.707 109.074  18
   9   0  -3 203.906 158.284  18
  -9   0  -3-12.4585 19.7204   4
   9   0   3 90.9306 108.611   8
  -9   0  -3 143.597 126.435  17
  -9   0   3 128.625 82.1276   2
  -9   0   3 54.9088 51.6662  17
   9   0  -3 122.130 82.1874   8
  -9   0   3 49.9224 64.2344   4
   9   0  -3 192.966 163.143   1
   9   0   3-54.9258 200.689  16
  -9   0  -3 22.1873 121.802   7
  -9   0  -3 133.759 50.2832  15
   9   0   3 95.0532 75.5972  14
   9   0  -3 158.605 147.888  14
   9   0   3 189.917 126.801   6
   9   0   3 101.679 69.7405   1
   9   0  -4 32.6584 32.2533   6
  -9   0  -4-60.4148 104.726   5
   9   0   4 65.7042 90.2597  11
   9   0  -4 46.7948 181.214  11
  -9   0   4 29.9861 91.2315   5
  -9   0  -4 52.1668 93.0285  19
  -9   0   4 25.8214 61.2604  19
   9   0   4-8.25754 37.6703  18
   9   0  -4-92.6019 154.775  18
  -9   0  -4-33.0453 45.4272   4
   9   0   4-0.03014 108.672   8
  -9   0  -4 5.42081 90.9052  17
  -9   0   4-270.152 206.739  17
   9   0  -4 5.14520 46.9663   8
  -9   0   4-34.4831 42.5852   4
  -9   0   4-10.4691 42.4099   2
   9   0   4 36.2161 64.1716  16
  -9   0  -4-123.581 325.306   7
   9   0  -4-35.8252 9.83476   1
  -9   0  -4-217.144 306.982  15
   9   0   4-45.4134 91.9219   1
   9   0   4-9.05887 82.3114  14
   9   0   4 34.5174 99.1933   6
   9   0  -4-12.5703 33.3170  14
   9   0  -5 179.552 74.6012   6
   9   0   5 419.853 140.716  11
   9   0  -5-45.5665 160.213  11
  -9   0   5 276.773 198.463   5
  -9   0  -5 208.896 195.221  19
  -9   0   5 155.127 112.480  19
   9   0   5 250.265 118.229  18
  -9   0  -5 71.4711 91.8391   4
   9   0  -5 107.202 70.5485  18
   9   0   5 322.347 207.167   8
  -9   0  -5 172.614 119.946  17
  -9   0   5 227.257 201.764  17
   9   0  -5 156.227 120.272   8
  -9   0   5 148.310 119.059   4
  -9   0   5 242.022 127.948   2
   9   0   5 276.140 138.115  16
   9   0   5 297.767 211.809   1
  -9   0   5 190.822 78.7603  16
  -9   0  -5-196.420 377.090  15
   9   0   5 321.940 212.155  14
   9   0  -5 219.005 178.822   1
   9   0   5 242.327 157.420   6
   9   0  -5 119.016 115.522  14
   9   0  -6 15.2919 57.3005   1
   9   0  -6-8.48152 23.5432   6
   9   0  -6 20.6195 114.968  11
  -9   0   6-59.0226 95.2505   5
  -9   0  -6-7.38302 95.2793  19
  -9   0   6-25.9737 81.0039  19
   9   0   6-25.4725 55.9879  18
  -9   0  -6-155.146 205.955   4
   9   0  -6-74.5674 140.010  18
   9   0   6 48.4911 120.411   8
  -9   0  -6-88.5641 84.1839  17
   9   0   6-18.5153 44.8042   1
  -9   0   6 122.222 162.635  17
   9   0  -6-9.00840 21.8644   8
  -9   0   6 11.7121 43.9643   4
   9   0   6-14.5451 47.8544  16
  -9   0   6 115.588 114.985   2
  -9   0   6 68.5463 62.0178  16
   9   0   6 8.10515 39.1380  14
   9   0   6-82.3919 102.909   6
   9   0  -6-87.6704 98.4289  14
   9   0  -7 76.5427 50.8295   6
   9   0  -7 16.8890 34.1295   1
   9   0  -7-60.3796 187.295  11
  -9   0  -7-73.1067 109.281  19
  -9   0   7 69.9266 100.226  19
   9   0   7 61.3227 58.1000  18
   9   0   7 88.0140 68.7836   1
   9   0  -7 73.9995 57.7689  18
   9   0   7 148.341 172.691   8
  -9   0  -7 11.2492 32.6354  17
  -9   0   7 42.1878 38.4165   5
  -9   0   7-63.2542 165.914  17
  -9   0   7 118.483 124.980   4
   9   0   7 55.5506 36.4562  16
  -9   0   7 116.584 89.7240   2
  -9   0   7 97.0240 82.8124  16
   9   0   7 57.5000 106.171  14
   9   0   7 55.9302 53.2556   6
   9   0  -7 84.1374 125.661  14
   9   0  -8-57.8900 23.6232  11
   9   0  -8 4.85862 47.6602   1
  -9   0   8 28.6514 91.5352   5
  -9   0  -8-131.035 183.193  19
   9   0   8 68.5687 28.5197   1
  -9   0   8 70.8806 79.6509  19
   9   0   8 31.5535 53.1690  18
   9   0  -8 34.8373 46.9044  18
   9   0   8 23.2011 142.814   8
  -9   0  -8 57.5774 99.5230  17
  -9   0   8-4.07224 66.1866  17
  -9   0   8 15.0380 37.4920   4
   9   0   8 68.2269 87.5953  16
  -9   0   8 25.9483 57.0121   2
  -9   0   8 114.434 143.053  16
   9   0   8-21.1435 72.3755  14
   9   0   8-49.4561 95.5566   6
   9   0  -8-7.30261 26.5500  14
   9   0  -9-58.0503 129.879  11
  -9   0   9 19.7303 116.887   5
  -9   0  -9 6.99999 129.045  19
   9   0  -9 5.74724 72.5631   1
   9   0   9 39.9916 84.9627  18
   9   0  -9 54.5975 42.6734  18
   9   0   9 119.919 114.540   8
  -9   0  -9-17.3230 31.3923  17
  -9   0   9 135.434 192.029  17
  -9   0   9-46.1351 100.800   4
   9   0   9-19.1141 87.2378  16
  -9   0   9 59.7933 135.402  16
  -9   0   9-39.8194 121.841   2
   9   0   9-8.87953 43.8794  14
   9   0   9 91.8267 133.866   6
   9   0  -9 27.8808 64.6058  14
   9   0 -10 39.0939 149.196  11
  -9   0 -10 19.1539 153.527  19
  -9   0  10-94.3397 47.4818   5
   9   0  10-8.10745 27.2108  18
   9   0 -10 19.8786 68.1032  18
   9   0  10-64.2512 57.0646   8
   9   0 -10 86.7403 150.649   1
  -9   0  10-25.4937 76.9365  17
  -9   0  10 17.6769 36.7101   4
   9   0  10 77.6364 124.093  16
  -9   0  10-24.5526 120.382  16
  -9   0  10 34.0198 56.3823   2
   9   0  10 106.409 184.907  14
   9   0  10 52.9258 123.893   6
  -9   0 -10-5.55381 21.0796  17
   9   0 -10 68.2332 116.093  14
   0   9 -11-127.888 326.798  13
   0  -9  11 41.1216 121.945   6
  -9   0 -11-35.6796 105.395  19
  -9   0  11 559.064 327.930   5
   9   0 -11 48.9784 97.5028  18
   9   0  11 478.033 264.040   8
  -9   0 -11 32.3494 73.4389  17
   9   0 -11-166.843 299.555  11
  -9   0  11 500.368 305.374  17
   9   0 -11 378.454 253.109   1
  -9   0  11 571.093 276.487   4
   9   0  11 864.307 383.107  16
  -9   0  11 497.214 309.486  16
  -9   0  11 535.677 268.451   2
   9   0  11 499.046 293.345  14
   9   0  11 573.280 325.358   6
   9   0 -11 198.036 183.486  14
   0   9 -12-93.8672 190.301  13
   0  -9  12 153.732 213.782   6
  -9   0 -12-32.7400 75.6916  19
  -9   0  12 101.628 185.032   5
   0   9 -12-78.1404 178.471  18
   9   0  12-44.6852 69.4212   8
   0  -9  12 200.621 358.795  17
  -9   0  12 32.7876 93.8783  17
  -9   0  12-119.146 223.111   4
   9   0 -12 319.733 290.596   1
   9   0  12 111.198 205.261  16
  -9   0  12 139.698 260.701  16
  -9   0  12-9.30214 116.233   2
   9   0  12-33.6859 111.637  14
   9   0  12-112.970 128.007   6
   0   9 -12-26.1935 39.7538   3
   9   0 -12 8.63536 57.0284  14
   0   9 -13 1062.95 522.402  13
   0  -9  13 315.956 260.886   6
  -9   0  13 2095.80 650.109   5
  -9   0  13 1781.81 565.519   2
  -9   0 -13 20.2821 135.689  19
   0   9 -13 1385.00 563.662  18
   9   0  13 1451.49 573.534   8
   0  -9  13 378.256 418.745  17
  -9   0  13 1369.54 568.950  17
  -9   0  13 1589.46 458.659   4
   9   0  13 1692.58 496.149  16
   0   9 -13 1423.40 439.797   3
  -9   0  13 1740.43 637.577  16
   9   0 -13 573.132 313.167   1
   9   0  13 1524.90 513.450  14
   9   0  13 1347.69 465.281   6
   9   0 -13 431.456 257.371  14
   0   9 -14 89.7436 274.635  13
   0  -9  14-62.4963 151.655   6
   0   9 -14-217.456 289.206  12
  -9   0 -14-29.2636 145.108  19
  -9   0  14 137.418 280.408   5
   0   9 -14 72.9227 150.478  18
   9   0  14 631.851 399.970   8
   0  -9  14 160.467 59.2688  17
  -9   0  14-238.187 403.454  17
  -9   0  14-237.987 321.676   4
   9   0  14 30.3377 95.7989  16
  -9   0  14 8.03956 65.2695   2
   9   0  14-52.9182 127.998   6
   0   9 -14 50.5931 146.999   3
   9   0 -14 222.616 296.251   1
   9   0 -14 4.45849 110.341  14
   9   0 -15 391.593 401.768   1
   0   9 -15 150.446 174.573  13
   0  -9  15-48.6478 22.1292   6
   0   9 -15 261.973 130.498  12
  -9   0 -15-14.0008 58.8804  19
  -9   0  15 539.241 341.208   5
   0   9 -15 177.966 60.8114  18
   9   0  15 458.174 355.127   8
   0  -9  15-62.0858 113.068  17
  -9   0  15-311.985 574.506  17
   9   0  15 271.789 235.938  16
   9   0  15 290.668 219.828   6
  -9   0  15 353.998 321.048   2
   0   9 -15 264.805 190.796   3
   9   0 -15 174.873 179.469  14
   9   1   0 1121.99 352.767   1
  -9  -1   0 431.293 161.360  12
   9  -1   0 1063.37 305.976   1
  -9   1   0 614.477 266.409  12
  -9   1   0 828.066 185.860   2
   9   1   0 1823.25 402.000  11
  -9  -1   0 554.339 258.661   5
  -9   1   0 823.181 289.262   5
  -9  -1   0 293.174 133.102   2
  -9   1   0 893.311 287.899  19
  -9  -1   0 496.943 240.933  19
   9   1   0 444.028 249.248   9
  -9   1   0 925.331 304.158   4
   9   1   0 1267.66 342.754  18
   9   1   0 1237.22 352.375   8
   9  -1   0 879.381 275.877   8
   9  -1   0 1287.06 414.859  18
  -9  -1   0 576.461 245.348   4
  -9  -1   0 347.286 159.004  17
  -9   1   0 538.466 294.387  17
   9   1   0 1104.48 395.607   6
   9  -1   0 1068.37 243.410   6
   9   1   0 1210.11 411.940  14
  -9  -1   0-25.1542 41.3455   3
   9  -1   0 923.323 309.176  14
   9  -1   1 10.8717 59.7930   6
   9   1  -1-93.9533 128.873  13
   9  -1  -1 50.0629 44.4834   6
  -9  -1  -1-31.6823 49.0419   3
  -9  -1  -1 232.377 210.499  12
   9   1  -1 136.381 136.669   1
  -9  -1   1 64.6972 76.5138  12
  -9   1  -1 60.2477 71.9281  12
  -9   1   1-17.3565 98.8437  12
   9   1   1 55.6374 92.5906  11
  -9  -1  -1-18.0434 99.2204   5
   9   1  -1 186.674 198.372  11
  -9  -1   1-67.2282 108.773   5
  -9   1  -1-12.8522 26.0629   5
  -9   1  -1 36.7438 28.3982  20
  -9   1   1 72.3242 86.9701   5
  -9  -1  -1-34.2763 88.3842  19
  -9  -1   1 71.8450 174.223  19
  -9   1  -1-14.4301 74.6361  19
  -9   1   1 74.5934 114.879  19
  -9  -1   1-11.1040 72.5291   2
   9   1   1-123.361 92.4502   9
   9   1  -1-530.192 194.088   9
   9   1   1-10.9117 46.1720  18
   9   1  -1 51.7432 45.5076  18
   9  -1   1 117.226 90.0649  18
   9  -1   1 61.8547 82.2902   1
   9  -1  -1 15.4678 43.5356  18
  -9   1  -1 53.3748 44.7854   2
  -9  -1  -1-135.071 178.127   4
  -9  -1   1-16.8287 68.7272   4
   9   1   1 38.0083 97.7485   8
   9   1  -1 57.3488 128.835   8
  -9  -1  -1 28.5081 70.2349  17
  -9  -1   1 63.7965 107.778  17
   9  -1   1 92.1699 90.8685   8
  -9   1  -1-26.4094 78.8583   4
   9  -1  -1 19.9834 9.93208   8
  -9   1  -1-27.7434 118.098  17
  -9   1   1 89.1222 124.685  17
  -9   1   1-15.0486 84.7299   4
  -9   1   1 52.6287 30.5281   2
  -9  -1   1-354.494 339.587   7
  -9  -1   1-98.5054 229.571  15
   9  -1  -1 28.3184 27.7519   1
   9   1   1-95.0664 131.890  14
   9   1   1-91.7977 170.859   6
   9   1  -1-17.2985 72.3218  14
   9   1  -1 25.1117 122.403   6
   9  -1   1-25.1688 105.563  14
   9   1   1 112.011 123.249   1
   9  -1  -1 87.8097 88.1607  14
   9  -1   2 360.571 148.242   6
   9   1  -2 390.816 122.329  13
   9  -1  -2 388.842 135.550   6
  -9   1  -2 189.243 134.964  12
  -9  -1   2 270.965 148.742  12
  -9  -1  -2 155.703 156.828   5
   9   1  -2 572.345 259.399  11
   9   1  -2 331.438 188.812   1
  -9  -1   2 295.619 216.513   5
  -9   1  -2 295.588 194.381   5
  -9   1  -2 239.219 114.446  20
  -9   1   2 348.427 194.473   5
  -9  -1  -2 129.996 192.508  19
   9  -1   2 333.282 166.019   1
  -9  -1   2 104.757 117.374  19
  -9   1  -2 259.225 158.648  19
  -9   1   2 267.338 157.379  19
  -9   1  -2 230.164 111.122   2
   9   1  -2-738.321 398.442   9
  -9  -1   2 179.658 136.991   2
   9   1   2 416.009 163.363  18
   9   1  -2 423.597 220.673  18
   9  -1   2 450.806 213.374  18
  -9  -1  -2 169.332 179.252   4
   9  -1  -2 338.211 197.620  18
   9   1   2 473.616 258.660   8
  -9  -1   2 234.705 187.502   4
  -9  -1  -2 111.703 59.2626  17
   9   1  -2 394.474 181.592   8
   9  -1   2 381.355 192.004   8
  -9  -1   2 280.088 211.986  17
  -9   1  -2 300.472 182.269   4
  -9   1  -2 100.846 60.0014  17
   9  -1  -2 321.053 153.798   8
  -9   1   2 282.281 237.487  17
  -9   1   2 420.053 202.930   4
  -9  -1   2 110.012 51.1294   7
  -9   1   2 289.405 128.648   2
  -9  -1   2 192.591 74.8789  15
   9   1   2 433.696 241.542   1
   9   1   2 450.692 266.799   6
   9   1   2 468.539 260.988  14
   9   1  -2 512.964 262.930  14
  -9   1  -2 48.6864 73.3595   3
   9  -1   2 425.761 230.702  14
   9   1  -2 467.349 189.560   6
   9  -1  -2 354.979 209.493  14
   9  -1  -2 337.645 183.008   1
   9   1  -3 85.6145 65.2090  13
   9  -1  -3 51.1233 53.2570   6
  -9   1  -3 11.5535 42.5967  12
   9  -1  -3 70.8931 118.143   1
  -9  -1   3-135.622 208.375  12
   9  -1   3 124.174 118.056   1
   9   1  -3 276.131 180.581  11
  -9   1  -3 34.8610 24.5947   5
  -9  -1   3 92.8117 86.5013   5
  -9   1  -3-140.144 197.392   2
  -9   1  -3 26.6511 29.7887  20
   9   1  -3 43.1882 122.501   1
  -9   1   3-33.9646 109.415   5
  -9  -1  -3 31.9608 136.719  19
  -9   1  -3 21.0105 35.1268  19
  -9  -1   3 65.9028 105.067  19
  -9   1   3 106.692 103.409  19
   9   1   3 141.735 136.053  18
   9   1  -3 146.646 141.229  18
  -9  -1  -3-6.40744 148.118   4
   9  -1   3 130.519 146.112  18
  -9  -1   3 37.4443 47.5628   2
   9  -1  -3 158.418 147.193  18
   9   1   3 112.131 116.974   8
  -9  -1  -3 31.5506 82.1401  17
  -9  -1   3 91.8711 132.190   4
  -9   1  -3-47.9299 95.0888   4
   9  -1   3 96.7793 72.2156   8
   9   1  -3 156.346 141.109   8
  -9  -1   3-31.6455 70.2839  17
  -9   1  -3-21.2941 122.323  17
  -9   1   3 88.5293 221.276  17
   9  -1  -3 55.8303 67.5602   8
  -9   1   3 134.156 147.841   4
  -9  -1   3 17.5717 73.2377   7
   9   1   3 100.836 73.9187  16
   9   1   3-53.6134 125.968   1
  -9   1   3 98.2300 85.3245   2
  -9  -1   3 146.372 133.898  15
   9   1   3 47.3225 124.454   6
   9   1   3 132.851 154.482  14
   9   1  -3 26.5297 86.8269  14
   9  -1   3 87.4509 95.3570  14
   9   1  -3 163.201 104.658   6
   9  -1  -3 198.959 166.209  14
  -9   1  -3 7.94803 60.4047   3
   9  -1   3 84.9579 108.981   6
  -9   1  -4 67.1376 100.575   3
   9   1  -4 102.683 84.7685  13
   9  -1   4-72.1130 104.520   1
   9  -1  -4 15.4428 76.2017   6
  -9   1  -4 11.7266 16.5495  12
   9   1  -4-138.490 140.735  11
  -9   1  -4 19.2708 37.5827   5
  -9  -1   4 47.3380 71.3526   5
  -9   1  -4-18.6116 125.866  20
  -9   1   4-28.7809 78.6812   5
   9  -1  -4-71.9871 97.8493   1
  -9  -1  -4 20.1207 67.9252  19
  -9   1  -4-107.207 85.9730  19
  -9  -1   4-11.2721 68.5297  19
  -9   1   4 1.17744 59.7113  19
   9   1  -4 16.8374 69.4097   1
   9   1   4 32.3492 49.9485  18
  -9  -1  -4-107.844 284.933   4
   9   1  -4-9.61898 48.3640  18
   9  -1   4-30.0946 65.4532  18
   9  -1  -4-32.0835 93.4984  18
   9   1   4-9.43620 35.1849   8
  -9  -1   4-8.80458 16.7183   2
  -9   1  -4 53.9436 112.755   4
  -9  -1  -4 20.2117 59.8272  17
   9  -1   4-6.92349 14.0739   8
  -9  -1   4 46.7884 13.7107   4
  -9  -1   4 67.5243 116.379  17
   9   1  -4 52.9500 71.3584   8
  -9   1  -4-113.237 135.602  17
   9   1   4-55.0487 139.320   1
  -9   1   4-56.2382 221.828  17
   9  -1  -4-11.1873 37.3324   8
  -9   1   4 67.6292 103.117   4
  -9  -1   4 98.3007 139.786   7
   9   1   4-24.2029 54.4968  16
  -9   1  -4 184.850 212.262   7
  -9   1   4-4.32472 69.5168   2
  -9  -1   4 73.3561 133.125  15
  -9   1  -4 143.489 210.443  15
   9   1   4-8.28457 97.2161   6
   9   1   4-3.97703 91.5702  14
   9   1  -4 6.44602 10.4541  14
   9  -1   4-74.0028 81.8575  14
   9  -1  -4 19.3620 110.905  14
   9   1  -4 1.88345 4.83866   6
   9  -1   4 19.9451 34.2530   6
  -9   1  -5-3.67993 58.1281   3
  -9   1  -5 104.569 167.762  12
   9  -1  -5-22.2771 71.4117   6
  -9   1  -5 70.3550 109.856   5
   9   1  -5 98.1465 51.7817  11
  -9  -1   5 79.9528 87.0308   5
  -9   1   5 94.7926 105.374   5
  -9   1  -5-315.890 276.649  20
  -9  -1  -5-53.0259 48.5822  19
  -9   1  -5 78.5063 117.942  19
  -9  -1   5 99.6931 120.369  19
  -9   1   5 120.238 115.182  19
   9   1   5 43.9503 22.6854  18
   9   1  -5-48.4112 98.5103  18
   9  -1   5 59.4757 85.9836  18
   9   1  -5 114.705 129.187   1
   9  -1  -5-44.3760 43.5760   1
   9  -1  -5-95.5307 256.977  18
   9   1   5 103.529 158.119   1
   9   1   5 19.7905 92.4220   8
  -9   1  -5-25.6600 45.6265   4
  -9  -1  -5 3.24566 22.0875  17
   9  -1   5 123.924 143.187   8
  -9  -1   5 21.0582 65.4670   2
  -9  -1   5 47.8427 44.7429   4
  -9  -1   5 38.7899 84.6144  17
  -9   1  -5-12.3485 78.0501  17
   9   1  -5 18.0099 20.1637   8
  -9   1   5 180.326 181.578  17
  -9  -1   5-88.0152 82.7789  16
   9  -1  -5-66.5589 205.577   8
   9  -1   5-0.03169 96.4105  16
  -9   1   5 27.8157 32.5957   4
  -9   1  -5 76.4462 137.086   7
   9   1   5 101.999 113.165  16
  -9   1  -5-64.8154 133.352  15
  -9   1   5 61.1752 81.9647   2
   9   1   5 43.3531 86.5395   6
   9   1   5-34.4754 132.055  14
   9  -1   5 23.5838 84.0690  14
   9   1  -5 41.5733 17.5311  14
   9  -1  -5 48.5645 101.147  14
   9  -1   5 49.4408 85.9067   6
   9   1  -5 31.9018 49.1276   6
   9  -1   5-7.52445 38.4109   1
   9   1  -6 92.5119 65.9415   6
  -9   1  -6 185.972 214.076  12
  -9   1  -6 143.630 168.986   3
   9  -1  -6-324.447 315.188   6
  -9   1  -6 82.0538 63.0050   5
   9   1  -6 161.366 198.711  11
  -9  -1   6-21.4311 27.2293   5
  -9  -1  -6-71.3733 26.5966  19
  -9   1   6 74.6419 89.3561   5
  -9   1  -6 5.57862 80.7225  19
  -9  -1   6 181.965 139.291  19
  -9   1   6 54.7004 61.1589  19
   9   1   6 157.958 163.610   1
   9   1   6 63.7417 77.5421  18
   9  -1   6 120.057 74.5448  18
   9   1  -6 148.518 124.064  18
  -9   1  -6 71.3656 134.565   4
   9   1   6 176.545 204.757   8
  -9  -1  -6 51.5384 137.075  17
   9  -1   6 46.1177 70.0608   8
   9   1  -6 90.5370 115.952   1
  -9  -1   6 87.8112 88.8043   2
  -9   1  -6 10.5795 64.5219  17
  -9  -1   6 150.452 207.495  17
  -9  -1   6 201.056 169.221   4
   9   1  -6 62.9940 34.9057   8
  -9   1   6 32.9384 75.8129  17
   9  -1  -6 14.4280 62.8832   1
   9  -1   6 66.8000 33.5783  16
  -9  -1   6 101.106 59.8843  16
  -9   1   6 65.7396 81.4709   4
  -9   1  -6 126.325 196.902   7
   9   1   6 0.65982 56.1123  16
  -9   1  -6-39.6231 88.5950  15
   9  -1   6 120.210 65.7683   1
  -9   1   6 184.455 168.458   2
   9   1   6 122.156 155.738   6
   9   1   6 44.8738 93.4339  14
   9  -1   6 118.099 108.362  14
   9   1  -6-5.45151 32.4411  14
   9  -1   6 91.5011 98.1797   6
   9  -1  -6 124.875 135.460  14
   9   1  -7 97.1412 55.2634   6
   9   1  -7 26.8349 122.233  11
  -9  -1   7 135.628 152.449   5
   9   1   7 26.8306 170.436   1
  -9  -1  -7 13.9531 105.342  19
  -9   1   7 55.4668 131.272   5
  -9   1  -7 34.3552 61.6195  19
  -9  -1   7 53.7838 16.1584  19
  -9   1   7-10.3576 98.0578  19
   9   1   7 57.7602 42.5594  18
   9  -1   7 155.279 102.623  18
   9   1  -7 125.532 83.2370  18
  -9   1  -7 17.1856 51.2487   4
   9   1   7 164.444 165.889   8
  -9  -1  -7 108.741 132.220  17
   9  -1   7 55.7808 110.203   8
  -9   1  -7 65.6389 73.1459  17
  -9  -1   7 34.9379 92.4791  17
  -9  -1   7 67.3590 81.3786   4
  -9  -1   7 110.403 106.093   2
  -9   1   7 138.271 176.318  17
   9   1  -7 45.3745 66.0569   8
   9   1  -7 137.018 139.484   1
   9  -1   7 163.651 192.073   1
   9  -1   7 300.713 180.284  16
  -9   1  -7 61.8412 79.7486   7
  -9  -1   7 65.0020 50.8593  16
  -9   1   7 135.314 136.021   4
   9   1   7 204.722 149.862  16
  -9   1  -7-70.2603 274.049  15
   9   1   7 61.8299 59.2086   6
   9  -1  -7-47.8811 123.431   1
   9   1   7 126.694 188.265  14
  -9   1   7 128.258 146.771   2
   9  -1   7 221.530 130.197  14
   9   1  -7 226.879 153.584  14
   9  -1   7 125.610 116.844   6
   9  -1  -7 106.874 139.833  14
  -9   1  -8 10.1633 46.1380  13
   9   1  -8 74.4908 46.2010   6
   9  -1  -8 107.263 189.591   1
   9   1  -8-183.450 208.589  11
  -9  -1   8 61.5875 108.614   5
  -9  -1  -8 37.9964 163.930  19
  -9   1  -8-118.999 188.991  19
  -9   1   8 38.9269 49.9777   5
  -9  -1   8 108.773 112.752  19
   9   1   8-72.0218 175.766  18
   9  -1   8 82.3534 67.6637  18
  -9   1  -8 27.6918 38.2320   4
   9   1  -8 35.7077 37.8949  18
   9   1   8-62.1031 130.533   8
  -9  -1  -8-4.49664 26.3215  17
   9  -1   8 120.598 161.168   8
   9  -1   8 166.314 190.921   1
  -9   1  -8 54.2204 73.7178  17
  -9  -1   8-12.7024 120.450  17
  -9  -1   8 2.42344 84.0638   4
  -9   1   8-324.697 288.114  17
  -9  -1   8 59.4044 79.1245   2
  -9   1  -8-212.927 348.381   7
   9  -1   8 159.257 149.881  16
  -9  -1   8-0.74657 38.8997  16
  -9   1   8-40.7134 140.956   4
   9   1   8 15.9887 49.4027  16
   9   1  -8-89.9204 107.152   1
  -9   1  -8-209.184 315.301  15
   9   1   8 6.40607 81.3679   6
   9   1   8 131.134 209.990  14
  -9   1   8 51.3190 99.0849   2
   9  -1   8 63.8490 129.093  14
   9  -1   8 73.8810 43.7706   6
   9   1  -8 40.6240 72.8887  14
   9  -1  -8-74.5222 143.875  14
  -9   1  -9 136.826 122.404  13
   9   1  -9 6.70190 4.97547   6
   9  -1  -9 58.9474 114.900   1
   9   1  -9-0.68305 162.944  11
  -9  -1   9 92.2841 92.5736   5
  -9  -1  -9 78.5098 155.360  19
  -9   1  -9 211.293 227.930  19
  -9   1   9 92.4171 87.0446   5
  -9  -1   9 130.585 99.3436  19
   9  -1   9 86.2411 79.1096   1
  -9   1  -9-224.113 334.190   4
   9  -1   9 69.1913 48.9029  18
   9   1  -9 108.610 135.461  18
   9   1   9 224.217 244.141   8
   9  -1   9 180.128 200.226   8
  -9   1  -9 55.4540 63.0510  17
  -9  -1   9 192.960 185.009  17
  -9   1   9-384.646 443.882  17
  -9  -1   9 150.372 147.681   4
  -9  -1   9 236.686 166.363   2
   9  -1   9 261.206 209.380  16
  -9  -1   9 34.6856 63.5804  16
  -9   1   9-56.9319 176.586   4
   9   1   9 262.063 192.405  16
  -9   1  -9-492.789 502.690  15
   9   1   9 65.6898 108.323   6
   9   1   9 82.5208 135.245  14
   9   1  -9 51.4144 141.000   1
   9  -1   9 195.345 183.242  14
  -9   1   9 233.959 238.855   2
   9  -1   9 15.2696 67.7784   6
   9   1  -9 50.9531 35.7140  14
   9  -1  -9 158.957 151.990  14
   9   1 -10 98.5450 100.243  11
   9  -1  10-181.668 284.962   1
  -9  -1  10 262.838 217.440   5
  -9  -1 -10 82.5619 244.025  19
  -9   1 -10 185.067 248.173  19
   9  -1 -10 83.2081 175.904   1
  -9   1  10 393.449 300.580   5
  -9  -1  10 186.380 66.0707  19
   9  -1  10 251.493 84.1912  18
   9   1 -10 6.38953 157.182  18
   9   1  10 246.689 227.795   8
   9  -1  10 516.103 260.555   8
  -9   1 -10 26.6852 36.4995  17
  -9  -1  10 122.401 166.513  17
  -9   1  10-305.186 523.023  17
  -9  -1  10 249.929 189.448   4
  -9  -1  10 240.235 173.530   2
   9  -1  10 371.280 223.818  16
  -9  -1  10 285.607 169.077  16
   9   1  10 331.193 243.599  16
   9   1  10 210.932 202.978   6
   9   1  10 229.823 190.488  14
   9  -1  10 289.754 219.045  14
  -9   1  10 543.031 335.383   2
   9  -1  10 421.366 213.568   6
   9   1 -10 269.242 175.426  14
   9   1 -10 118.720 152.807   1
   9  -1 -10 218.127 201.363  14
   1   9 -11-83.3665 286.268  13
   9   1 -11 275.317 221.282   1
   1  -9  11 287.487 243.999   6
  -1  -9  11 106.397 176.194   6
   9   1 -11 80.3637 197.530  11
  -9  -1  11 191.986 199.321   5
  -9   1  11 532.346 384.095   5
   1   9 -11-90.5522 283.349  18
   9  -1 -11 240.787 306.824   1
   9   1 -11 202.450 210.998  18
   9   1  11 96.7585 105.460   8
  -9   1 -11-57.1328 180.198  19
  -1  -9  11 108.581 186.897  17
   9  -1  11 132.184 35.4849   8
  -9  -1 -11 281.268 336.234  19
  -9  -1  11 274.504 283.837  17
  -9  -1  11 143.479 114.188   4
  -9  -1  11 165.615 170.181   2
   9  -1  11 304.256 192.176  16
  -9  -1  11 209.198 156.604  16
   9   1  11 223.345 195.674  16
   9   1  11 84.7628 105.842   6
  -1   9 -11 30.9024 168.668   3
   9  -1  11 233.659 222.161  14
   9  -1  11 102.153 96.8760   6
  -9   1  11 216.854 259.703   2
   9   1 -11 208.334 200.746  14
   9  -1 -11 62.2802 137.537  14
  -1   9 -12 580.971 274.280  13
   1   9 -12 1029.12 434.581  13
   1  -9  12 7.02266 106.936   6
  -1  -9  12 121.341 187.738   6
   9   1 -12 448.797 300.604   1
   9   1 -12 486.213 324.530  11
  -9  -1  12 1014.36 390.657   5
  -9   1 -12 12.6044 113.607  19
  -1   9 -12 1018.80 415.696  18
  -9  -1  12 1327.42 387.029   4
   1   9 -12 1011.43 411.179  18
   9   1  12 1055.97 441.599   8
   9   1 -12 575.007 308.717  18
   1  -9  12 213.452 332.115  17
  -1  -9  12 86.8795 238.042  17
   9  -1  12 1291.29 437.779   8
  -9  -1  12 949.715 463.093  17
   9  -1  12 1352.51 469.165  16
  -9  -1  12 929.013 370.497   2
  -9  -1  12 778.821 279.498  16
  -1   9 -12 998.894 369.131   3
   9   1  12 1054.23 435.325  16
   9   1  12 614.206 353.294   6
   1   9 -12 763.171 302.863   3
   9  -1  12 1197.05 467.525  14
   9  -1  12 1150.82 416.181   6
   9   1 -12 490.552 253.216  14
  -1   9 -13 265.994 280.449  13
   1   9 -13 164.913 142.338  13
   1  -9  13 31.0828 63.8020   6
  -1  -9  13-76.0678 52.1468   6
  -1   9 -13-69.3431 216.766  12
   9   1 -13 222.757 231.131   1
   9   1 -13-40.8564 165.925  11
  -9  -1  13 42.1577 65.2921   5
  -9   1 -13 402.832 308.589  19
  -1   9 -13 172.681 205.964  18
   1   9 -13 65.3066 149.513  18
   9   1  13 51.7710 150.851   8
   9   1 -13 158.646 220.395  18
   9  -1  13-31.5700 120.130   8
   1  -9  13-53.0124 281.888  17
  -1  -9  13 39.1359 195.564  17
  -9  -1  13 65.1610 128.905  17
  -9  -1  13 200.203 178.741   4
   9  -1  13 116.006 101.695  16
  -9  -1  13 154.199 217.159   2
  -9  -1  13 11.3748 131.323  16
   9   1  13-21.4008 125.624  16
   9   1  13-353.294 254.765   6
   9  -1  13 107.154 159.017  14
   9  -1  13 155.490 102.783   6
   1   9 -13 142.786 139.970   3
  -1   9 -13 147.614 159.604   3
   9   1 -13 49.9955 60.6488  14
  -1   9 -14 1046.26 499.641  13
   1   9 -14 1176.95 508.932  13
  -1  -9  14 200.647 170.076   6
   1  -9  14 237.696 212.300   6
  -1   9 -14 1229.77 379.931  12
   9   1 -14 706.910 379.522   1
   9   1 -14 149.809 135.782  11
  -9  -1  14 1395.30 504.791   5
  -9   1 -14-156.337 234.227  19
  -9  -1  14 1369.36 410.764   4
  -1   9 -14 1349.72 452.827  18
   1   9 -14 955.457 453.332  18
   9   1  14 766.374 394.660   8
   9   1 -14 426.126 310.889  18
   9  -1  14 1427.45 531.538   8
   1  -9  14 81.2575 237.960  17
  -1  -9  14 291.702 260.488  17
  -9  -1  14 1278.27 549.192  17
   9  -1  14 1401.86 489.028  16
  -9  -1  14 1501.67 523.042   2
  -9  -1  14 1229.26 450.339  16
   9   1  14 1109.18 451.457  16
   1   9 -14 1021.42 368.119   3
  -1   9 -14 1272.78 431.400   3
   9   1  14 133.433 139.418   6
   9  -1  14 1076.66 482.692  14
   9  -1  14 1511.82 522.241   6
   9   1 -14 421.396 231.310  14
  -1   9 -15 190.945 257.239  13
  -1  -9  15-54.8920 73.4697   6
   1   9 -15 135.188 194.568  13
   1  -9  15 269.045 269.098   6
  -1   9 -15 165.165 185.728  12
   1   9 -15-261.149 337.555  12
   9   1 -15-108.538 203.096  11
   9   1 -15 387.198 305.250   1
  -9  -1  15 173.204 183.195   5
  -9   1 -15-13.0476 142.578  19
  -1   9 -15 73.0719 216.914  18
   1   9 -15 20.8357 135.140  18
   9   1  15-107.234 248.497   8
   9   1 -15-18.7997 129.686  18
   9  -1  15 200.627 249.493   8
   1  -9  15 60.6012 201.743  17
  -1  -9  15-34.9396 71.3036  17
  -9  -1  15 17.2020 146.710   4
   9  -1  15 19.4824 53.7803  16
  -9  -1  15 94.9990 204.063   2
  -9  -1  15 177.976 203.542  16
   9  -1  15 111.928 139.360  14
   9  -1  15 77.0596 165.107   6
   1   9 -15 6.40427 72.4539   3
  -1   9 -15 20.5166 20.5321   3
   9   1 -15 121.576 121.161  14
   9  -2   0 355.861 151.843   6
   9  -2   0 258.543 158.247   1
  -9   2   0 287.670 25.9105  12
  -9   2   0 249.273 132.093   5
  -9  -2   0 370.310 269.454  19
  -9   2   0 288.927 125.298  19
   9   2   0 588.045 251.947  18
   9   2   0 443.641 232.797   8
  -9  -2   0 286.003 249.785  17
   9  -2   0 325.739 175.013   8
  -9   2   0 408.050 200.297   4
  -9   2   0 275.149 107.700   2
   9   2   0 355.782 239.822   1
   9   2   0 54.0313 104.908   6
   9   2   0 297.060 215.100  14
   9  -2   0 300.054 179.263  14
   9   2   1 2544.19 602.988   1
   9   2  -1 2411.54 549.466   1
  -9  -2   1 984.924 231.536  12
  -9   2  -1 1811.41 480.866  12
  -9   2  -1 1889.71 419.427   5
  -9   2   1 2439.82 502.843   5
   9  -2   1 2036.99 427.856   1
   9  -2  -1 1844.28 444.239   1
  -9  -2   1 895.664 344.348   5
  -9   2  -1 1959.15 258.123   2
  -9   2   1 2216.01 367.837   2
  -9  -2   1 343.611 83.0728   2
  -9   2  -1 1940.70 430.073  19
  -9   2   1 2111.20 432.880  19
  -9  -2  -1 217.109 133.875  19
  -9  -2   1 769.397 311.971  19
   9   2   1 2569.66 485.743  18
   9   2  -1 2725.12 500.647  18
  -9   2  -1 2059.98 436.267   4
   9   2   1 2488.25 544.465   8
  -9   2   1 2327.26 478.742   4
   9   2  -1 2741.67 526.373   8
   9  -2   1 1982.66 429.120   8
   9  -2  -1 1769.47 430.944   8
  -9  -2   1 671.703 273.182   4
  -9  -2  -1 459.530 222.512  17
  -9  -2   1 903.681 330.123  17
   9  -2   1 2292.75 399.501   6
   9  -2  -1 2242.02 403.559   6
   9   2   1 2264.87 646.391  14
   9   2  -1 2263.64 620.950  14
   9   2   1 420.255 196.128   6
   9   2  -1 179.714 88.5571   6
   9  -2   1 2436.42 500.260  14
   9  -2  -1 2017.83 474.112  14
   9   2  -2-42.3940 101.720  13
   9  -2   2 92.7323 91.5335   6
   9  -2  -2 125.527 120.021   6
  -9  -2   2 15.5413 25.4803  12
  -9   2  -2 103.734 88.5501  12
   9   2  -2 252.470 167.049  11
  -9  -2   2 3.75202 55.4924   5
  -9   2  -2 193.651 164.741   5
   9   2  -2 137.009 91.3611  10
  -9  -2   2-36.2156 72.3215   2
  -9  -2  -2-75.7173 152.717  19
  -9   2   2 194.766 156.871   5
  -9  -2   2 36.8736 32.5791  19
  -9   2  -2 126.258 179.732  19
  -9   2   2 48.1563 40.6396  19
   9   2   2 155.873 103.129  18
   9   2  -2 141.252 89.2805  18
  -9  -2   2 23.8854 98.0804   4
   9   2   2 180.667 136.938   8
  -9  -2  -2-3.45990 66.9053  17
   9   2  -2 180.219 125.589   8
  -9  -2   2-75.4719 115.344  17
  -9   2  -2 78.0115 52.0760   2
   9  -2   2 66.0351 59.8139   8
   9   2   2 188.798 188.201   1
   9  -2  -2 112.956 131.651   1
  -9   2  -2 362.629 204.710   4
   9  -2  -2 83.2733 101.026   8
  -9   2   2 101.310 116.739   4
   9  -2   2 80.4529 42.0740   1
   9   2   2 169.274 126.882  16
   9   2   2 36.4976 102.177   6
   9   2  -2-32.1198 99.1994   6
   9   2   2 157.620 151.231  14
  -9   2   2 117.993 101.048   2
   9   2  -2 84.8922 147.978  14
   9  -2   2 11.7823 46.4298  14
   9  -2  -2 44.8109 58.1130  14
   9   2  -2 172.109 151.028   1
   9  -2   3 382.478 174.284   6
   9   2  -3 348.154 152.413  13
   9   2  -3 277.139 207.348   1
   9  -2  -3 277.888 171.737   6
  -9  -2   3 153.217 85.2312  12
  -9   2  -3 252.341 176.258  12
   9   2  -3 466.779 231.299  11
  -9  -2   3 112.331 128.967   5
  -9   2  -3 154.367 101.556   5
  -9   2  -3 330.383 117.543  10
   9   2  -3 367.194 163.624  10
  -9  -2  -3-77.8452 93.6306  19
  -9   2   3 301.835 186.172   5
  -9  -2   3 203.862 158.817  19
   9   2  -3 1182.78 381.908   9
  -9   2  -3 218.524 142.306  19
  -9  -2   3 246.021 148.752   2
  -9   2   3 248.883 152.493  19
   9   2   3 324.989 176.735  18
   9   2  -3 412.761 194.017  18
  -9   2  -3 228.745 82.6083   2
  -9  -2   3 140.630 116.040   4
   9   2   3 289.484 215.522   8
   9   2   3 357.420 213.767   1
   9  -2   3 368.385 175.027   1
  -9  -2  -3 134.733 138.566  17
   9   2  -3 296.068 162.025   8
  -9  -2   3 175.451 177.127  17
   9  -2   3 249.094 143.161   8
  -9   2  -3 291.995 179.969   4
   9  -2  -3 114.479 124.706   8
  -9   2   3 202.347 139.793   4
   9   2   3 199.870 132.464  16
   9   2   3 36.2744 165.093   6
   9   2  -3 44.4523 50.1129   6
   9   2   3 272.497 242.551  14
   9  -2  -3 163.234 139.523   1
   9   2  -3 343.472 231.596  14
  -9   2  -3 45.9515 82.4783   3
  -9   2   3 437.806 239.156   2
   9  -2   3 245.018 152.791  14
   9  -2  -3 246.835 189.860  14
   9  -2   4-0.20526 13.3615   6
   9   2  -4-27.0398 51.0367  13
   9   2  -4 6.83191 91.2953   1
   9  -2  -4-137.129 255.226   6
  -9   2  -4 92.6171 115.950  12
   9  -2  -4-1.65104 68.2789   1
   9   2  -4-10.0658 41.5383  11
  -9  -2   4-19.8012 29.8032   5
  -9   2  -4-29.1789 72.9200   5
  -9   2  -4 42.5355 50.4694  20
  -9   2  -4-47.4906 82.7680   2
  -9   2  -4 4.49232 67.6855  10
   9   2  -4 116.985 81.4073  10
  -9  -2  -4-5.34096 58.6202  19
  -9   2   4 118.594 158.377   5
  -9  -2   4-31.8011 88.5315  19
  -9   2  -4-20.6634 97.9958  19
   9   2  -4 99.6305 142.570   9
   9  -2   4-52.8184 96.8141   1
  -9   2   4-20.2281 18.5885  19
   9   2   4-2.61290 69.3831  18
  -9  -2   4 74.5902 86.1688   2
   9   2   4 36.1407 104.702   1
   9   2  -4 119.883 118.156  18
   9   2   4 130.410 138.844   8
  -9  -2   4-28.3052 65.4677   4
  -9  -2  -4 307.421 265.586  17
   9   2  -4-55.1877 36.6309   8
  -9  -2   4-30.8926 125.647  17
   9  -2   4-95.7565 128.358   8
  -9   2  -4 43.9620 85.2836   4
  -9   2   4 8.35936 65.7406   4
   9   2   4 15.7132 88.0742  16
   9   2   4-86.6726 206.031   6
   9   2  -4-16.4164 81.2368   6
   9   2   4 74.0148 139.635  14
   9   2  -4-36.8068 49.4983  14
   9  -2   4-22.6211 86.4645  14
  -9   2   4 95.2113 121.831   2
  -9   2  -4 41.2319 74.5225   3
   9  -2  -4 100.414 118.490  14
  -9   2  -5 61.2353 134.769   3
   9   2  -5-38.7820 59.8142  13
  -9   2  -5-31.5453 47.7191  12
   9   2  -5 36.6084 39.1677   1
   9   2  -5 133.700 167.566  11
   9  -2   5-31.1428 66.3683   1
  -9  -2   5-34.8894 31.5937   5
  -9   2  -5-5.17024 44.4133   5
  -9   2  -5 18.6902 68.5454  20
  -9   2  -5-41.8998 113.867  10
  -9  -2  -5-141.108 133.402  19
   9   2  -5-203.231 220.221  10
   9   2   5-13.4332 139.253   1
  -9   2   5 89.2627 121.489   5
  -9  -2   5 66.7792 91.9040  19
  -9   2  -5-0.92137 89.4403  19
   9  -2  -5 13.1486 19.0823   1
   9   2  -5-267.200 230.710   9
  -9   2   5-21.5199 69.3342  19
   9   2   5 19.4954 53.4977  18
   9   2  -5 93.4244 74.9684  18
  -9  -2   5 4.79762 32.8724   2
   9   2   5 37.3332 171.178   8
  -9  -2  -5 99.9585 172.032  17
  -9  -2   5 84.1713 134.033   4
  -9   2  -5 57.1774 104.396   4
   9  -2   5 33.3248 74.4233   8
  -9  -2   5 28.7187 94.8521  17
   9   2  -5 39.9012 66.8370   8
  -9   2   5-94.5454 134.336   4
   9   2   5 90.3576 138.371  16
   9   2   5-74.1267 160.966   6
   9   2  -5-26.1097 68.9263   6
   9   2   5-2.07056 35.9952  14
   9   2  -5 73.2995 124.929  14
   9  -2   5 54.0583 51.6865  14
  -9   2   5-5.37136 114.959   2
   9  -2  -5 34.1279 19.6539  14
   9  -2   5 0.87258 54.9391   6
  -9   2  -6 151.899 109.534   3
   9   2  -6 455.907 149.633  13
   9  -2   6 504.018 217.548   1
  -9   2  -6 102.501 76.6696  12
   9   2  -6 395.290 235.718  11
  -9   2  -6 306.321 188.370   5
  -9  -2   6 449.709 217.668   5
   9   2  -6 292.774 213.115   1
   9   2   6-96.4016 297.808   1
  -9   2  -6 244.593 112.498  20
  -9  -2  -6-18.2326 27.7485  19
  -9   2  -6 258.985 148.837  10
   9   2  -6-177.776 282.755  10
  -9   2  -6 288.653 176.002  19
  -9   2   6 458.219 267.021   5
   9   2  -6 824.789 373.639   9
   9   2  -6 407.370 199.722  18
   9   2   6 346.302 238.281   8
  -9  -2   6 252.878 156.224   2
  -9  -2  -6-102.987 160.029  17
  -9  -2   6 214.368 191.184   4
  -9   2  -6 225.672 181.355   4
   9  -2   6 439.518 223.225   8
  -9  -2   6 162.311 146.334  17
   9   2  -6 489.994 194.300   8
  -9  -2   6 174.238 142.146  19
   9  -2   6 9.14440 348.029  16
   9  -2  -6 246.117 239.955   1
  -9   2   6 305.981 131.813   4
   9   2   6 248.559 199.249  16
   9   2   6-45.5118 249.944   6
  -9   2  -6 418.488 314.795  15
   9   2   6 361.384 280.739  14
   9   2  -6 351.048 221.849  14
   9  -2   6 376.818 202.270  14
  -9   2   6 745.142 332.402   2
   9  -2  -6 208.238 194.350  14
   9  -2   6 372.202 172.568   6
  -9   2  -7 4.28513 62.3760   3
  -9   2  -7-4.17913 19.6585  12
  -9   2  -7 36.5924 39.3505   5
   9   2  -7-85.9097 105.772  11
  -9  -2   7 18.6725 40.7775   5
  -9   2  -7 89.2553 125.250  20
  -9   2  -7 73.5127 194.890  10
   9   2  -7 50.1902 49.8864   1
  -9   2  -7 75.7313 143.801  19
  -9  -2   7 24.1326 53.0173  19
  -9   2   7 4.05242 118.079   5
   9   2  -7-105.356 247.355   9
   9   2  -7 32.8424 70.3866  18
   9   2   7-89.0224 164.917   8
  -9  -2   7 48.4196 56.7781   2
  -9   2  -7 99.3394 144.979   4
  -9  -2   7 17.2202 100.483   4
   9  -2   7 16.4921 101.098   8
  -9  -2   7-15.4937 76.1390  17
   9   2  -7 0.81413 33.4374   8
  -9  -2   7 11.6076 59.7840  16
   9  -2   7 16.8716 74.0740  16
  -9   2  -7 231.373 275.901   7
   9   2   7 144.616 169.554  16
   9   2   7-310.144 323.763   6
  -9   2  -7 91.4534 178.387  15
   9   2   7-98.7113 186.821  14
   9   2  -7-4.13108 101.831  14
   9  -2   7-37.9506 80.3317  14
   9  -2   7 23.5725 38.8923   1
   9  -2  -7-26.0624 161.789   1
   9  -2   7 0.87306 30.0397   6
   9  -2  -7 76.9063 141.978  14
  -9   2   7 126.034 206.238   2
  -9   2  -8 187.199 196.962   3
  -9   2  -8 358.854 247.547  12
  -9   2  -8 211.854 199.719   5
   9  -2  -8 116.562 238.433   1
   9   2  -8 393.500 270.435  11
  -9  -2   8 95.3997 94.5163   5
  -9   2  -8 0.51717 54.1731  20
  -9   2  -8-399.267 532.450  10
  -9   2  -8 113.980 82.1083  19
  -9  -2   8 194.992 144.929  19
   9   2  -8-16.8066 185.662   9
   9   2  -8 125.403 125.647   1
   9   2  -8 312.907 204.659  18
   9   2   8 137.360 183.936   8
  -9   2  -8 79.9971 76.9525   4
  -9  -2   8 143.222 101.559   2
   9  -2   8 209.593 194.530   8
  -9  -2   8 114.381 136.149   4
  -9  -2   8 65.0890 131.682  17
   9   2  -8 155.681 98.9789   8
   9  -2   8 312.203 226.749  16
  -9  -2   8 191.020 113.035  16
  -9   2  -8 203.327 232.783   7
   9  -2   8 142.578 145.270   1
  -9   2  -8 92.0072 151.011  15
   9   2   8-148.230 348.694   6
   9   2  -8 57.5099 52.5186  14
   9  -2   8 158.544 120.209  14
   9   2  -8 121.637 77.6382   3
   9  -2   8 233.486 154.476   6
   9  -2  -8 132.653 202.839  14
   9   2  -9 115.160 64.4392   3
  -9   2  -9 33.2522 21.0128  13
  -9   2  -9 484.692 299.016  12
  -9   2  -9 182.911 191.647   3
   9   2  -9 289.151 238.482  11
  -9  -2   9 92.8462 115.510   5
  -9   2  -9-2.11541 18.4190  20
  -9   2  -9 80.8173 141.095  19
  -9  -2   9 24.8200 43.5771  19
   9   2  -9 41.8359 203.956   9
   9   2  -9 160.743 143.030   1
   9   2  -9 125.848 181.320  18
   9   2   9 243.511 201.526   8
  -9   2  -9 39.2502 53.4598   4
   9  -2   9 327.978 164.610   8
  -9  -2   9-24.0057 88.5237   2
  -9  -2   9 228.291 185.701   4
  -9  -2   9 38.0485 101.111  17
   9  -2   9 126.051 116.186   1
   9   2  -9-108.093 308.978   8
   9  -2   9 271.882 227.163  16
  -9  -2   9 186.161 126.646  16
  -9   2  -9-40.8552 69.7740   7
  -9   2  -9 109.313 179.704  15
   9  -2   9 207.311 164.776  14
   9   2  -9 31.9039 116.281  14
   9  -2   9 215.959 151.941   6
   2   9 -10-204.969 407.695  13
  -9   2 -10 51.2489 104.918  13
   9   2 -10 298.659 123.206   3
   9   2 -10 295.846 220.253  11
  -9  -2  10 245.296 222.663   5
  -9   2 -10 22.7092 53.6557  20
  -9   2 -10 77.2210 143.837  19
  -9  -2  10 214.700 153.930  19
   9   2 -10 610.961 481.333   9
   9  -2  10 192.035 147.404   1
   9   2  10 362.329 309.525   8
  -9   2 -10 324.416 263.398   4
   9   2 -10 281.572 204.961  18
   9   2 -10 383.293 281.459   1
   9  -2  10 415.178 237.886   8
  -9  -2  10 263.629 167.805   4
  -9  -2  10 281.456 195.835   2
  -9  -2  10 176.717 107.363  17
   9  -2  10 477.706 263.021  16
  -9  -2  10 234.867 123.571  16
  -9   2 -10 57.3420 40.0091   7
  -9   2 -10 41.9226 81.2730  15
   9  -2  10 363.240 219.338  14
   9   2 -10 242.241 222.097  14
   9  -2  10 430.103 240.512   6
   2   9 -11 724.480 274.694  13
  -9   2 -11 63.5828 110.002  13
   2  -9  11 114.111 135.519   6
  -2  -9  11 83.1284 169.713   6
   9   2 -11 686.132 321.614  11
  -9  -2  11 847.033 359.308   5
  -9   2 -11-180.263 252.823  20
   9  -2  11 324.993 149.474   1
  -9   2 -11 245.543 265.605  19
  -9  -2  11 814.153 287.187  19
   9   2 -11-156.656 513.449   9
   2   9 -11 448.884 289.064  18
  -9   2 -11-126.560 263.491   4
   9   2  11 1142.55 572.434   8
   9   2 -11 814.728 365.487  18
  -2  -9  11 179.215 266.691  17
   9  -2  11 1451.08 428.622   8
   9   2 -11 904.705 389.601   1
  -9  -2  11 1037.88 351.128   4
  -9  -2  11 761.217 378.068  17
  -9  -2  11 866.709 332.551   2
  -9   2 -11 133.808 191.836   7
   9  -2  11 1681.76 506.640  16
  -9  -2  11 956.827 285.544  16
  -9   2 -11 147.500 207.611  15
  -2   9 -11 927.955 349.601   3
   9  -2  11 1322.07 396.116  14
   9   2 -11 623.311 335.542  14
   9  -2  11 1252.04 434.631   6
  -2   9 -12-635.408 540.094  13
   2   9 -12 209.194 214.586  13
  -9   2 -12 148.046 155.588  13
   2  -9  12 46.0216 153.143   6
  -2  -9  12 126.666 97.2222   6
   9   2 -12 30.7864 211.063  11
  -9  -2  12 107.430 171.204   5
  -9   2 -12 87.5479 146.015  19
   9   2 -12-275.222 460.638   9
  -2   9 -12-213.450 481.274  18
   2   9 -12 133.096 226.303  18
   9   2 -12 194.235 188.789  18
   2  -9  12-221.973 540.471  17
  -2  -9  12 204.656 293.545  17
   9  -2  12 344.395 243.368   8
  -9  -2  12 14.0097 95.7749  17
  -9  -2  12 218.074 156.832   4
  -9  -2  12 317.719 214.578   2
   9   2 -12 84.5709 79.2031   1
   9  -2  12 426.603 308.524  16
  -9  -2  12 187.277 183.722  16
  -9   2 -12-560.151 561.822  15
   9  -2  12 386.509 249.215  14
  -2   9 -12 91.6254 107.956   3
   9   2 -12 62.3650 83.1264  14
   9  -2  12 223.821 160.168   6
  -2   9 -13 1260.72 605.197  13
   2   9 -13 1489.37 532.974  13
  -2  -9  13 119.418 95.7197   6
   2  -9  13 61.9244 129.632   6
  -2   9 -13 1391.60 402.329  12
  -9  -2  13 1879.59 587.381   5
  -9  -2  13 1565.23 504.153   2
   9   2 -13 939.996 412.326  11
  -9   2 -13 372.826 267.050  19
  -2   9 -13 2464.94 744.824  18
  -9  -2  13 1804.92 468.995   4
   2   9 -13 1343.73 528.428  18
   9   2 -13 906.479 413.249  18
   2  -9  13 32.5338 287.911  17
  -2  -9  13-23.3478 67.4418  17
   9  -2  13 2089.09 572.755   8
  -9  -2  13 1586.20 575.995  17
  -9  -2  13 2064.50 502.039  16
   9  -2  13 1963.57 578.298  16
   9   2 -13 948.173 427.026   1
   9  -2  13 2063.93 556.190   6
   2   9 -13 1616.47 457.792   3
  -2   9 -13 1658.07 501.961   3
   9  -2  13 2049.43 613.572  14
   9   2 -13 687.072 368.815  14
  -2   9 -14 170.811 244.952  13
   2   9 -14 119.991 180.325  13
  -2  -9  14 111.871 195.007   6
   2  -9  14 17.4197 148.218   6
  -2   9 -14 119.500 159.789  12
   9   2 -14-44.6696 277.466  11
  -9  -2  14 278.741 271.161   5
  -9   2 -14-60.4780 89.2772  19
  -2   9 -14 95.1186 149.295  18
   2   9 -14 204.305 241.828  18
   9   2 -14 29.7709 141.991  18
   2  -9  14 109.738 207.199  17
   9  -2  14 135.612 213.017   8
  -2  -9  14 179.760 313.601  17
  -9  -2  14 8.29032 48.5266  17
  -9  -2  14 165.823 159.856   4
  -9  -2  14 77.6974 100.017   2
   9  -2  14 82.0249 137.030  16
  -9  -2  14 60.9321 51.8599  16
   9   2 -14 98.2403 140.471   1
   9  -2  14 63.8092 157.980  14
   2   9 -14 35.8881 87.8606   3
   9  -2  14-4.65517 200.515   6
   9   2 -14-32.0607 118.268  14
  -2   9 -14 195.109 202.173   3
  -2   9 -15 1283.18 609.843  13
  -2  -9  15 293.185 227.052   6
   2   9 -15 1197.84 501.530  13
   2  -9  15 492.276 306.978   6
  -2   9 -15 1267.86 411.375  12
  -9  -2  15 1350.56 504.999   5
  -9   2 -15-71.1011 177.545  19
  -9  -2  15 1589.72 435.081   4
  -2   9 -15 1233.14 414.738  18
   2   9 -15 1313.65 516.375  18
   9   2 -15 588.128 327.276  18
   9  -2  15 1607.87 510.378   8
   2  -9  15 563.376 399.697  17
  -2  -9  15 285.735 370.068  17
  -9  -2  15 1032.40 515.388  17
  -9  -2  15 1418.37 463.758  16
   2   9 -15 1270.24 413.072   3
  -2   9 -15 1337.31 458.781   3
   9  -2  15 1353.58 516.002  14
   9  -2  15 1394.51 482.644   6
   2  -9  15 434.407 255.748  14
   9   3   0 4306.56 816.155   1
  -9   3   0 3989.78 640.481   5
   9  -3   0 3139.58 590.187   1
  -9   3   0 5487.87 741.673   2
  -9   3   0 4092.54 633.750  19
  -9  -3   0 214.969 180.031  19
   9   3   0 4462.87 698.877  18
   9   3   0 4313.52 743.972   8
  -9   3   0 3869.90 643.127   4
   9  -3   0 2614.94 553.929   8
  -9  -3   0 206.004 196.204  17
   9  -3   0 3806.67 619.406   6
   9   3   0 3454.27 838.229  14
   9  -3   0 3258.47 605.107  14
  -9   3   1-193.228 391.466   2
   9  -3   1 101.386 111.342   6
   9  -3  -1 39.8509 51.5042   6
  -9   3  -1-62.4302 238.449  12
   9  -3  -1 77.9771 70.6724   1
  -9  -3  -1-104.693 168.098  19
  -9   3  -1 62.7274 79.7743   5
  -9  -3   1 9.31895 86.4480  19
  -9   3   1 70.6560 59.4682   5
  -9   3  -1-48.3890 89.0208  19
  -9   3   1 49.6355 91.7732  19
   9   3   1 35.0993 36.4821  18
   9   3  -1 93.6930 112.277  18
   9   3   1 12.2524 79.5401   8
   9   3   1 110.599 131.018   1
   9   3  -1 43.4804 44.8678   8
  -9  -3  -1-89.2418 121.866  17
  -9  -3   1-2.84389 38.4801  17
   9  -3   1 34.9506 62.9510   1
   9  -3   1 16.0194 67.0221   8
   9   3  -1 7.20491 47.1688   1
   9  -3  -1 3.09692 14.1472   8
  -9   3  -1 10.8807 67.2999   4
  -9   3   1 34.9344 64.0844   4
   9   3   1-61.4822 154.315  14
   9   3  -1 100.460 15.9100  14
  -9   3  -1 40.8641 31.3357   2
   9  -3   1 78.3344 49.0172  14
   9  -3  -1 71.1742 86.1004  14
   9   3   2 2267.10 617.067   1
   9   3  -2 2524.46 624.109   1
  -9   3  -2 2483.97 577.150  12
   9  -3  -2 1825.07 585.199   6
  -9   3  -2 2206.67 453.597   5
  -9   3   2 2634.11 565.822   5
   9  -3   2 2155.70 439.093   1
   9  -3  -2 1411.43 446.999   1
  -9   3  -2 2435.10 311.356   2
  -9   3  -2 2115.63 450.060  19
  -9   3   2 2528.60 525.046  19
  -9  -3  -2-149.250 233.474  19
  -9  -3   2 265.950 213.745  19
   9   3   2 2042.94 474.099  18
   9   3  -2 3028.35 559.666  18
   9   3   2 2435.40 606.584   8
  -9   3  -2 2421.19 488.207   4
   9   3  -2 3053.69 552.882   8
  -9   3   2 2424.15 517.906   4
   9  -3   2 1838.48 433.638   8
  -9  -3  -2 18.3392 124.314  17
  -9  -3   2 665.630 285.965  17
   9  -3  -2 959.509 363.930   8
   9  -3   2 2382.84 451.277   6
   9   3   2 2236.17 715.425  14
   9   3  -2 2138.38 677.928  14
   9  -3   2 2242.33 480.680  14
   9  -3  -2 1550.86 447.074  14
   9   3  -3-54.8178 135.313  13
   9  -3  -3 26.4515 55.1271   1
   9  -3   3-40.0841 84.1145   1
   9  -3   3-14.6936 40.8898   6
  -9  -3   3 88.8480 88.7702  12
  -9   3  -3 17.1174 66.4959  12
   9   3  -3 38.9212 47.3819  20
  -9  -3   3-180.573 238.340   2
  -9   3  -3 44.4787 54.6784   5
  -9  -3   3 117.375 142.967  19
   9   3   3-19.4288 119.726   1
  -9   3   3 7.88248 51.4203   5
  -9   3  -3-32.4786 125.971  19
  -9   3   3-56.9725 108.340  19
   9   3   3-117.524 204.628  18
   9   3  -3 58.3327 90.1272  18
   9   3   3 31.2322 83.4902   8
  -9  -3  -3 89.8525 119.685  17
   9   3  -3 7.28998 78.7506   8
  -9  -3   3-98.7163 110.200  17
   9  -3   3 5.05394 34.3313   8
  -9   3  -3-50.4872 121.625   4
  -9   3   3-136.303 208.907   4
  -9   3  -3 2.47374 20.4411   2
   9   3  -3-177.453 154.949   1
   9   3   3-72.0022 218.041  14
   9   3  -3-104.743 147.132  14
   9  -3   3 51.1385 100.098  14
   9  -3  -3 87.4154 151.579  14
   9   3  -4 382.218 183.314  13
   9  -3   4 318.568 170.183   6
  -9  -3   4 1.98946 24.1770  12
  -9   3  -4 157.200 126.411  12
  -9  -3   4 158.210 124.206   5
   9   3   4-83.0494 261.101   1
   9   3  -4 184.645 130.109  20
  -9   3  -4 239.998 171.815   5
   9  -3  -4 138.043 174.896   1
  -9  -3   4 71.2097 75.1610   2
  -9  -3   4 36.2163 93.0003  19
  -9   3  -4 242.886 183.102  19
  -9   3   4 119.799 64.3451   5
   9   3  -4 181.591 118.928  18
  -9  -3   4-66.9373 233.913   4
   9   3   4 252.177 170.699   8
  -9  -3  -4 96.1473 193.936  17
   9   3  -4 430.825 201.843   8
  -9  -3   4 56.7815 132.052  17
   9  -3   4 213.075 144.120   8
  -9   3  -4 147.738 49.8246   2
  -9   3  -4 233.544 167.572   4
   9  -3   4 217.495 137.549   1
   9   3  -4 94.0288 185.661  14
   9   3  -4 410.377 231.696   1
  -9   3  -4 87.6425 53.0668   3
   9  -3   4 280.504 147.210  14
   9  -3  -4 216.684 205.724  14
   9  -3   5 32.1817 54.7680   6
   9   3  -5-4.18079 29.9150  13
  -9   3  -5 27.3644 67.3460  12
   9   3  -5 157.540 183.295  11
  -9  -3   5 156.568 153.306   5
  -9   3  -5 2.04500 25.0077   5
   9   3  -5 532.191 266.442  10
   9   3  -5 38.6460 73.1666  20
  -9  -3   5 44.1953 106.943  19
  -9   3  -5-22.3588 55.9208  19
  -9  -3   5 52.9862 84.5048   2
   9   3  -5 2.13323 53.4049  18
  -9  -3   5 11.6707 132.077   4
   9   3   5 27.3546 187.048   8
   9  -3   5 23.6296 69.4932   1
   9   3  -5 73.7322 82.2892   8
  -9  -3   5 125.784 175.358  17
   9  -3   5-2.82579 89.1044   8
  -9   3  -5 8.12557 45.6686   4
   9   3  -5-46.0355 119.454  14
   9  -3   5 13.6330 83.4826  14
  -9   3  -5 45.6341 63.5232   3
   9   3  -5 34.5989 18.3871   1
   9  -3   6 8.98888 59.6867   6
   9   3  -6 316.132 221.643   1
   9   3  -6 10.9717 77.3546  13
  -9   3  -6-28.3500 92.4114  12
   9   3  -6 117.261 157.092  11
  -9  -3   6-12.4268 52.6573   5
  -9   3  -6-39.6722 9.13898   5
   9   3  -6 225.704 193.615  10
   9   3  -6-148.200 232.002  20
  -9  -3   6 17.5251 175.002  19
  -9   3  -6 54.7992 90.0668  19
   9  -3   6 19.3584 65.7322   1
  -9  -3   6-71.0573 99.5306   2
   9   3  -6 17.9635 49.7992  18
   9   3   6 146.536 119.631   8
  -9  -3   6 68.1699 50.5578   4
  -9  -3   6-0.94251 35.2948  17
   9   3  -6 46.8218 65.3036   8
  -9   3  -6 25.2333 36.9312   4
   9  -3   6 38.0882 31.9898   8
   9   3  -6 287.941 302.440  14
   9  -3   6-15.0016 70.6733  14
  -9   3  -6 5.47248 160.627   3
   9  -3   7 130.595 97.2154   6
  -9   3  -7 298.053 208.009   3
   9   3  -7 148.168 103.525  13
   9   3  -7 225.037 223.906   1
  -9   3  -7 51.2058 73.5541  12
   9  -3   7 187.517 124.541   1
   9   3  -7 387.158 245.313  11
  -9  -3   7 64.9913 73.6390   5
  -9   3  -7 105.545 139.456   5
  -9   3  -7 134.701 108.952  20
  -9   3  -7 190.600 130.593  10
   9   3  -7 292.060 234.688  10
  -9  -3   7 400.543 348.003  19
   9   3  -7 1114.86 475.549   9
  -9   3  -7 99.4564 127.411  19
  -9   3  -7 134.429 105.247   9
  -9  -3   7 168.629 132.887   2
   9   3  -7 195.231 154.073  18
   9   3   7 419.159 362.325   8
  -9  -3   7 66.3973 102.394   4
  -9   3  -7 184.542 161.802   4
  -9  -3   7 308.987 447.122  17
   9  -3   7 157.067 134.157   8
   9   3  -7 221.057 139.596   8
   9   3  -7 70.8902 127.666  14
   9  -3   7 106.936 68.5242  14
  -9   3  -8 106.118 165.491   3
   9  -3   8 232.119 146.656   1
   9   3  -8 104.552 95.0283  13
  -9   3  -8-1.89109 61.6384  12
   9   3  -8 213.007 194.444   1
   9   3  -8 138.102 202.175  11
  -9  -3   8 154.367 185.052   5
  -9   3  -8 87.5901 85.5619   5
  -9   3  -8 58.7880 100.228  20
  -9   3  -8 88.2427 96.2134  10
   9   3  -8 266.495 160.267  10
  -9  -3   8 2.86458 46.3275  19
  -9   3  -8 88.4007 108.008  19
   9   3  -8 642.039 382.191   9
  -9   3  -8 115.711 27.9977   9
   9   3  -8 169.224 176.755  18
   9   3   8 234.511 331.603   8
  -9  -3   8 144.336 140.188   2
  -9  -3   8 171.735 194.161   4
  -9   3  -8 130.112 151.729   4
   9  -3   8 162.059 164.700   8
  -9  -3   8 7.24074 60.7482  17
   9   3  -8 166.629 111.248   8
   9  -3   8-150.609 400.197  16
   9   3  -8 68.3943 93.2495  14
   9  -3   8 145.085 117.710  14
   9  -3   8 147.434 114.369   6
  -9   3  -9-2.59506 51.6569   3
   9   3  -9 132.182 132.000  13
  -9   3  -9 10.8184 39.7731  12
   9   3  -9 107.989 173.584   1
  -9   3  -9 149.454 159.827   5
   9   3  -9 215.661 178.248  11
  -9  -3   9 22.4137 103.026   5
  -9   3  -9 88.6949 94.0303  20
  -9   3  -9 78.3388 146.007  10
  -9   3  -9 88.7691 29.0469  19
  -9  -3   9 94.7375 124.943  19
   9   3  -9 183.826 183.579   9
  -9   3  -9 47.2664 144.797   9
   9   3  -9 111.998 186.804  18
  -9  -3   9 28.2739 104.981   2
   9   3  -9 362.085 223.357  10
  -9  -3   9 127.060 139.826   4
  -9   3  -9 83.4684 162.027   4
   9  -3   9 19.7260 54.7418   8
  -9  -3   9-11.3972 129.552  17
   9   3  -9 113.149 114.841   8
  -9  -3   9-33.5564 106.276  16
   9  -3   9 166.564 212.173  16
  -9   3  -9 301.698 306.437   7
  -9   3  -9 217.101 279.738  15
   9  -3   9 141.773 145.539   1
   9   3  -9 170.578 156.613   3
   9   3  -9 149.601 217.804  14
   9  -3   9 164.816 126.911  14
   9  -3   9 34.6731 37.8074   6
   3   9 -10 549.745 64.6972  13
  -9   3 -10 36.8874 37.1793  13
  -9   3 -10 333.959 229.438   3
  -9   3 -10 312.099 223.262  12
  -9   3 -10 412.717 237.665   5
   9   3 -10 964.749 387.337  11
   9   3 -10 715.614 367.783   1
  -9  -3  10 732.272 366.310   5
  -9   3 -10 516.625 236.411  20
  -9   3 -10 487.553 255.308  10
   9   3 -10 625.322 342.457  10
  -9   3 -10 656.819 264.400  19
  -9  -3  10 551.379 212.619  19
   9   3 -10 848.711 462.224   9
  -9   3 -10-340.446 631.922   9
   3   9 -10 238.426 72.3170  18
   9   3 -10 924.287 382.963  18
  -9   3 -10 422.279 258.208   4
  -9  -3  10 795.992 312.673   2
  -3  -9  10 123.064 191.286  17
  -9  -3  10 536.383 268.451   4
   9  -3  10 1026.13 345.712   8
  -9  -3  10 553.645 324.728  17
   9   3 -10 554.932 221.161   8
   9  -3  10 1156.06 434.998   1
  -9  -3  10 720.618 243.734  16
   9  -3  10 1206.57 491.081  16
  -9   3 -10 838.036 459.666   7
   9   3 -10 838.550 215.791   3
  -9   3 -10 921.460 483.769  15
   9   3 -10 583.762 337.961  14
   9  -3  10 1145.57 344.640  14
   9  -3  10 993.536 342.913   6
   9   3 -11 34.6600 51.6328   3
   3   9 -11-124.873 235.659  13
  -9   3 -11-17.7562 21.4351  13
   3  -9  11-27.2203 120.521   6
  -9   3 -11 43.0966 130.101   3
  -3  -9  11-42.0553 117.719   6
  -9   3 -11-85.7454 82.3494  12
   9   3 -11-37.7599 64.3027  11
  -9  -3  11 89.9620 197.914   5
   9   3 -11 31.4158 98.2007   1
  -9   3 -11 24.4973 45.3428  20
  -9   3 -11-7.82038 77.5914  10
   9   3 -11-88.6725 101.058  10
  -9   3 -11 236.259 182.951  19
  -9  -3  11 10.3037 105.826  19
   9   3 -11 197.355 376.477   9
   3   9 -11-30.0208 93.4283  18
   9   3 -11-74.9093 153.488  18
  -9   3 -11 9.10151 23.5478   4
   9  -3  11-92.9651 198.416   1
  -3  -9  11 5.03384 95.8040  17
  -9  -3  11 78.0816 150.518   4
  -9  -3  11 30.3251 97.2133   2
   9  -3  11 231.998 205.361   8
  -9  -3  11-102.175 68.4440  17
   9  -3  11 2.08600 31.7167  16
  -9  -3  11 30.0078 86.7247  16
  -9   3 -11 130.717 186.996   7
  -9   3 -11 81.7766 160.822  15
  -3   9 -11-79.1133 184.298   3
   9   3 -11 92.5758 178.861  14
   9  -3  11 66.5087 113.865  14
   9  -3  11-112.502 128.154   6
   3  -9  12 591.282 327.107   6
  -3  -9  12 250.068 191.000   6
  -3   9 -12 2062.09 484.887  12
  -9   3 -12 1463.20 523.057  12
  -9   3 -12 588.222 269.576   3
   9   3 -12 1643.58 572.617   1
  -9  -3  12 2217.04 648.566   5
  -9  -3  12 1840.47 514.838   2
   9   3 -12 2268.89 619.616  11
  -9   3 -12 773.771 308.253  20
  -9  -3  12 1374.75 396.716  19
  -9   3 -12 591.207 294.570  10
   9   3 -12 660.996 184.222  10
   9  -3  12 557.286 219.098   1
  -9   3 -12 942.386 293.666  19
  -9  -3  12 1900.52 533.190   4
   9   3 -12 1287.88 490.977   9
   3   9 -12 1962.91 577.837  18
   9   3 -12 2166.40 584.820  18
   9  -3  12 2580.67 589.040   8
  -9   3 -12 615.956 236.902   4
  -3  -9  12 30.5152 130.343  17
  -9  -3  12 1611.94 607.626  17
   9  -3  12 3001.44 747.715  16
  -9  -3  12 2164.66 468.094  16
  -9   3 -12 1102.54 448.930   7
   9  -3  12 2661.18 620.639   6
  -3   9 -12 2069.46 567.311   3
  -9   3 -12 1211.67 519.824  15
   9  -3  12 2829.96 604.590  14
   9   3 -12 2173.09 347.264   3
   9   3 -12 772.078 378.627  14
   3   9 -12 2284.98 633.253  13
  -3   9 -13-392.937 580.579  13
   3   9 -13-32.1174 115.668  13
  -9   3 -13 953.836 362.762  13
  -3  -9  13 5.61369 84.4826   6
   3  -9  13-55.0390 160.930   6
   9   3 -13 22.1787 72.8034   3
  -3   9 -13 14.0023 81.0094  12
   9   3 -13-44.2122 106.369  11
  -9  -3  13 231.228 241.560   5
  -9   3 -13 713.221 378.230  20
  -9   3 -13 1994.54 593.554  19
  -9   3 -13 1423.91 588.143  10
   9   3 -13-929.070 1011.61  10
   9   3 -13 29.8790 61.6379   1
   9   3 -13-143.084 422.900   9
  -3   9 -13 98.8891 194.177  18
   3   9 -13 136.789 172.235  18
  -9   3 -13 447.377 349.973   4
   9   3 -13 171.216 219.475  18
   3  -9  13-62.3347 190.932  17
  -3  -9  13 93.2320 186.126  17
  -9  -3  13 86.3860 146.613   4
   9  -3  13 1105.79 491.824   8
  -9  -3  13 142.509 186.262   2
  -9  -3  13 207.595 268.349  17
   9  -3  13 419.201 320.756  16
  -9  -3  13 300.510 225.506  16
  -9   3 -13 197.092 316.810   7
  -3   9 -13-39.0456 103.734   4
  -9   3 -13 121.138 385.328  15
  -9   3 -13 2289.46 632.743   3
   3   9 -13-118.875 242.574   3
   9  -3  13 1114.64 451.171  14
   9   3 -13-71.0017 177.635  14
  -3   9 -13 29.8398 30.1184   3
   9  -3  13 1216.60 472.094   6
  -3   9 -14 1689.06 722.647  13
  -3  -9  14 328.852 243.926   6
   3  -9  14 529.395 324.040   6
  -9   3 -14-70.9375 124.655  13
  -3   9 -14 2038.25 523.288  12
  -9   3 -14 672.565 413.166   3
  -9  -3  14 2229.83 693.197   5
  -9  -3  14 2022.39 615.268   2
   9   3 -14 1756.79 594.511  11
  -9   3 -14 190.295 195.398  20
  -9   3 -14-90.8280 533.848  10
  -9   3 -14 230.523 207.739  19
   9   3 -14-750.725 1287.63  10
  -9  -3  14 2058.91 529.311   4
  -3   9 -14 2618.80 626.041  18
   3   9 -14 2502.46 650.492  18
   9   3 -14 410.546 60.1511   9
   9   3 -14 1748.91 608.558   1
  -3   9 -14 2579.71 444.505   4
   9  -3  14 2537.21 602.362   8
   9   3 -14 1535.62 534.984  18
   3  -9  14 550.323 419.141  17
  -3  -9  14 176.478 338.580  17
  -9  -3  14 1746.04 640.763  17
   9  -3  14 3256.34 826.925  16
  -9  -3  14 2299.98 527.930  16
  -9   3 -14-687.225 403.616   7
   9  -3  14 2648.61 642.936   6
   3   9 -14 2144.07 524.714   3
  -3   9 -14 2326.54 615.395   3
  -9   3 -14 110.516 302.797  15
   9  -3  14 2553.51 651.946  14
   9   3 -14 2381.85 442.100   3
   9   3 -14 385.596 367.252  14
   3  -9  14 918.048 466.717  14
   3   9 -14 2199.24 656.518  13
   9  -4   0 236.355 207.917   1
   9  -4   0 323.741 290.631   6
  -9  -4   0 4.72823 76.5076  19
  -9   4   0 390.706 176.292   5
  -9   4   0 366.090 202.103  19
   9   4   0 352.045 257.744   1
   9   4   0 297.934 189.967  18
   9   4   0 356.843 245.531   8
  -9  -4   0 21.2901 18.6819  17
   9  -4   0-107.492 209.021   8
  -9   4   0 262.594 163.336   4
   9  -4   0 202.114 136.819  14
   9   4   1 2744.79 671.716   1
   9   4  -1 3410.48 751.014   1
  -9   4  -1 3870.97 666.315   5
  -9   4   1 4040.92 713.933   5
   9  -4   1 2217.31 504.586   1
   9  -4  -1 1639.41 494.263   1
  -9   4  -1 3868.39 658.317  19
  -9   4   1 4008.81 687.472  19
  -9  -4   1 125.369 178.451  19
   9   4   1 2789.85 574.925  18
   9   4  -1 3595.14 670.290  18
   9   4   1 2455.25 582.650   8
   9   4  -1 3318.62 658.615   8
  -9   4  -1 4000.81 698.286   4
  -9   4   1 3359.58 666.358   4
   9  -4   1 2002.84 527.601   8
  -9  -4  -1 84.8156 159.637  17
   9  -4  -1 962.838 226.476   8
   9  -4   1 2768.97 656.875   6
   9  -4   1 2464.75 547.552  14
   9  -4  -1 1785.39 489.826  14
   9  -4   2 33.8360 51.4907   6
   9  -4   2 85.6289 103.082   1
   9   4   2-165.138 281.008   1
  -9  -4   2 125.204 132.554  19
  -9   4  -2 10.1081 49.2642   5
  -9   4  -2 21.1966 52.4752  19
   9   4   2-159.915 291.969  18
   9   4  -2 88.7940 85.4982  18
   9   4   2-14.0421 70.4919   8
   9   4  -2 39.5182 135.962   8
  -9  -4  -2-204.962 183.098  17
   9   4  -2 14.9841 35.5544   1
  -9  -4   2 61.6474 119.036  17
   9  -4   2 20.5276 36.8335   8
  -9   4  -2-35.0999 88.4316   4
   9   4  -2-104.054 236.101  14
   9  -4   2 56.6900 10.2910  14
   9   4  -3 1398.06 481.113   1
  -9   4  -3 1530.45 488.046  12
  -9   4  -3 1530.20 394.069   5
   9  -4   3 1111.53 331.178   1
  -9   4  -3 1277.98 364.819  19
  -9  -4   3 193.123 130.910  19
   9   4  -3 1814.79 436.999   8
  -9   4  -3 1263.37 378.798   4
   9   4  -3 1477.27 412.846  18
   9  -4   3 973.930 328.028   8
   9   4   3 902.038 374.623   8
  -9  -4   3 183.516 220.825  17
   9  -4   3 1273.23 390.673   6
   9  -4   3 1049.03 347.189  14
   9   4  -3 786.260 401.899  14
   9   4  -4 336.116 155.085  13
   9  -4   4 515.186 242.438   6
  -9   4  -4 527.428 272.667  12
  -9  -4   4-290.951 294.501   2
  -9   4  -4 572.088 237.831   5
  -9  -4   4 24.0979 79.1088  19
  -9   4  -4 491.984 214.574  19
   9  -4   4 499.868 212.464   1
   9   4  -4 877.113 327.923  18
   9   4   4 240.543 169.458   8
   9   4  -4 825.037 278.935   8
  -9  -4   4 260.776 220.351  17
   9  -4   4 450.655 241.919   8
   9   4  -4 462.823 268.857   1
  -9   4  -4 558.858 264.687   4
   9   4  -4 226.416 205.643  14
   9  -4   4 535.102 241.761  14
   9   4  -5 24.5601 90.0763  13
   9  -4   5 47.0500 34.6662   6
   9  -4   5 68.1705 73.4085   1
  -9   4  -5 23.2688 20.3156  12
  -9  -4   5 38.7428 100.719  19
  -9  -4   5-120.270 170.954   2
  -9   4  -5 85.8585 95.0713   5
  -9   4  -5 98.4011 97.5527  19
   9   4  -5 131.182 153.322  18
   9   4  -5 34.5506 70.1323   8
  -9  -4   5 30.0135 138.806  17
   9  -4   5 14.9019 57.1329   8
  -9   4  -5 96.5571 122.911   4
   9   4  -5 3.02993 23.2405   1
   9   4  -5-368.888 296.119  14
  -9   4  -5-19.0731 166.003   3
  -9   4  -5 35.1198 23.9931   2
   9  -4   5 63.2147 85.2701  14
   9   4  -6 122.666 106.737  13
   9  -4   6 155.687 147.053   6
  -9   4  -6 66.4888 106.412  12
   9   4  -6 90.5968 111.552  20
  -9   4  -6 89.4088 108.312   5
  -9  -4   6 8.79410 15.3581   2
  -9  -4   6 37.5322 35.4071  19
  -9   4  -6 64.7377 75.3912  19
   9   4  -6 153.154 192.428  18
   9   4  -6 23.6078 35.4995   8
  -9  -4   6-100.779 176.043  17
   9  -4   6 54.9433 66.0794   8
  -9   4  -6-49.1257 92.5193   4
   9  -4   6 8.69874 21.2054   1
   9   4  -6 116.907 172.937   1
   9   4  -6-118.378 180.099  14
  -9   4  -6 122.821 170.165   3
   9  -4   6 75.6900 107.487  14
   9  -4   7-33.4047 42.1997   6
   9   4  -7 24.6627 42.6107  13
  -9   4  -7 226.288 208.917  12
   9   4  -7 328.406 283.714  11
  -9   4  -7 60.6816 80.1139   5
   9   4  -7 152.007 159.352  20
  -9  -4   7 44.4677 98.8523  19
  -9  -4   7 66.5865 121.783   2
  -9   4  -7 111.288 116.925  19
   9   4  -7-46.3565 145.500  18
   9  -4   7 7.46547 22.6137   1
  -9  -4   7 33.9347 138.218  17
   9   4  -7 29.6850 46.1297   8
   9  -4   7 18.0988 49.3044   8
  -9   4  -7-74.1120 130.965   4
   9   4  -7-12.1783 36.8863   1
   9   4  -7-80.9876 159.821  14
   9  -4   7-1.45810 55.2479  14
  -9   4  -7 22.0531 68.8800   3
   9  -4   8 121.052 104.216   6
   9   4  -8 69.0015 55.8188  13
  -9   4  -8 40.2923 103.202  12
  -9  -4   8-104.979 202.769   5
   9   4  -8 225.269 244.272  11
  -9   4  -8 43.7040 29.5501   5
   9   4  -8-12.3258 94.9250  20
   9   4  -8 729.388 367.594  10
   9  -4   8 69.6682 84.5201   1
  -9  -4   8 12.7502 87.3290  19
  -9   4  -8 63.7877 128.498  19
  -9  -4   8-13.1214 103.400   2
   9   4  -8 105.576 120.977  18
  -9  -4   8 109.115 161.146  17
   9   4  -8 29.4971 51.5594   8
  -9   4  -8-2.20864 47.6371   4
   9  -4   8 119.596 137.224   8
   9   4  -8 6.39269 203.648  14
   9   4  -8 118.819 168.772   1
   9  -4   8 85.8678 101.744  14
  -9   4  -8 96.3637 104.303   3
   9  -4   9 745.156 262.570   6
  -9   4  -9 260.206 215.264   3
   9   4  -9 552.995 225.831  13
   9  -4   9 756.248 235.827   1
  -9   4  -9 384.389 229.608  12
  -9  -4   9 445.985 341.441   5
   9   4  -9 744.498 365.241  11
  -9   4  -9 384.063 205.298   5
  -9   4  -9 391.554 190.804  20
  -9   4  -9 633.407 269.121  10
   9   4  -9 367.897 277.184  20
   9   4  -9 528.019 324.893  10
  -9  -4   9 322.735 192.108  19
  -9   4  -9 212.669 196.710  19
  -9  -4   9 324.627 212.062   2
   9   4  -9 484.762 258.720  18
  -9   4  -9 318.180 170.758   4
  -9  -4   9 299.963 234.284  17
   9  -4   9 649.719 258.633   8
   9   4  -9 676.482 230.431   8
   9   4  -9 146.340 231.363  14
   9  -4   9 508.671 223.069  14
   9   4  -9 423.042 300.163   1
   4   9 -10-326.631 356.566  13
   9   4 -10 66.9334 74.9448   1
  -9   4 -10-151.481 174.743   3
   9   4 -10 71.0755 103.204  13
  -9   4 -10-2.71406 120.194  12
  -9  -4  10-79.2901 68.5606   5
   9   4 -10 50.5866 156.580  11
  -9   4 -10 24.0586 64.7625   5
  -9   4 -10 118.796 108.510  20
  -9   4 -10 95.6226 153.960  10
   9   4 -10 105.886 214.512  20
   9   4 -10 150.917 248.153  10
   9   4 -10 622.530 496.193   9
  -9   4 -10 254.241 215.712   9
  -9   4 -10 25.3943 50.9677  19
  -9  -4  10-18.2294 111.327  19
   4   9 -10 68.8016 88.1185  18
  -9  -4  10 13.0618 21.9586   2
  -9  -4  10-309.525 466.307   4
   9   4 -10 111.117 177.454  18
  -4  -9  10 114.459 220.841  17
  -9   4 -10 52.2161 50.8640   4
  -9  -4  10 109.644 229.744  17
   9  -4  10 108.765 136.132   8
   9   4 -10 7.52378 50.6192   8
   9  -4  10-428.045 497.462  16
   9   4 -10 114.686 223.625  14
   9  -4  10 60.5828 86.9196  14
   9  -4  10 229.450 213.516   1
   9  -4  10 12.3194 31.8566   6
   9   4 -11 1488.68 372.342  13
  -9   4 -11-19.0710 112.796  13
  -9   4 -11 467.390 279.130   3
   9   4 -11 1659.16 579.524   1
   4  -9  11 223.137 232.048   6
  -4  -9  11 23.5559 70.0220   6
  -9   4 -11 877.800 332.313  12
  -9   4 -11 996.048 397.254   5
  -9  -4  11 1253.19 515.866   5
   9   4 -11 2213.30 580.947  11
  -9   4 -11 931.205 306.113  20
   9   4 -11 307.857 165.736  20
  -9   4 -11 1198.58 338.230  10
   9   4 -11 1501.62 617.943  10
   9   4 -11 2568.45 697.044   9
  -9   4 -11 770.498 287.685  19
  -9   4 -11 1300.16 319.069   9
  -9  -4  11 997.128 312.280  19
   9   4 -11 1931.31 556.063  18
   4   9 -11 1302.26 451.155  18
   9  -4  11 1758.33 464.071   8
  -9  -4  11 306.623 195.049   4
  -9  -4  11 1157.97 397.463   2
  -4  -9  11 90.6267 220.904  17
  -9   4 -11 996.365 417.537   4
  -9  -4  11 1041.59 452.234  17
   9   4 -11 1457.13 400.648   8
  -9  -4  11 1028.33 301.477  16
   9  -4  11 1791.81 605.480  16
   9  -4  11 2239.97 558.069   1
  -9   4 -11 1474.57 575.454   7
  -4   9 -11 1594.90 482.548   3
   9  -4  11 1864.54 464.720   6
   9   4 -11 2008.35 438.575   3
  -9   4 -11 1728.26 655.423  15
   9  -4  11 1901.36 454.419  14
   9   4 -11 79.9626 179.962  14
   4   9 -11 1499.42 506.566  13
   4   9 -12 18.8345 90.2168  13
  -9   4 -12 613.102 431.134  13
   4  -9  12 193.904 221.510   6
   9   4 -12 44.7474 51.1740  13
  -4  -9  12 4.79176 69.1005   6
  -9   4 -12 1463.87 540.480  12
   9   4 -12-34.2000 182.037   1
  -4   9 -12 48.0673 122.540  12
  -9  -4  12 220.265 324.224   5
   9   4 -12 12.4410 154.872  11
  -9   4 -12 285.860 245.394  20
   9   4 -12-741.949 764.765  20
  -9   4 -12 290.639 288.528  10
  -9   4 -12 1320.89 518.040  19
   9   4 -12 147.581 285.939  10
   9   4 -12 132.762 132.404   9
  -9  -4  12 521.014 274.797  19
  -9   4 -12 235.903 253.809   9
   4   9 -12 241.154 231.983  18
  -9  -4  12-146.958 314.217   4
   9   4 -12 158.576 117.723  18
  -9  -4  12 182.934 230.200   2
  -9   4 -12 300.906 299.249   4
   9  -4  12 687.278 346.970   1
  -4  -9  12-26.2336 121.528  17
   9  -4  12 89.9321 150.674   8
  -9  -4  12 354.872 269.105  17
  -9  -4  12 234.617 222.113  16
   9  -4  12 11.9820 117.363  16
  -9   4 -12 510.585 436.484   7
  -4   9 -12-163.444 222.758   4
  -9   4 -12 654.329 494.040  15
  -9   4 -12 1639.93 648.143   3
   9   4 -12-150.261 385.917  14
  -4   9 -12 202.585 204.824   3
   9  -4  12 320.420 270.061  14
   9   4 -12 214.159 155.688   3
   9  -4  12 228.284 301.672   6
   9   4 -13 2177.81 497.742  13
  -9   4 -13-118.164 214.736  13
   4  -9  13 455.037 247.120   6
  -9   4 -13 738.759 358.737   3
  -4   9 -13 2449.58 578.969  12
   9   4 -13 2208.47 698.695   1
  -9   4 -13 1042.48 380.898  12
   9   4 -13 2572.44 712.521  11
  -9  -4  13 2190.32 708.943   5
  -9   4 -13 1102.38 376.431  20
   9   4 -13-897.070 912.988  20
  -9   4 -13 1053.87 386.173  10
  -9  -4  13 1141.00 362.736  19
   9   4 -13 874.696 307.866  10
  -9   4 -13 1056.93 446.017  19
   9   4 -13 2268.92 669.240   9
  -9   4 -13 609.276 148.763   9
  -4   9 -13 3414.06 778.232  18
   4   9 -13 2545.66 670.272  18
   9   4 -13 2240.90 622.090  18
  -4   9 -13 2642.48 485.517   4
   9  -4  13 2392.37 584.281   8
  -9  -4  13 1527.97 497.946   4
  -9   4 -13 1026.04 440.683   4
  -9  -4  13 1985.53 537.138   2
   4  -9  13 163.463 254.732  17
  -4  -9  13-29.3266 199.976  17
  -9  -4  13 2100.42 646.952  17
  -9  -4  13 2144.96 517.822  16
   9  -4  13 3065.17 872.554  16
  -9   4 -13 1597.98 547.372   7
   9  -4  13 2663.06 613.105   6
  -4   9 -13 2388.42 628.642   3
  -9   4 -13 1466.68 626.784  15
   9   4 -13 2774.53 455.557   3
   9  -4  13 2860.29 613.475  14
   9   4 -13-180.052 330.211  14
   4   9 -13 2241.79 634.635  13
   9   5   0 1318.23 406.502   1
   9   5   0 1217.87 365.045  18
   9   5   0 1021.94 374.420   8
  -9  -5   0 69.8766 128.023  17
   9   5  -1 336.046 59.8675   1
  -9   5  -1 477.227 187.102  19
   9   5  -1 756.222 299.895  18
   9   5   1 243.666 115.012   8
   9   5  -1 362.980 233.460   8
  -9  -5   1 119.896 229.850  17
   9  -5   1-117.169 471.403   8
  -9   5  -1 282.741 97.1676   4
   9  -5   2 1195.72 526.310   6
  -9   5  -2 1552.19 433.090   5
  -9   5  -2 1606.08 442.894  19
   9   5  -2 941.656 400.331   1
   9  -5   2 507.823 267.556   1
   9   5  -2 1601.23 460.983  18
  -9   5  -2 1407.32 464.530   4
   9   5  -2 750.938 313.073   8
  -9  -5   2 12.3814 93.0043  17
   9  -5   2 276.763 148.080   8
   9  -5   2 783.281 334.308  14
   9  -5   3 976.450 428.007   6
  -9   5  -3 1261.66 384.558   5
  -9   5  -3 1289.74 381.652  19
  -9  -5   3-5.56184 108.421  19
   9   5  -3 766.560 373.520   1
   9   5  -3 1054.74 391.171  18
  -9   5  -3 1391.68 450.510   4
   9   5  -3 1075.56 343.543   8
  -9  -5   3 226.186 207.562  17
   9  -5   3 474.072 238.767   8
   9  -5   3 662.135 273.698   1
   9  -5   3 676.298 314.547  14
   9  -5   4 337.396 259.876   6
  -9   5  -4 196.464 97.0725  12
   9  -5   4 252.435 161.866   1
  -9  -5   4-84.0335 132.731  19
  -9   5  -4 259.156 165.115   5
  -9   5  -4 227.155 157.967  19
   9   5  -4 213.149 200.382  18
   9   5  -4 175.212 156.663   1
   9   5  -4 309.476 193.177   8
  -9  -5   4-54.8875 44.2922  17
   9  -5   4 84.3388 82.1405   8
  -9   5  -4 316.106 184.367   4
   9  -5   4 146.389 134.035  14
   9   5  -5 326.671 50.9048  13
   9  -5   5 723.927 281.829   6
  -9   5  -5 842.373 359.244  12
  -9  -5   5 153.077 153.361  19
  -9   5  -5 831.386 301.531   5
  -9   5  -5 1038.69 322.463  19
   9   5  -5 621.201 297.586  18
   9   5  -5 948.664 329.575   8
   9   5  -5 690.202 381.398   1
  -9  -5   5 30.5873 66.4866  17
   9  -5   5 502.739 249.347   8
  -9   5  -5 777.591 323.784   4
   9  -5   5 551.739 222.510   1
   9  -5   5 617.554 259.191  14
   9   5  -6 65.5586 65.3372  13
   9  -5   6 50.2137 73.0374   6
  -9   5  -6 134.991 155.123  12
  -9  -5   6-326.067 357.135   2
  -9   5  -6 132.516 127.208   5
  -9  -5   6-25.2869 87.3377  19
   9  -5   6-18.7135 66.5160   1
  -9   5  -6 39.8265 78.0369  19
   9   5  -6 174.952 177.603  18
   9   5  -6 236.275 150.204   8
  -9  -5   6 110.777 163.012  17
   9   5  -6 115.240 94.0576   1
   9  -5   6 105.990 103.654   8
  -9   5  -6 68.0998 42.3231   4
  -9   5  -6 32.7908 162.543   3
   9  -5   6 111.296 99.6260  14
   9   5  -7 734.069 274.897  13
   9  -5   7 614.015 208.782   1
   9  -5   7 458.807 232.618   6
  -9   5  -7 521.475 254.158  12
  -9  -5   7 11.8733 203.671   2
  -9   5  -7 547.903 250.923   5
  -9  -5   7 185.107 190.471  19
  -9   5  -7 669.988 282.944  19
   9   5  -7 730.162 340.678  18
   9   5  -7 674.256 223.161   8
  -9  -5   7 10.9012 79.8679  17
   9  -5   7 633.934 271.146   8
   9   5  -7 539.852 335.681   1
  -9   5  -7 637.002 291.795   4
  -9   5  -7 396.173 260.736   3
   9  -5   7 761.580 274.851  14
   9  -5   8 65.1208 48.7704   6
   9   5  -8-55.9114 89.8622  13
  -9   5  -8-88.6758 101.550  12
  -9   5  -8 40.2688 9.65904   5
  -9  -5   8 5.58445 77.3919   2
  -9  -5   8 10.8036 91.1682  19
  -9   5  -8-162.692 159.918  19
   9   5  -8-17.7885 166.319  18
   9   5  -8 80.6111 92.7611   8
  -9  -5   8-113.585 129.034  17
   9  -5   8 26.4034 133.673   8
  -9   5  -8-104.950 134.792   4
   9   5  -8 165.472 249.146   1
   9  -5   8 14.4311 39.8212   1
  -9   5  -8 57.0243 123.625   3
   9  -5   8 142.345 121.471  14
   9  -5   9 468.258 242.218   6
   9   5  -9 577.072 237.327  13
  -9   5  -9 536.296 233.195  12
   9   5  -9 954.136 488.471  11
  -9   5  -9 431.471 207.217   5
   9   5  -9 540.031 290.415  20
  -9  -5   9 304.634 225.410   2
  -9  -5   9 340.242 190.453  19
  -9   5  -9 400.209 226.348  19
   9  -5   9 545.649 197.394   1
   9   5  -9 715.720 309.038  18
  -5  -9   9 66.1744 182.153  17
  -9  -5   9 254.697 206.827  17
   9   5  -9 669.823 223.226   8
  -9   5  -9 501.692 247.464   4
   9  -5   9 445.462 212.545   8
   9   5  -9 426.458 279.805   1
   9  -5   9 634.067 259.338  14
  -9   5  -9 325.407 229.111   3
   9  -5  10 497.242 225.574   6
   5   9 -10 133.769 152.919  13
   9   5 -10 378.669 189.900  13
  -9   5 -10 200.622 185.342  12
   9   5 -10 979.710 484.402  11
   9  -5  10 518.126 189.180   1
  -9   5 -10 424.765 234.809   5
   9   5 -10 636.219 302.922  20
   9   5 -10 1150.08 555.495  10
  -9  -5  10 325.131 159.385  19
  -9  -5  10 344.736 244.837   2
  -9   5 -10 351.102 242.437  19
   5   9 -10 371.476 235.378  18
   9   5 -10 714.739 384.267  18
  -5  -9  10-116.691 207.312  17
  -9  -5  10 389.433 204.326  17
  -9   5 -10 429.750 245.364   4
   9   5 -10 708.523 233.032   8
   9  -5  10 551.320 244.405   8
   9   5 -10 437.057 369.205   1
   9  -5  10 685.898 248.499  14
  -9   5 -10 417.251 234.765   3
  -9   5 -11 658.770 386.370   3
   9  -5  11 867.746 341.001   6
   9   5 -11 1104.02 404.121  13
   9  -5  11 670.019 258.777   1
   5   9 -11 492.484 261.169  13
   5  -9  11 95.9465 187.841   6
  -5  -9  11 109.129 154.382   6
  -9   5 -11 608.205 300.058  12
  -5   9 -11 560.408 175.856  12
   9   5 -11 1755.88 656.000  11
  -9   5 -11 466.192 229.458   5
   9   5 -11 1256.52 564.943  20
   9   5 -11 1824.61 727.197  10
  -9  -5  11 795.751 285.072  19
  -9   5 -11 583.124 309.303  19
  -9  -5  11 680.595 352.612   2
   5   9 -11 402.510 250.776  18
   9   5 -11 1095.13 489.127  18
  -5  -9  11 12.2211 72.1899  17
  -9   5 -11 350.948 211.914   4
  -9  -5  11 1551.00 742.269  17
   9  -5  11 656.887 282.413   8
   9   5 -11 1749.68 692.302   1
  -5   9 -11 452.835 230.026   3
   9  -5  11 681.530 281.026  14
  -9   5 -12 945.296 439.050   3
   9   5 -12 1168.16 363.403  13
   5  -9  12 345.909 208.170   6
  -5  -9  12 133.534 195.659   6
  -5   9 -12 1406.70 440.186  12
  -9   5 -12 629.947 308.700  12
  -9   5 -12 985.216 390.561   5
   9   5 -12 1990.41 600.973  11
  -9   5 -12 771.539 312.246  20
  -9   5 -12 1264.75 366.431  10
   9   5 -12 940.214 427.168  20
   9   5 -12 1561.54 601.031  10
  -9  -5  12 715.327 290.606  19
  -9   5 -12 760.818 341.206  19
  -9  -5  12 799.143 373.580   2
   5   9 -12 1168.01 453.161  18
  -5   9 -12 1971.81 489.235   4
   9   5 -12 1413.37 512.368  18
  -5  -9  12-194.437 241.214  17
  -9   5 -12 990.368 403.871   4
  -9  -5  12 771.714 446.880  17
   9  -5  12 1329.71 416.405   8
   9  -5  12 675.681 565.959  16
   9   5 -12 1523.53 447.952   3
   9  -5  12 1541.63 451.655   1
  -5   9 -12 1590.37 539.628   3
   9  -5  12 1490.76 425.049  14
   9   5 -12 1296.17 567.241   1
   9  -5  12 1513.42 445.072   6
   5   9 -12 1460.00 485.891  13
  -5  -9  13 74.2443 93.1351   6
   5  -9  13 155.103 119.054   6
  -5   9 -13 300.724 206.609  12
   9   5 -13 65.0253 82.7396  20
  -9   5 -13 232.485 195.742  10
  -9   5 -13 331.753 186.739   9
  -9   5 -13 117.354 30.1678  19
  -9  -5  13 120.638 31.8848  19
   5  -9  13-42.0262 31.8657  17
   9  -5  13 254.015 156.953   8
   9   5 -13 380.989 214.828   3
   5  -9  13 225.607 232.473  14
   9   6  -1 15.3474 221.437  18
  -9  -6   1-47.8362 105.686  17
   9   6  -2 303.215 191.613   8
  -9  -6   2 25.4404 99.8617  17
   9   6  -3 41.1810 27.5152  18
   9   6  -3 123.359 151.160   8
  -9  -6   3-23.6842 118.864  17
   9  -6   4 717.519 395.376   6
  -9   6  -4 1753.35 483.699   5
  -9   6  -4 1349.60 417.204  19
   9   6  -4 1136.92 405.740   1
   9   6  -4 1253.51 419.125  18
  -9   6  -4 2019.03 606.188   4
   9   6  -4 1177.99 359.894   8
  -9  -6   4 66.6205 152.222  17
   9  -6   4 25.1214 255.015   8
   9  -6   4 661.607 352.462  14
   9  -6   5 323.526 315.628   6
  -9   6  -5 101.756 80.9971  12
  -9  -6   5-5.70844 125.318  19
  -9   6  -5 366.521 214.989   5
   9   6  -5 16.0503 77.1320   1
  -9   6  -5 162.241 36.6346  19
   9   6  -5 195.325 188.946  18
   9   6  -5 355.716 239.103   8
  -9  -6   5 224.019 233.112  17
   9  -6   5-85.1891 217.693   8
  -9   6  -5 100.393 48.1262   4
   9  -6   5 136.278 126.466   1
   9  -6   5 233.390 198.600  14
   9   6  -6 366.800 168.169  13
   9  -6   6 726.836 321.517   6
  -9   6  -6 1111.99 395.765  12
   9  -6   6 589.791 225.007   1
  -9  -6   6-64.2512 43.9497  19
  -9   6  -6 911.994 351.280   5
  -9   6  -6 669.918 345.877  19
   9   6  -6 754.798 369.286   1
   9   6  -6 864.880 366.428  18
   9   6  -6 843.027 293.589   8
  -9  -6   6-128.725 212.796  17
   9  -6   6 606.786 314.072   8
  -9   6  -6 1065.54 418.173   4
   9  -6   6 517.999 278.361  14
   9   6  -7 403.635 203.652  13
   9  -6   7 213.985 201.932   6
  -9   6  -7 510.049 244.042  12
  -9   6  -7 645.565 280.613   5
  -9  -6   7 20.1990 131.595  19
  -9   6  -7 642.863 299.450  19
   9   6  -7 528.664 294.110  18
   9   6  -7 370.729 293.729   1
   9   6  -7 537.107 248.868   8
  -9  -6   7 144.418 31.9341  17
   9  -6   7 370.470 241.077   8
  -9   6  -7 539.868 289.080   4
   9  -6   7 455.838 185.088   1
  -9   6  -7 186.405 144.709   3
   9  -6   7 307.843 175.706  14
   9   6  -8 718.833 311.816  13
   9  -6   8 603.520 285.457   6
  -9   6  -8 693.205 291.905  12
   9  -6   8 753.958 239.128   1
  -9   6  -8 736.188 301.481   5
  -9   6  -8 952.034 326.966  19
   9   6  -8 813.482 364.399  18
   9   6  -8 443.735 294.414   1
   9   6  -8 957.527 287.517   8
  -9  -6   8 147.075 34.8638  17
   9  -6   8 578.570 280.118   8
  -9   6  -8 822.990 335.053   4
  -9   6  -8 651.095 385.117   3
   9  -6   8 502.915 241.823  14
   9   6  -9 103.293 210.297  13
   9  -6   9 132.008 116.086   6
  -9   6  -9-44.7550 134.747  12
  -9  -6   9-309.035 363.722   2
  -9   6  -9-31.5715 131.994   5
  -9  -6   9 10.4064 106.439  19
  -9   6  -9-188.289 182.335  19
   6   9  -9 50.2138 89.1899  18
   9   6  -9-12.9728 139.929  18
  -6  -9   9 93.7977 190.276  17
   9   6  -9 74.9286 167.642   1
   9   6  -9 70.4255 131.028   8
  -9  -6   9-97.9280 190.888  17
  -9   6  -9 7.30600 64.2380   4
   9  -6   9-8.39166 78.0027   8
   9  -6   9-132.202 120.472   1
  -9   6  -9 4.01697 77.0852   3
   9  -6   9-4.91517 108.525  14
   9   6 -10 1144.87 407.390  13
   6   9 -10 598.201 215.288  13
   9  -6  10 834.523 364.555   6
  -9   6 -10 502.462 276.015  12
  -9   6 -10 940.111 290.927   5
  -9  -6  10 219.804 115.992   2
  -9  -6  10 356.424 229.477  19
  -9   6 -10 1064.97 362.945  19
   6   9 -10 649.600 292.497  18
   9   6 -10 1556.08 544.058  18
  -6  -9  10 136.845 200.598  17
   9  -6  10 887.149 245.891   1
  -9  -6  10 483.170 362.399  17
   9   6 -10 1262.47 596.809   1
  -9   6 -10 930.737 354.479   4
   9  -6  10 798.980 309.976   8
  -9   6 -10 606.606 347.120   3
   9  -6  10 774.052 300.235  14
   6   9 -11 57.9756 151.065  13
   9  -6  11 143.106 57.2269   6
   9   6 -11 170.813 160.517  13
   6  -9  11-31.9449 115.459   6
  -6  -9  11 15.6695 91.5059   6
  -9   6 -11 168.839 169.415  12
  -6   9 -11 98.3884 56.7562  12
   9   6 -11 258.192 313.712  11
  -9   6 -11 226.542 171.534   5
   9   6 -11 111.695 94.7281  20
   9  -6  11 203.496 139.400   1
  -9  -6  11-49.7524 161.323   2
  -9  -6  11 53.5603 66.9029  19
  -9   6 -11 219.757 171.039  19
   6   9 -11 298.705 237.448  18
   9   6 -11 144.285 134.522  18
  -6  -9  11-3.40235 148.900  17
  -9  -6  11-59.3848 178.014  17
  -9   6 -11 169.050 139.324   4
   9   6 -11 6.69424 134.757   1
   9  -6  11 120.514 163.742   8
  -6   9 -11 301.606 177.155   4
  -6   9 -11-17.5135 169.814   3
   9  -6  11 161.991 132.484  14
  -9   6 -11 270.972 231.043   3
   9   7  -3 188.889 88.9525  18
  -9  -7   3-25.8343 72.4218  17
   9   7  -4 411.659 274.270  18
   9   7  -4 147.861 74.4098   8
  -9  -7   4 32.6829 156.616  17
   9   7  -5 459.077 247.455  18
   9   7  -5 348.506 221.017   8
  -9  -7   5 168.786 219.985  17
   9  -7   6 872.430 557.541   6
  -9   7  -6 2081.73 631.487   5
   9   7  -6 74.9525 202.700   1
   9   7  -6 1116.37 421.099  18
   9   7  -6 928.076 291.095   8
  -9  -7   6 148.123 178.543  17
   9  -7   6-203.451 549.642   8
  -9   7  -6 2360.41 744.113   4
   9  -7   7 521.467 370.969   6
  -9   7  -7 480.341 210.037  12
   9   7  -7-356.108 400.508   1
  -9  -7   7-19.8598 54.9374  19
  -9   7  -7 803.272 377.675   5
   9   7  -7 685.357 344.868  18
   9   7  -7 509.560 243.023   8
  -9  -7   7-24.5274 86.0174  17
  -9   7  -7 917.066 424.183   4
   9  -7   7 307.217 210.427   1
   9  -7   7 187.175 249.060  14
   9   7  -8 557.902 218.599  13
   9  -7   8 754.978 430.401   6
   9  -7   8 788.917 314.123   1
  -9   7  -8 1172.41 413.654  12
  -9  -7   8 207.780 214.510  19
   9   7  -8 274.231 169.302   1
  -9   7  -8 1136.08 429.141   5
  -9   7  -8 888.061 315.908  19
   9   7  -8 959.024 401.948  18
   9   7  -8 952.118 295.441   8
  -9  -7   8 88.6654 205.921  17
   9  -7   8 316.237 131.542   8
  -9   7  -8 1330.31 495.791   4
   9  -7   8 632.818 320.696  14
   9   7  -9 530.244 272.062  13
   9  -7   9 348.780 274.060   6
  -9   7  -9 554.214 245.242  12
  -9   7  -9 577.518 288.327   5
  -9  -7   9-77.1716 110.448  19
   9   7  -9 327.134 221.213   1
  -9   7  -9 662.059 287.619  19
   7   9  -9 291.518 204.352  18
   9   7  -9 533.376 318.301  18
  -7  -9   9 219.696 289.422  17
   9  -7   9 478.330 219.219   1
  -9  -7   9 167.140 208.092  17
   9  -7   9 173.472 114.005   8
  -9   7  -9 547.556 399.783   4
  -9   7  -9 362.467 284.193   3
   9  -7   9 227.991 188.671  14
   7   9 -10-97.7801 284.942  13
   9   7 -10 177.162 171.353  13
   9  -7  10 232.917 209.607   6
   9  -7  10 130.266 110.641   1
  -9   7 -10 133.248 153.447  12
  -9   7 -10 23.5187 28.4029   5
  -9  -7  10 175.812 170.452  19
  -9   7 -10 91.1489 72.5225  19
   9   7 -10-11.3393 142.345   1
   7   9 -10 45.9537 103.760  18
   9   7 -10 175.392 207.926  18
  -7  -9  10 107.257 148.281  17
  -9  -7  10 79.5498 223.615  17
  -9   7 -10 32.2349 22.5408   4
   9  -7  10 151.153 139.600   8
  -9   7 -10-1.64790 113.807   3
   9  -7  10 134.284 133.390  14
   9   8  -5 1179.77 438.304  18
  -9  -8   5 154.047 316.926  17
   9   8  -6 144.141 65.1740  18
  -9  -8   6 96.7834 217.541  17
   9   8  -7 1317.42 478.647  18
   9   8  -7 1055.74 325.240   8
  -9  -8   7 23.6700 128.389  17
  -9  -8   8 289.740 210.189  19
 -10   0   0 19.2374 43.0112  12
  10   0   0-34.0156 58.4330   1
  10   0   0-62.0716 109.862  11
 -10   0   0 126.714 153.794   5
 -10   0   0 37.2066 79.4214  19
 -10   0   0 4.18770 31.4799   2
  10   0   0 84.9858 59.4733  18
 -10   0   0 14.7024 81.5227   4
  10   0   0 30.9679 94.8853   8
 -10   0   0 34.8041 76.7757  17
 -10   0   0 192.529 242.985   7
 -10   0   0 145.822 242.533  15
  10   0   0 43.2398 101.834  14
  10   0   0-71.8852 73.5861   6
  10   0  -1-13.4156 29.6045  13
 -10   0  -1-11.3860 44.7401  12
  10   0   1 27.7661 133.570   1
 -10   0   1-61.3376 135.595  12
 -10   0  -1 27.0641 103.301   5
  10   0   1-36.7493 83.7409  11
  10   0  -1-116.952 185.041  11
 -10   0   1 58.8544 97.0682   5
 -10   0  -1-12.4031 63.9563   2
  10   0  -1 44.2678 96.2690   1
 -10   0  -1-102.519 152.658  19
 -10   0   1-19.5446 41.7555  19
 -10   0   1-32.0837 43.8562   2
  10   0   1-53.6510 126.966  18
  10   0  -1-47.9392 67.4209  18
 -10   0  -1 52.6187 87.1707   4
  10   0   1-47.2612 56.0197   8
 -10   0   1 61.5656 125.547   4
  10   0  -1-50.7088 80.5228   8
 -10   0  -1 82.0259 90.1544  17
 -10   0   1 3.70783 140.675  17
 -10   0  -1 129.211 194.150   7
 -10   0  -1 65.1756 183.002  15
 -10   0   1 157.609 270.056  15
 -10   0  -1-8.19297 48.0515   3
  10   0   1-7.17557 135.182  14
  10   0  -1 37.0400 67.9501  14
  10   0   1 31.8267 56.2730   6
  10   0  -1 89.0625 122.571   6
  10   0   2 107.157 113.416   1
  10   0  -2 14.9849 12.9334  13
 -10   0  -2 43.4975 90.5429  12
 -10   0   2-83.7850 171.383  12
 -10   0  -2 58.5354 123.584   5
  10   0   2 81.8634 69.0930  11
  10   0  -2 76.6905 134.755  11
 -10   0   2 46.2595 78.6853   5
 -10   0  -2 99.6180 132.375  19
 -10   0   2 1.30988 46.7636  19
  10   0  -2 19.8453 68.9661   1
  10   0   2 10.0210 60.3545  18
  10   0  -2 79.2935 92.4029  18
 -10   0   2-18.3313 26.0059   2
 -10   0  -2 55.6603 106.270   4
  10   0   2 29.1458 80.5388   8
 -10   0   2-63.7739 34.1995   4
 -10   0  -2 55.7122 48.8779  17
  10   0  -2 4.65543 65.0954   8
 -10   0   2-16.1777 87.7076  17
 -10   0  -2-24.6664 131.331   7
 -10   0  -2-37.2651 108.299  15
  10   0   2-7.80581 64.1651  14
  10   0  -2 30.5980 32.2433  14
  10   0   2 50.9423 59.0323   6
 -10   0  -2-18.4819 67.7357   3
  10   0  -2 134.238 109.950   6
  10   0  -3-39.5692 64.1484   6
 -10   0  -3 34.4267 67.2977   3
 -10   0  -3 24.9986 54.3279  12
 -10   0  -3-16.9246 54.4846   5
  10   0   3 115.409 137.677  11
  10   0  -3 132.749 125.387  11
 -10   0   3 51.8052 112.162   5
 -10   0   3-56.8542 104.934  19
 -10   0  -3 13.8053 73.3977  19
  10   0   3 74.0989 75.2813  18
  10   0  -3 88.5207 198.087  18
 -10   0  -3-39.8888 101.458   4
  10   0  -3-26.8375 93.6739   1
  10   0   3-56.7479 128.312   8
 -10   0   3 31.4640 48.4918   2
 -10   0  -3 58.6916 123.163  17
 -10   0   3-70.0862 139.888   4
 -10   0   3-59.0168 166.670  17
  10   0  -3-64.0300 125.374   8
 -10   0  -3-82.7146 273.639   7
 -10   0  -3-72.9303 282.213  15
  10   0   3 14.5151 67.6450  14
  10   0  -3-18.5920 70.4305  14
  10   0   3 63.4282 80.7689   6
  10   0   3 56.6814 83.9209   1
 -10   0  -4 192.146 134.697   3
 -10   0  -4 496.625 244.533  12
  10   0   4 1366.06 275.378  11
 -10   0  -4 400.435 245.313   5
  10   0  -4 536.233 291.337  11
 -10   0   4 843.069 321.677   5
 -10   0  -4 341.772 186.691  19
 -10   0   4 537.383 231.214  19
  10   0   4 1176.05 313.028  18
  10   0  -4 810.723 352.052  18
 -10   0  -4 261.308 192.015   4
  10   0   4 959.622 339.766   8
 -10   0  -4 354.598 204.302  17
 -10   0   4 782.045 239.106   2
 -10   0   4 761.532 393.059  17
 -10   0   4 736.814 290.433   4
  10   0  -4 862.861 334.439   1
  10   0  -4 829.717 308.706   8
  10   0   4 768.963 222.164  16
 -10   0  -4-53.0620 305.945   7
  10   0  -4 1024.47 215.968   6
 -10   0  -4 121.504 222.917  15
  10   0   4 868.475 324.309   1
  10   0   4 965.460 373.768  14
  10   0   4 1123.60 385.700   6
  10   0  -4 751.434 311.715  14
  10   0  -5 39.4376 53.7025   6
  10   0   5-40.0226 26.3028  11
  10   0  -5 18.9702 127.557  11
 -10   0   5 138.369 161.798   5
 -10   0  -5-102.459 138.743  19
 -10   0   5 54.1119 76.2258  19
  10   0   5-10.1382 67.7029  18
 -10   0  -5-46.1682 59.0921   4
  10   0  -5-116.289 190.419  18
  10   0   5 89.8249 135.032   8
 -10   0  -5 42.0383 111.793  17
 -10   0   5 69.3183 167.093  17
 -10   0   5 12.2514 37.4321   4
 -10   0   5-7.45239 25.1128   2
  10   0  -5-28.8449 98.7383   8
  10   0   5 5.53573 29.2261  16
  10   0   5-75.2856 143.852   1
  10   0  -5-52.7168 83.9169   1
  10   0   5-23.7175 66.1553  14
  10   0   5 47.9584 112.900   6
  10   0  -5-22.0095 58.6322  14
  10   0   6 1442.27 237.834  11
 -10   0   6 1127.36 312.244   2
  10   0  -6 382.914 236.597  11
 -10   0   6 1209.85 410.503   5
 -10   0   6 1041.65 325.239  19
 -10   0  -6 168.671 223.847  19
  10   0   6 1387.08 304.427  18
 -10   0   6 1217.81 379.802   4
 -10   0  -6 183.808 164.079   4
  10   0  -6 755.619 414.321  18
  10   0   6 1340.86 447.144   8
 -10   0  -6 192.354 140.237  17
 -10   0   6 1046.12 473.433  17
  10   0   6 1278.89 459.093   1
  10   0   6 1606.02 352.463  16
  10   0  -6 969.142 376.567   8
 -10   0   6 888.299 188.013  16
  10   0   6 1439.50 465.474   6
  10   0  -6 1088.23 208.260   6
  10   0  -6 903.574 373.187   1
  10   0   6 1234.29 432.911  14
  10   0  -6 910.897 334.619  14
  10   0  -7-4.49891 36.7431   6
  10   0   7 55.6656 69.0736  11
  10   0  -7 23.1579 144.732  11
 -10   0   7-24.2095 66.2675   5
 -10   0  -7 2.88469 135.260  19
 -10   0   7 48.8288 92.4653  19
  10   0   7 45.7897 84.2360  18
 -10   0  -7-292.962 334.980   4
  10   0  -7 30.5274 124.951  18
  10   0   7 13.9798 137.897   1
  10   0   7-40.1181 75.3999   8
 -10   0  -7-42.1671 47.3288  17
 -10   0   7 79.2140 105.588  17
 -10   0   7 49.0408 144.496   4
 -10   0   7 47.3515 131.187   2
  10   0   7 66.8395 129.984  16
 -10   0   7 0.93769 52.5671  16
  10   0   7-47.0457 55.1327  14
  10   0   7-88.7805 140.172   6
  10   0  -7 33.3737 96.5370  14
  10   0  -7-23.7507 27.0923   1
  10   0  -8 559.205 306.249   1
  10   0  -8 633.388 166.391   6
  10   0  -8 479.293 401.514  11
 -10   0   8 832.474 375.321   5
 -10   0  -8 9.37745 115.734  19
 -10   0   8 818.943 305.404  19
  10   0   8 905.574 218.659  18
  10   0   8 748.728 337.291   1
  10   0  -8 543.260 336.754  18
  10   0   8 868.177 345.822   8
 -10   0  -8-6.86222 68.3208  17
 -10   0   8 1139.93 534.711  17
 -10   0   8 1000.80 372.991   4
  10   0   8 1192.11 325.203  16
 -10   0   8 972.950 359.229   2
 -10   0   8 1066.20 293.083  16
  10   0   8 806.145 383.212  14
  10   0   8 821.511 320.916   6
  10   0  -8 709.502 317.031  14
  10   0  -9-165.882 146.524   6
  10   0  -9 35.7206 125.400   1
  10   0  -9-31.2796 74.0945  11
  10   0   9-370.813 350.130   1
 -10   0   9-149.995 185.986   5
 -10   0  -9 118.758 175.735  19
 -10   0   9-141.709 191.358  19
  10   0   9 70.4865 80.2334  18
  10   0  -9 24.1633 168.086  18
  10   0   9 30.6831 86.3133   8
 -10   0  -9-37.5559 75.3309  17
 -10   0   9-50.8204 184.887  17
 -10   0   9 52.5772 116.188   4
  10   0   9 124.656 170.467  16
 -10   0   9 43.7954 85.8446   2
 -10   0   9-28.7020 65.0249  16
  10   0   9-9.20237 71.0993  14
  10   0   9-148.581 150.219   6
  10   0  -9-55.2893 63.3255  14
  10   0 -10-48.0060 136.991   1
  10   0 -10-13.1639 44.8352  11
 -10   0  10 279.623 184.050   5
 -10   0 -10-106.443 257.611  19
  10   0  10 168.087 88.3646  18
  10   0 -10 52.8967 118.637  18
  10   0  10 261.719 207.146   8
 -10   0  10 49.3614 92.1738  17
 -10   0  10 259.509 229.200   4
  10   0  10 272.946 157.298  16
 -10   0  10 272.288 234.417   2
 -10   0  10 264.116 219.549  16
  10   0  10 467.914 277.051  14
  10   0  10 306.919 244.445   6
  10   0 -10 98.2219 173.301  14
 -10   0  11 197.811 255.672   5
 -10   0 -11-378.600 304.912  19
  10   0 -11 159.306 247.330   1
  10   0  11-161.341 184.668   8
 -10   0  11-65.4816 249.065  17
 -10   0  11 134.219 157.234   4
  10   0  11 95.3342 175.420  16
 -10   0  11 195.191 193.820  16
 -10   0  11 2.01165 127.499   2
  10   0  11-27.0937 95.8807   6
  10   0  11-26.8032 69.9643  14
  10   0 -11 153.036 200.160  14
 -10   0  12 384.082 378.196   5
 -10   0 -12 37.2355 89.0001  19
  10   0 -12-100.695 175.882   1
  10   0  12 394.273 249.069   8
 -10   0  12 168.452 166.218  17
 -10   0  12 69.2378 39.9000   4
  10   0  12 221.790 205.886  16
 -10   0  12 345.237 284.875  16
 -10   0  12 152.196 149.592   2
  10   0  12 138.635 180.293   6
  10   0  12 92.8650 73.6755  14
  10   0 -12 84.4491 145.849  14
   0  10 -13-437.974 448.349  13
   0 -10  13 81.1190 171.535   6
 -10   0 -13 33.7347 179.885  19
 -10   0  13 31.1067 128.150   5
   0  10 -13 187.796 252.765  18
  10   0 -13 319.335 343.251   1
  10   0  13-122.173 96.3481   8
   0 -10  13 106.959 240.213  17
 -10   0  13 111.098 225.868  17
 -10   0  13-7.46436 103.122   4
  10   0  13-38.0603 120.524  16
 -10   0  13 123.452 105.938  16
 -10   0  13-24.7398 52.6906   2
  10   0  13 59.3931 170.837   6
  10   0  13-36.1201 247.095  14
  10   0 -13-126.434 172.721  14
  10  -1   0 37.0887 67.8854   6
  10   1   0 78.1630 99.8125   1
 -10  -1   0 7.06462 65.6593  12
 -10   1   0-86.6550 155.906  12
  10   1   0 52.7333 116.200  11
 -10  -1   0-99.6019 115.701   5
 -10   1   0-49.1821 44.6578   5
 -10  -1   0-151.980 203.554   2
 -10  -1   0-77.1111 88.2783  19
 -10   1   0-5.64284 33.7307  19
  10   1   0-66.3117 117.143  18
  10  -1   0 13.8442 83.4924  18
  10  -1   0 67.8509 22.7412   1
 -10  -1   0 35.0836 60.9456   4
 -10   1   0 50.0633 57.0018   2
  10   1   0 50.3442 126.654   8
 -10  -1   0-15.3420 38.7709  17
 -10   1   0 85.8574 137.335   4
  10  -1   0 30.7765 57.9316   8
 -10   1   0-57.9195 164.090  17
  10   1   0 1.53079 44.5129  14
  10   1   0 6.56073 79.3951   6
  10  -1   0 18.3655 44.2776  14
  10  -1   1 195.504 142.149   6
  10  -1  -1 109.886 89.2192   6
  10   1  -1 168.044 169.331   1
 -10  -1  -1 94.7400 137.510  12
 -10  -1   1 157.394 138.875  12
 -10   1  -1 126.508 143.029  12
 -10   1   1-41.6751 205.558  12
 -10  -1  -1-35.3047 114.144   5
  10   1   1 228.932 144.663  11
  10   1  -1 87.4635 57.0236  11
 -10  -1   1 43.8720 70.3832   5
 -10   1  -1 102.010 122.850   5
 -10   1   1 138.464 131.956   5
 -10   1  -1-63.6297 79.9291  20
 -10  -1  -1 97.7247 147.710  19
 -10  -1   1 23.4617 58.2873   2
 -10  -1   1 46.6673 63.4854  19
 -10   1  -1 161.265 122.882  19
 -10   1   1 96.3472 111.930  19
  10  -1   1 145.451 126.125   1
 -10   1  -1 103.659 80.3675   2
  10   1   1 241.140 178.260  18
  10   1  -1 240.480 174.319  18
  10  -1   1 77.4818 93.3041  18
  10  -1  -1-55.8279 214.063  18
 -10  -1  -1 135.829 180.695   4
 -10  -1   1 98.0682 142.130   4
  10   1   1 225.973 190.119   8
  10   1  -1 115.976 82.8932   8
 -10  -1  -1 36.2057 72.9494  17
 -10  -1   1 84.9994 107.067  17
 -10   1   1 38.6512 48.0068   2
 -10   1  -1 134.889 87.5133   4
  10  -1   1 148.333 149.032   8
  10  -1  -1 113.445 126.485   8
 -10   1  -1-17.9498 103.589  17
 -10   1   1 91.4252 106.976   4
 -10   1   1-20.3230 158.629  17
  10  -1  -1 132.839 135.547   1
  10   1   1 314.328 233.656  14
  10   1   1 69.1895 51.4541   6
  10   1  -1 206.269 184.435  14
  10   1  -1 292.446 200.729   6
  10   1   1 255.354 191.811   1
  10  -1   1 260.154 195.310  14
  10  -1  -1 127.970 112.080  14
 -10  -1  -1 72.7503 63.8524   3
  10   1  -2 128.381 114.535  13
  10  -1  -2 40.9187 53.1029   6
 -10  -1  -2 47.2374 77.1463   3
 -10  -1  -2 252.087 227.392  12
 -10   1  -2-1.35134 24.4484  12
 -10  -1   2 45.3621 23.9959  12
  10   1  -2 37.8116 89.5533   1
 -10  -1  -2-48.5071 92.9700   5
  10   1   2 68.0757 78.6841  11
  10   1  -2 61.0775 70.9276  11
 -10  -1   2-28.6574 109.591   5
 -10   1  -2-73.8221 107.093   5
  10  -1   2 6.18244 33.7253   1
 -10   1   2 83.3388 132.167   5
 -10   1  -2-240.625 203.136  20
 -10  -1  -2 51.8202 17.4864  19
 -10   1  -2 18.9589 57.4840   2
 -10  -1   2 176.005 143.837  19
 -10   1  -2-24.6797 63.4732  19
 -10   1   2-2.85853 56.5385  19
 -10  -1   2 21.8268 70.0713   2
  10   1   2-4.42973 30.1340  18
  10   1  -2-21.5811 54.3839  18
 -10  -1  -2-91.1331 174.108   4
  10  -1   2 87.9088 139.622  18
  10  -1  -2 1.47507 70.8737  18
 -10  -1   2 114.168 173.616   4
  10   1   2 0.86522 61.9590   8
 -10  -1  -2 26.3543 103.844  17
 -10   1  -2-10.4965 24.4101   4
  10   1  -2-30.8820 84.5467   8
  10  -1   2 45.3453 53.7806   8
 -10  -1   2 1.24716 93.8880  17
 -10   1  -2 154.071 224.236  17
  10  -1  -2 35.2610 34.3973   8
 -10   1   2-19.8007 137.916  17
 -10   1   2 25.1873 117.837   4
 -10   1   2 46.0793 57.6171   2
 -10  -1   2-264.821 371.520   7
 -10  -1   2-150.806 321.666  15
  10  -1  -2 29.2145 66.4989   1
  10   1   2-95.8325 139.322   1
 -10   1  -2-74.6738 126.373   3
  10   1   2-43.8646 132.996   6
  10   1   2 67.2245 151.232  14
  10   1  -2-101.772 171.184  14
  10   1  -2 55.4987 71.7757   6
  10  -1   2 17.8985 58.3895  14
  10  -1  -2 51.9632 22.9810  14
  10  -1   2 8.48476 29.6253   6
  10   1  -3 211.170 95.6928  13
  10  -1  -3 203.877 119.656   6
 -10   1  -3 75.7252 50.6046  12
  10  -1   3 201.632 161.004   1
 -10  -1   3-180.650 299.131  12
  10   1  -3 184.759 132.778  11
 -10   1  -3 90.2029 99.2697   5
 -10  -1   3 254.283 209.084   5
  10   1  -3 177.902 126.063   1
 -10   1   3 166.955 162.776   5
 -10  -1  -3-105.695 145.828  19
 -10   1  -3 97.1845 127.180  19
 -10  -1   3 116.962 137.515  19
 -10   1   3 188.556 125.754  19
  10   1   3 221.889 152.225  18
 -10  -1   3 174.890 121.559   2
  10   1  -3 108.851 147.990  18
 -10  -1  -3 13.0405 123.408   4
  10  -1   3 178.787 140.721  18
  10  -1  -3 69.1240 60.4672  18
  10   1   3 302.308 220.209   8
 -10  -1   3 19.4270 47.8150   4
 -10   1  -3 11.0190 51.4842   4
 -10  -1  -3 36.9767 112.064  17
  10  -1   3 185.775 168.081   8
  10   1  -3 226.115 180.389   8
 -10  -1   3 162.975 123.515  17
 -10   1  -3 119.759 100.720  17
 -10   1   3-29.0432 112.321  17
  10  -1  -3 134.075 126.462   8
 -10   1   3 187.019 169.400   4
  10   1   3 163.907 91.9415  16
 -10   1   3 205.537 130.180   2
 -10  -1   3 38.2033 168.775   7
  10   1   3 273.190 215.197   1
 -10   1  -3 344.480 300.486   7
 -10  -1   3-9.19699 176.362  15
 -10   1  -3 404.819 333.746  15
  10   1   3 172.336 130.248   6
  10   1   3 201.453 241.451  14
  10   1  -3 285.542 207.747  14
  10  -1   3 205.959 148.518  14
  10   1  -3 347.349 192.450   6
  10  -1  -3 229.021 178.219   1
  10  -1  -3 185.252 161.967  14
 -10   1  -3 29.2375 40.0693   3
  10  -1   3 218.785 152.757   6
 -10   1  -4-13.0805 30.4771   3
  10  -1   4 72.5617 80.5882   1
  10   1  -4 49.0503 62.0494  13
  10  -1  -4 20.1390 39.9955   6
  10  -1  -4 3.17523 13.7115   1
 -10   1  -4-1.60704 68.2788  12
 -10   1  -4-18.7308 32.5640   5
  10   1  -4-11.6378 38.9250  11
 -10  -1   4-21.4954 62.5135   5
 -10   1   4-29.3706 74.9435   5
  10   1  -4-26.9566 66.7236   1
 -10  -1  -4 15.0128 119.211  19
 -10   1  -4 112.709 140.817  19
 -10  -1   4 18.7665 84.9325  19
 -10   1   4 57.4090 65.4339  19
  10   1   4-15.6584 24.2926  18
 -10  -1  -4-74.6562 219.349   4
  10   1  -4 53.0089 96.8535  18
  10  -1   4-84.6240 122.583  18
 -10  -1   4 57.8795 80.7691   2
  10  -1  -4 49.3360 48.6188  18
  10   1   4 20.7295 123.229   8
 -10   1  -4-55.4174 8.68822   4
 -10  -1  -4 92.8291 160.458  17
 -10  -1   4-5.09264 80.6923   4
  10  -1   4 14.4570 26.6253   8
 -10  -1   4 84.4220 199.096  17
  10   1  -4-38.3653 46.8512   8
 -10   1  -4-25.1119 172.990  17
 -10   1   4-32.4517 65.5867  17
  10   1   4-29.1167 63.3430   1
  10  -1  -4 30.3797 64.5844   8
 -10   1   4 51.3471 89.1984   4
 -10  -1   4-121.787 151.474   7
  10   1   4 50.3545 68.9486  16
 -10   1   4 41.5447 91.0504   2
 -10   1  -4 85.9555 174.764   7
 -10  -1   4 15.4018 74.6960  15
 -10   1  -4 13.5831 123.952  15
  10   1   4 21.7166 78.2433   6
  10   1   4-44.4944 92.6290  14
  10   1  -4-17.1622 61.2967  14
  10  -1   4-49.3948 94.8618  14
  10   1  -4 19.6484 81.6535   6
  10  -1  -4 113.156 122.124  14
  10  -1   4-11.1516 36.5844   6
 -10   1  -5 234.623 166.075   3
  10  -1  -5 588.783 193.861   6
 -10   1  -5 328.140 165.998  12
 -10   1  -5 455.851 240.380   5
  10  -1  -5 399.666 243.073   1
  10   1  -5 610.567 301.951  11
 -10  -1   5 572.644 282.439   5
 -10   1   5 624.445 284.278   5
 -10  -1  -5-153.075 223.248  19
 -10   1  -5 190.342 126.469  19
 -10  -1   5 578.741 248.466  19
 -10   1   5 725.701 265.335  19
  10   1  -5 594.231 282.500   1
  10   1   5 752.186 223.407  18
  10   1  -5 890.789 336.515  18
  10  -1   5 795.531 258.720  18
  10  -1  -5 394.841 242.634  18
 -10   1  -5 209.333 127.402   4
  10   1   5 714.901 320.996   8
  10   1   5 752.810 355.966   1
 -10  -1   5 526.752 198.419   2
 -10  -1  -5 117.855 97.4549  17
  10  -1   5 617.970 272.513   8
 -10  -1   5 684.365 314.922   4
 -10  -1   5 489.971 331.765  17
 -10   1  -5 68.9907 86.6390  17
  10   1  -5 697.374 270.986   8
 -10   1   5 365.359 340.898  17
  10  -1  -5 423.849 218.471   8
 -10   1   5 592.674 258.479   4
 -10  -1   5 915.947 308.921   7
  10   1   5 1001.89 253.741  16
 -10   1  -5 375.998 292.651   7
 -10   1   5 725.517 258.117   2
 -10   1  -5 464.387 302.952  15
 -10  -1   5 801.304 313.407  15
  10   1   5 552.850 288.701   6
  10   1   5 834.585 389.509  14
  10  -1   5 769.134 299.591  14
  10   1  -5 786.170 337.808  14
  10  -1   5 742.490 297.538   1
  10  -1  -5 655.069 317.682  14
  10  -1   5 819.124 299.587   6
  10   1  -5 754.873 207.445   6
 -10   1  -6-38.1939 81.7914   3
  10  -1  -6-30.7040 61.4736   6
 -10   1  -6 151.695 194.842  12
 -10   1  -6 27.3365 129.610   5
  10   1  -6 34.5598 97.0473  11
 -10  -1   6 47.8657 89.0481   5
 -10   1   6 26.1196 94.7676   5
 -10  -1  -6-101.426 146.074  19
 -10   1  -6 34.1364 66.3512  19
  10  -1  -6 160.675 172.877   1
 -10  -1   6 55.8291 94.9667  19
 -10   1   6-7.36157 59.0372  19
  10   1   6 25.3076 10.8563  18
  10   1   6-48.4155 123.544   1
  10  -1   6-28.1760 21.8780  18
  10   1  -6 49.2921 77.4666  18
  10   1  -6 41.2628 79.6135   1
 -10   1  -6 5.86021 81.2328   4
  10   1   6-98.3660 196.097   8
 -10  -1  -6-1.37069 28.6081  17
  10  -1   6 94.7558 126.475   8
 -10  -1   6 87.1172 130.554   2
 -10  -1   6-27.5854 82.0538   4
 -10  -1   6 25.9661 74.2616  17
 -10   1  -6-144.015 170.237  17
  10   1  -6-104.741 160.300   8
 -10   1   6-38.3851 250.587  17
 -10  -1   6-72.9999 83.0567  16
  10  -1   6-24.8261 86.4430  16
 -10   1   6-19.5951 44.3726   4
 -10   1  -6-16.3498 68.8007   7
  10   1   6 63.7091 104.103  16
 -10   1   6 30.2428 96.5674   2
 -10   1  -6 92.3700 133.229  15
  10  -1   6 23.3793 71.9204   1
  10   1   6 11.1017 56.1435   6
  10   1   6 71.5808 97.0720  14
  10  -1   6 20.0325 70.0722  14
  10   1  -6 41.6059 44.5512  14
  10  -1   6-8.35586 64.4847   6
  10  -1  -6 23.3801 78.3798  14
  10   1  -6 12.1157 32.0222   6
 -10   1  -7 669.918 311.545  12
 -10   1  -7 326.470 194.736   3
  10  -1  -7 553.243 170.021   6
  10   1  -7 640.801 315.444  11
 -10  -1   7 877.241 357.484   5
 -10   1   7 1004.17 344.137  19
 -10  -1  -7 31.0852 50.6856  19
 -10   1   7 1220.71 432.759   5
 -10   1  -7 537.174 310.503  19
  10   1   7 652.025 336.879   1
 -10  -1   7 809.956 292.355  19
  10  -1   7 1176.35 283.941  18
  10   1   7 917.340 238.645  18
  10   1  -7 812.830 413.284  18
  10  -1  -7 590.976 308.137   1
 -10   1  -7 407.152 270.106   4
  10   1   7 862.643 383.657   8
 -10  -1  -7 102.353 117.949  17
  10  -1   7 1088.18 352.152   8
  10   1  -7 742.649 317.599   1
 -10  -1   7 856.362 293.077   2
 -10  -1   7 919.103 363.858   4
 -10   1  -7 139.600 142.020  17
 -10  -1   7 685.221 383.204  17
 -10   1   7 794.412 469.532  17
  10   1  -7 887.459 316.678   8
 -10  -1   7 772.247 167.983  16
  10  -1   7 1390.44 369.673  16
 -10   1   7 1139.76 370.980   4
 -10   1  -7 397.494 31.7630   7
  10  -1   7 1426.83 443.445   1
  10   1   7 1292.12 370.831  16
  10   1  -7 958.297 186.704   6
 -10   1  -7 427.812 235.249  15
 -10   1   7 964.581 355.196   2
  10   1   7 880.659 404.755   6
  10   1   7 1330.50 489.672  14
  10  -1   7 1209.05 384.350  14
  10   1  -7 935.653 372.592  14
  10  -1   7 1197.48 384.268   6
  10  -1  -7 709.150 315.287  14
  10   1  -8-238.621 279.369  11
  10   1   8-422.324 353.377   1
 -10  -1   8-45.5643 37.9801   5
 -10  -1  -8 27.5572 113.945  19
 -10   1   8-3.34621 58.1666   5
 -10   1  -8 235.579 215.433  19
 -10  -1   8-6.43597 41.8806  19
 -10   1   8-229.386 290.917  19
  10   1   8 55.8107 91.5172  18
 -10   1  -8-51.3661 108.896   4
  10  -1   8 17.5731 61.5696  18
  10   1  -8 91.9534 91.8629  18
  10   1   8 88.6320 160.401   8
 -10  -1  -8-55.7006 53.3082  17
  10  -1   8-53.6090 102.290   8
  10  -1   8-13.6413 19.5272   1
 -10   1  -8 17.3662 99.8304  17
 -10  -1   8-242.739 220.097  17
 -10  -1   8 50.4686 14.0523   4
 -10  -1   8 34.0251 10.0162   2
  10   1  -8 100.779 147.624   1
  10  -1  -8-4.22367 73.5680   1
 -10   1   8-540.414 391.746  17
  10   1  -8-293.666 351.678   8
  10  -1   8 102.504 126.558  16
 -10  -1   8-18.6361 23.7195  16
 -10   1   8 32.2653 70.5384   4
  10   1   8 38.2551 76.7784  16
 -10   1  -8-275.466 382.598  15
 -10   1   8 23.8856 76.6982   2
  10   1   8 16.0746 76.1761   6
  10   1   8 122.166 171.787  14
  10  -1   8 79.7378 113.082  14
  10  -1   8 91.2722 136.852   6
  10   1  -8 65.0311 109.481  14
  10  -1  -8-27.1519 115.713  14
  10   1  -9 64.8788 62.9215  11
 -10  -1   9 367.582 240.581   5
 -10  -1  -9 100.450 198.180  19
 -10   1   9 470.518 303.246   5
 -10   1  -9-35.1315 87.3618  19
 -10  -1   9 315.017 196.210  19
  10   1   9 180.348 120.076  18
  10  -1   9 234.215 183.579   1
 -10   1  -9-224.729 312.175   4
  10   1  -9 258.402 237.598  18
  10   1   9 502.391 295.952   8
 -10  -1  -9 126.145 164.763  17
  10  -1   9 572.952 301.294   8
 -10  -1   9 149.501 117.675  17
 -10  -1   9 223.702 170.186   4
 -10  -1   9 291.089 209.686   2
 -10   1   9-126.442 385.921  17
  10  -1   9 409.005 189.143  16
 -10  -1   9 343.832 139.566  16
 -10   1   9 293.424 188.109   4
  10   1  -9 288.108 222.452   1
  10   1   9 401.617 173.632  16
  10  -1  -9 276.786 279.494   1
  10   1   9 229.887 215.233   6
 -10   1   9 365.484 245.528   2
  10   1   9 182.811 221.743  14
  10  -1   9 309.864 240.296  14
  10  -1   9 453.341 283.224   6
  10   1  -9 211.363 102.681  14
  10  -1  -9 52.5005 168.681  14
  10   1 -10-16.7623 104.789  11
 -10  -1  10 101.365 184.864   5
 -10  -1 -10-32.0007 41.4125  19
  10  -1  10-148.842 232.289   1
 -10   1 -10-29.1217 61.9339  19
 -10   1  10-45.4399 120.418   5
 -10  -1  10 69.7448 51.3039  19
  10   1  10-136.192 173.602  18
  10   1 -10 43.4813 81.8947  18
  10   1  10 215.940 302.043   8
 -10  -1 -10-63.9235 45.1296  17
  10  -1  10-90.2837 68.4569   8
 -10  -1  10 160.247 266.790  17
 -10  -1  10 32.4642 32.5213   4
 -10   1  10-459.838 609.996  17
 -10  -1  10 22.9086 90.8998   2
  10  -1  10 22.4235 122.258  16
 -10  -1  10 98.7104 93.3668  16
 -10   1  10 9.53795 61.2242   4
  10   1  10 90.4105 179.226  16
  10   1 -10-88.9229 130.867   1
  10   1  10 34.9261 59.4700   6
  10   1  10-4.15807 84.1811  14
 -10   1  10 127.664 194.314   2
  10  -1  10 10.0245 44.4686  14
  10  -1 -10 101.364 132.343   1
  10  -1  10 59.0845 122.530   6
  10   1 -10-105.574 180.603  14
  10  -1 -10 63.9994 175.917  14
  10  -1 -11 32.9677 184.775   1
  10   1 -11 256.200 311.475  11
 -10  -1  11 99.9966 178.820   5
 -10  -1 -11-26.8761 73.1655  19
 -10   1 -11 268.680 391.298  19
 -10   1  11 41.4607 204.001   5
 -10  -1  11-232.824 336.547  19
  10   1 -11-10.7732 77.5219  18
  10   1  11 143.208 64.7295   8
  10  -1  11 208.628 151.897   8
 -10  -1  11 47.0208 103.304  17
 -10  -1  11 127.845 168.017   4
 -10  -1  11 87.6478 157.152   2
  10  -1  11 26.0591 70.9781  16
 -10  -1  11 258.489 176.530  16
 -10   1  11-129.812 233.892   4
  10   1  11 117.904 165.247  16
  10   1  11-28.7781 139.798   6
  10   1  11-81.3651 217.232  14
  10   1 -11-29.4140 84.6723   1
 -10   1  11 253.161 266.798   2
  10  -1  11 316.038 290.838  14
  10  -1  11 205.564 274.885   6
  10   1 -11 204.653 202.122  14
  10  -1 -11 148.584 95.2842  14
  10  -1 -12 290.982 330.698   1
  10   1 -12 77.7829 170.614  11
 -10  -1  12 64.0917 185.239   5
 -10  -1 -12 172.271 270.727  19
 -10   1 -12 244.666 321.156  19
 -10   1  12 200.148 210.398   5
  10   1 -12-2.14364 123.192  18
  10   1  12 164.388 183.996   8
  10  -1  12 463.511 366.354   8
 -10  -1  12 41.4486 177.013  17
 -10  -1  12 58.7313 64.7565   4
 -10  -1  12 87.2211 167.773   2
  10  -1  12 213.342 175.738  16
 -10  -1  12-117.763 140.580  16
  10   1  12 406.697 295.872  16
  10   1  12-4.25400 127.305   6
  10  -1  12 467.657 284.753  14
 -10   1  12 68.4174 165.294   2
  10  -1  12 371.288 249.659   6
  10   1 -12-13.9604 171.005  14
  10   1 -12-151.373 229.879   1
  10  -1 -12 288.089 320.596  14
  10   1 -13 190.868 242.625   1
  -1  10 -13-439.702 609.660  13
   1  10 -13-26.6248 308.691  13
   1 -10  13 100.422 151.994   6
  -1 -10  13 123.954 155.045   6
  10   1 -13 31.6476 177.037  11
 -10  -1  13 177.113 112.115   5
 -10  -1 -13 145.366 292.747  19
 -10   1 -13 44.5622 114.334  19
  -1  10 -13 169.847 21.3639  18
   1  10 -13 376.081 383.367  18
  10   1 -13 51.0156 109.035  18
  10   1  13 422.002 285.196   8
   1 -10  13 255.057 463.023  17
  -1 -10  13 292.631 381.844  17
  10  -1  13 321.703 262.290   8
 -10  -1  13 215.575 203.152  17
 -10  -1  13 228.320 212.722   4
 -10  -1  13 95.0552 110.852   2
  10  -1  13 285.841 199.092  16
 -10  -1  13 237.029 147.724  16
  10   1  13-0.91937 123.271  16
  10   1  13-346.676 254.433   6
  -1  10 -13 40.5647 112.813   3
  10  -1  13 238.191 168.202  14
  10  -1  13 85.3779 54.2466   6
  10   1 -13 112.588 185.838  14
  10   2   0 1509.23 459.501   1
 -10   2   0 1437.14 400.276   5
  10  -2   0 1476.73 405.902   1
 -10   2   0 1078.37 458.942  12
 -10   2   0 1237.91 243.576   2
 -10   2   0 1301.63 378.642  19
 -10  -2   0 319.710 180.734  19
  10   2   0 1753.74 434.195  18
 -10   2   0 1318.03 386.787   4
  10   2   0 1783.91 468.772   8
  10  -2   0 1339.50 375.273   8
 -10  -2   0 398.125 247.348  17
  10  -2   0 1589.52 349.387   6
  10   2   0 1845.16 592.131  14
  10  -2   0 1554.31 428.830  14
  10   2   0 311.925 203.272   6
  10  -2   1 25.0276 27.3033   6
  10  -2  -1 48.5365 73.7612   6
  10  -2  -1 71.1661 110.347   1
 -10  -2   1 39.2316 45.1138  12
 -10   2  -1 68.4531 91.2423  12
 -10  -2   1 187.300 209.183   5
  10   2  -1 321.815 240.081  11
 -10  -2   1-319.007 304.591   2
 -10   2  -1 24.4925 7.50251   5
 -10   2   1 43.5938 44.4589   5
 -10  -2  -1-21.4324 93.5050  19
 -10  -2   1 123.281 137.952  19
 -10   2  -1-102.551 137.257  19
 -10   2   1 18.2444 94.8994  19
  10   2   1 133.448 147.207  18
  10   2  -1 8.40096 84.5580  18
 -10  -2  -1-195.323 327.313   4
 -10  -2   1-41.5803 123.738   4
  10   2   1 5.93392 88.5771   8
  10   2  -1 145.809 145.349   8
 -10  -2  -1 110.481 165.981  17
 -10  -2   1-4.50207 106.315  17
 -10   2  -1 42.2995 47.3477   2
  10  -2   1 29.9866 82.3070   8
 -10   2  -1 8.04210 52.9636   4
  10  -2  -1 47.2620 87.2688   8
 -10   2   1 58.5365 104.289   4
  10   2   1 152.884 148.375   1
 -10   2   1 38.2116 67.1091   2
  10  -2   1 50.8584 71.0108   1
  10   2   1 90.3755 131.807   6
  10   2  -1 0.14939 81.0989   6
  10   2  -1 28.8013 62.1605   1
  10   2   1 47.9701 41.5777  14
  10   2  -1 136.939 171.090  14
  10  -2   1 99.2765 99.6282  14
  10  -2  -1 138.756 156.200  14
  10  -2   2 234.001 130.994   6
  10  -2  -2 341.908 187.556   6
 -10  -2   2 166.719 109.103  12
 -10   2  -2 143.359 148.974  12
 -10   2   2 324.597 202.310   5
  10   2  -2 422.731 227.067  11
 -10  -2   2 185.192 173.305   5
  10  -2  -2 72.0187 133.916   1
 -10   2  -2 260.918 184.122   5
 -10  -2   2 41.3304 112.211   2
 -10  -2  -2-97.0210 191.662  19
 -10  -2   2 123.525 169.823  19
  10   2  -2 910.864 343.215   9
 -10   2  -2 239.416 160.943  19
 -10   2   2 254.239 182.386  19
  10   2   2 341.922 199.596  18
  10   2  -2 352.582 214.543  18
 -10  -2   2 45.7922 43.6536   4
 -10   2  -2 238.043 96.5894   2
  10   2   2 239.093 175.461   8
 -10  -2  -2 9.18280 34.7938  17
  10   2  -2 371.952 217.158   8
 -10  -2   2 65.0432 29.9460  17
  10  -2   2 160.633 130.078   1
  10  -2   2 217.478 145.885   8
 -10   2  -2 161.056 143.148   4
  10   2   2 335.279 259.348   1
  10  -2  -2 243.726 185.211   8
 -10   2   2 288.646 200.461   4
 -10   2   2 276.266 136.678   2
  10   2   2 70.5897 141.724   6
  10   2  -2 32.3249 31.9668   6
  10   2   2 197.174 229.333  14
  10   2  -2 197.490 162.695  14
  10  -2   2 288.697 184.772  14
  10  -2  -2 273.887 209.353  14
  10   2  -2 330.829 212.168   1
  10  -2   3 15.4080 57.1092   6
  10   2  -3 95.1975 121.483  13
  10   2  -3 101.569 142.408   1
  10  -2  -3 70.7253 99.7844   6
 -10   2  -3 117.683 146.437  12
 -10  -2   3 30.7399 12.2513  12
  10   2  -3 153.476 144.084  11
 -10  -2   3-8.61735 98.5979   5
 -10   2  -3 38.8843 58.4326   5
 -10   2  -3 147.877 106.970  20
 -10   2  -3 46.0929 55.6685  10
 -10   2   3 92.7785 139.383   5
 -10  -2  -3 23.3106 164.218  19
 -10  -2   3-23.7709 57.4202  19
 -10  -2   3-20.6231 59.3800   2
 -10   2  -3 47.5087 66.7874  19
  10   2  -3 210.474 214.465   9
 -10   2   3 68.6480 109.604  19
 -10   2  -3 104.633 71.7575   2
  10   2   3 38.5152 92.2310  18
  10  -2   3 39.9168 105.863   1
  10  -2  -3 31.4429 59.1754   1
  10   2  -3-43.7772 120.476  18
 -10  -2   3-0.84855 95.5049   4
  10   2   3 167.261 164.526   8
  10   2   3-57.1384 154.032   1
 -10  -2  -3 40.7475 14.9539  17
  10   2  -3 36.5918 27.7679   8
 -10  -2   3 72.3832 135.963  17
 -10   2  -3-39.3367 110.223   4
  10  -2   3 32.4159 79.0817   8
  10  -2  -3 18.3121 57.9876   8
 -10   2   3 49.7475 67.8173   4
  10   2   3-51.2031 27.5447  16
  10   2   3 16.9237 44.1632   6
  10   2  -3-25.1542 107.613   6
 -10   2   3 63.7841 96.5498   2
  10   2   3-48.3479 113.729  14
 -10   2  -3-59.6297 122.202   3
  10   2  -3 11.7654 99.9833  14
  10  -2   3-13.6599 48.8109  14
  10  -2  -3-22.1732 84.9392  14
  10  -2   4 214.360 143.453   6
  10   2  -4 65.1306 52.9146  13
  10   2  -4 125.248 136.627   1
  10  -2  -4 85.3425 73.4921   6
 -10   2  -4 2.46827 89.3623  12
  10   2  -4 230.027 183.480  11
 -10  -2   4 256.694 198.303   5
 -10   2  -4 138.585 147.766   5
 -10   2  -4 153.520 106.128  20
  10  -2   4 156.556 137.697   1
 -10  -2  -4-126.296 166.052  19
 -10   2  -4-85.8785 297.632  10
 -10   2   4 138.657 133.962   5
 -10  -2   4 69.7496 128.710  19
 -10   2  -4 105.481 107.851  19
  10   2  -4 141.043 146.499   9
 -10   2   4 154.589 177.517  19
 -10  -2   4 21.5684 32.1816   2
  10   2   4 87.3831 122.611  18
  10   2   4 37.3124 67.5953   1
  10   2  -4 165.285 153.196  18
 -10  -2   4 95.4902 91.2284   4
  10   2   4 91.7990 174.634   8
 -10  -2  -4-52.9514 63.6614  17
  10   2  -4 39.0193 43.5479   8
 -10   2  -4 22.8820 62.4606   4
 -10  -2   4 91.5252 158.706  17
  10  -2   4 24.1359 60.0306   8
  10  -2  -4 99.7331 178.418   1
  10  -2  -4-234.047 325.776   8
 -10   2   4 70.0539 138.711   4
  10   2   4 67.7928 10.8311  16
  10   2   4 20.2079 78.4112   6
  10   2  -4-41.5227 41.5502   6
  10   2   4 97.8813 141.588  14
 -10   2   4 187.716 168.435   2
  10   2  -4 98.2784 169.725  14
  10  -2   4 121.983 104.339  14
 -10   2  -4 18.9944 42.8690   3
  10  -2  -4 84.4120 142.224  14
  10   2  -5-8.66840 35.1504  13
  10  -2  -5 16.3581 168.427   6
 -10   2  -5 88.9196 127.484  12
  10   2  -5 146.648 196.010   1
  10  -2   5 15.7611 71.2165   1
  10   2  -5 99.4014 160.943  11
 -10  -2   5 14.9449 89.2819   5
 -10   2  -5 111.607 145.238   5
 -10   2  -5-23.0815 32.3321  20
 -10  -2  -5-49.7504 120.928  19
 -10   2   5 76.6778 142.682   5
 -10  -2   5-38.4505 81.5940  19
 -10   2  -5 46.3361 143.730  19
  10   2   5 68.9178 113.037   1
  10   2  -5-190.803 168.994   9
 -10   2   5-51.5338 113.754  19
  10   2   5-42.5939 90.0571  18
 -10  -2   5 51.2130 89.0476   2
  10   2  -5-63.9625 86.2657  18
  10   2   5-52.6997 86.0574   8
 -10  -2   5-2.41818 134.016   4
 -10  -2  -5 217.282 208.951  17
 -10   2  -5 29.2769 43.2957   4
  10  -2   5-63.5031 118.071   8
 -10  -2   5 11.9949 105.417  17
  10   2  -5-76.8224 110.752   8
 -10   2   5-57.6242 98.6593   4
  10   2   5 95.8477 158.835  16
  10   2   5-126.621 266.219   6
  10   2  -5 0.92044 50.7956   6
  10  -2  -5-34.1434 70.4547   1
  10   2   5-26.6478 96.8027  14
 -10   2   5-18.6131 65.1272   2
  10   2  -5 17.2744 75.7369  14
  10  -2   5 52.8917 128.212  14
  10  -2  -5-10.8009 112.011  14
 -10   2  -5-66.3811 145.471   3
  10  -2   5 10.3586 37.8226   6
 -10   2  -6 41.5652 71.2829   3
  10  -2   6 359.737 206.875   1
  10   2  -6 312.299 141.307  13
  10  -2  -6 229.111 201.949   1
 -10   2  -6 153.257 141.108  12
  10   2  -6 227.504 172.338   1
  10   2  -6 288.907 232.280  11
 -10   2  -6 128.648 95.2514   5
 -10  -2   6 130.812 167.378   5
 -10   2  -6 259.671 149.567  20
  10   2   6-140.986 261.796   1
 -10  -2  -6 129.268 213.390  19
 -10   2   6 299.191 257.135   5
 -10   2  -6 132.098 140.445  19
 -10  -2   6 67.7141 40.5627  19
  10   2  -6 53.1616 74.8622   9
 -10   2   6 77.6479 126.022  19
  10   2   6 250.644 162.333  18
  10   2  -6 320.796 202.419  18
 -10  -2   6 103.383 118.583   2
  10   2   6 225.300 214.222   8
 -10  -2  -6 78.9431 58.5563  17
 -10  -2   6 223.594 204.550   4
 -10   2  -6 167.851 119.328   4
  10  -2   6 310.818 190.767   8
 -10  -2   6 115.534 164.424  17
  10   2  -6 375.365 188.539   8
 -10   2   6 195.213 169.165   4
 -10   2  -6 377.000 326.992   7
  10   2   6 260.645 164.631  16
 -10   2  -6 245.283 306.595  15
  10   2   6-143.433 228.128   6
  10   2  -6-16.3694 68.6076   6
  10   2   6 151.139 182.555  14
  10   2  -6 243.480 219.047  14
 -10   2   6 465.234 279.455   2
  10  -2   6 337.899 192.714  14
  10  -2  -6 162.647 201.759  14
  10  -2   6 307.782 176.328   6
 -10   2  -7-80.5417 138.243   3
  10   2  -7 74.7245 90.6804  13
 -10   2  -7 8.51444 90.6675  12
 -10   2  -7-57.9917 126.192   5
  10   2  -7-183.798 191.342  11
 -10  -2   7 7.30192 84.2362   5
  10  -2  -7 59.3404 175.338   1
  10   2  -7-15.7481 90.2108   1
 -10   2  -7 51.3587 29.3930  20
 -10  -2  -7-79.4970 201.328  19
 -10   2   7 121.077 190.823   5
 -10   2  -7 80.9574 122.345  19
 -10  -2   7-48.3060 54.1885  19
  10   2  -7-39.1057 66.9358   9
  10   2   7-68.0273 179.365  18
  10   2  -7 40.5828 131.292  18
  10   2   7 97.3325 219.949   8
 -10  -2   7-23.0827 44.7936   2
 -10  -2  -7-57.4870 123.102  17
 -10   2  -7 17.2967 94.5231   4
 -10  -2   7 19.8763 126.841   4
  10  -2   7 102.100 141.675   8
 -10  -2   7 41.4224 99.6525  17
  10   2  -7-83.2093 104.082   8
  10  -2   7-188.504 368.342  16
 -10   2  -7 86.5051 202.040   7
 -10   2   7-59.8093 152.687   4
  10   2   7 62.3474 178.818  16
 -10   2  -7 127.030 224.378  15
  10   2   7-277.995 360.785   6
  10   2   7-13.7340 120.795  14
  10   2  -7-19.8833 111.061  14
  10  -2   7 248.399 231.724   1
  10  -2   7-30.2322 76.0902  14
 -10   2   7-18.8605 82.8865   2
  10  -2   7-0.61829 60.7363   6
  10  -2  -7 101.376 153.658  14
 -10   2  -8 92.4304 113.566   3
 -10   2  -8 250.449 199.212  12
 -10   2  -8 45.5209 152.892   5
  10   2  -8 380.056 259.638  11
 -10  -2   8 153.458 141.759   5
 -10   2  -8 67.3254 84.9724  20
 -10  -2  -8 109.900 232.351  19
  10   2  -8 343.318 233.663   1
 -10   2  -8 97.4143 145.160  19
 -10   2   8 243.205 218.559   5
 -10  -2   8 177.298 142.064  19
  10  -2  -8 137.331 79.0045   1
  10   2  -8-24.2006 134.098   9
  10   2  -8 299.445 240.162  18
  10   2   8 241.374 240.022   8
 -10   2  -8-45.7611 134.768   4
 -10  -2  -8-34.6402 91.0526  17
 -10  -2   8 181.516 143.305   2
 -10  -2   8 134.475 125.575   4
  10  -2   8 215.127 191.455   8
 -10  -2   8 34.3127 32.6243  17
  10   2  -8 204.439 159.812   8
 -10  -2   8 174.597 80.7029  16
  10  -2   8 423.965 277.139  16
 -10   2  -8 87.2096 24.5818   7
 -10   2   8 3.38991 165.811   4
  10   2   8 411.493 237.690  16
  10  -2   8 508.129 243.014   1
 -10   2  -8 138.926 146.463  15
  10   2   8-227.003 358.636   6
  10   2   8 210.364 141.830  14
  10   2  -8 233.327 249.663  14
  10  -2   8 160.109 169.086  14
 -10   2   8 447.749 307.476   2
  10  -2   8 308.524 179.097   6
  10  -2  -8 75.0862 228.771  14
 -10   2  -9 16.1532 110.202   3
 -10   2  -9 81.1075 170.412  12
  10   2  -9-38.3431 191.298  11
 -10  -2   9 209.513 165.041   5
 -10   2  -9-179.135 214.014  20
 -10  -2  -9 213.145 270.655  19
 -10   2  -9 180.907 159.638  19
 -10  -2   9 48.6518 101.174  19
  10   2  -9 143.034 188.073   1
  10   2  -9-488.261 445.460   9
  10   2  -9 2.51706 28.7591  18
  10   2   9 119.489 250.341   8
 -10   2  -9 59.2172 78.7049   4
 -10  -2   9-15.9459 32.2449   2
  10  -2   9 33.0106 74.1986   8
 -10  -2   9 176.972 200.315   4
 -10  -2   9-30.8880 137.877  17
  10  -2   9 15.6970 104.327   1
  10   2  -9-71.0582 247.074   8
  10  -2   9-4.82539 46.7305  16
 -10  -2   9 18.9313 42.3943  16
 -10   2  -9 50.6349 103.821   7
  10   2   9 70.5203 77.1410  16
 -10   2  -9-125.898 187.889  15
  10  -2   9 46.2697 96.4164  14
  10   2  -9 180.631 190.605  14
  10  -2   9 141.688 160.061   6
 -10   2 -10 355.815 346.517  12
 -10   2 -10 109.960 188.927   3
  10   2 -10 87.5765 130.021  11
 -10  -2  10-90.7411 134.547   5
 -10   2 -10-512.960 299.532  20
 -10   2 -10 31.2409 129.809  19
 -10  -2  10 80.0332 24.6975  19
  10   2 -10-572.249 689.542   9
  10   2 -10-6.37740 103.546   1
 -10   2 -10-61.2207 114.203   4
  10   2 -10-20.4618 85.9414  18
  10   2  10-62.2057 170.455   8
  10  -2  10 184.877 120.507   1
  10  -2  10 262.748 213.697   8
 -10  -2  10 62.6865 135.316   2
 -10  -2  10 148.084 186.495   4
 -10  -2  10 25.3610 67.2083  17
  10  -2  10-73.6044 102.177  16
 -10  -2  10 43.9049 77.1497  16
 -10   2 -10-191.528 331.232   7
  10   2  10 173.568 202.467  16
 -10   2 -10-38.8403 167.431  15
  10  -2  10 102.462 167.950  14
  10   2 -10 127.781 146.708  14
  10  -2  10 229.278 250.174   6
 -10   2 -11-193.695 306.806   3
  10   2 -11-69.6043 141.598  11
 -10  -2  11 13.4438 122.900   5
 -10  -2  11 37.1408 91.3735  19
 -10   2 -11-484.845 341.449   4
  10   2 -11-239.970 258.491  18
  10   2  11-46.9199 103.255   8
  10   2 -11-37.8736 26.7581   1
 -10  -2  11-15.7564 112.785   2
 -10  -2  11 59.0227 114.182   4
 -10  -2  11 38.5119 58.2666  17
 -10   2 -11-869.387 435.734   7
 -10  -2  11-37.9167 32.3250  16
 -10   2 -11-606.916 548.273  15
  10   2 -11-17.4531 80.6222  14
   2  10 -12 164.113 316.221  13
  10   2 -12 256.450 223.813  11
 -10  -2  12 508.101 335.005   5
 -10   2 -12 771.128 482.060  19
 -10  -2  12 111.573 181.435  19
  10  -2  12 1885.20 670.733   8
  10   2  12 284.088 110.194   8
  10   2 -12 357.645 295.516  18
  10   2 -12 297.488 247.635   1
 -10  -2  12 474.861 273.878   4
 -10  -2  12 604.313 328.324   2
 -10  -2  12 314.901 303.380  17
  10  -2  12 958.903 433.835  16
 -10  -2  12 605.483 258.878  16
 -10   2 -12-600.432 717.704  15
  10  -2  12 1229.03 472.273  14
  10   2 -12 209.016 162.363  14
  10  -2  12 1248.70 482.583   6
   2  10 -13-229.941 339.421  13
   2 -10  13 304.301 260.196   6
  -2 -10  13-57.5119 50.8173   6
  10   2 -13-72.2330 264.700  11
 -10  -2  13-23.4139 68.1132   5
 -10   2 -13 35.7600 102.598  19
   2  10 -13-42.7539 53.8325  18
  10   2 -13-104.272 243.276  18
  -2 -10  13 51.3468 255.986  17
  10  -2  13 60.6009 113.971   8
  10   2 -13-36.0909 136.521   1
 -10  -2  13-7.09631 93.3963   4
 -10  -2  13 165.232 211.685  17
 -10  -2  13 61.3785 79.3798   2
  10  -2  13-61.4984 208.771  16
 -10  -2  13 60.5707 6.30292  16
  -2  10 -13-191.745 242.327   3
  10  -2  13-57.4423 122.801  14
  10  -2  13 2.24047 134.211   6
  10   2 -13 28.1135 30.8415  14
  10  -3   0 72.6266 78.0727   6
 -10   3   0 30.4326 131.395   5
 -10  -3   0 12.4087 100.167  19
 -10   3   0-28.1409 84.9951  19
  10   3   0 135.091 158.497  18
  10  -3   0 26.9630 135.727   1
  10   3   0 10.3467 50.6260   8
 -10  -3   0 7.25807 118.832  17
  10   3   0 4.48210 125.294   1
  10  -3   0 27.3056 33.9789   8
 -10   3   0 46.6171 77.4398   4
  10   3   0 7.34453 105.796  14
 -10   3   0 45.6738 72.5628   2
  10  -3   0 28.4437 16.8173  14
  10   3   1 2953.83 691.113   1
  10   3  -1 2453.26 647.284   1
 -10   3  -1 2146.79 628.797  12
 -10   3  -1 2259.57 507.137   5
 -10   3   1 2845.94 595.430   5
  10  -3   1 2177.24 489.455   1
  10  -3  -1 1657.08 456.992   1
 -10   3  -1 2510.08 357.839   2
 -10   3   1 3354.33 598.437   2
 -10   3  -1 2360.46 512.874  19
 -10   3   1 2546.91 538.462  19
 -10  -3   1 253.027 165.666  19
  10   3   1 2501.20 535.114  18
  10   3  -1 2735.63 567.547  18
 -10   3  -1 2319.63 525.272   4
  10   3   1 2435.54 602.607   8
  10   3  -1 2886.84 604.839   8
 -10   3   1 2666.62 570.177   4
  10  -3   1 1924.08 487.139   8
  10  -3  -1 1502.32 472.461   8
 -10  -3  -1 88.3226 103.617  17
 -10  -3   1 425.226 203.613  17
  10  -3   1 2315.65 454.248   6
  10  -3  -1 2172.94 489.643   6
  10   3   1 2123.31 696.318  14
  10   3  -1 2426.25 764.895  14
  10  -3   1 2101.83 498.053  14
  10  -3  -1 1830.97 486.904  14
  10  -3   2 120.748 133.500   1
  10  -3   2 109.056 91.9773   6
  10  -3  -2 31.3393 19.1871   6
 -10   3  -2 32.3255 57.9784  12
 -10   3  -2 197.342 149.911   5
 -10  -3  -2-111.317 185.853  19
 -10  -3   2-40.6594 73.0696  19
 -10   3   2 157.893 191.881   5
 -10   3  -2 113.823 110.239  19
 -10   3   2 17.4939 54.1274  19
  10   3   2 82.4143 78.7782  18
  10   3  -2 230.091 172.031  18
  10   3   2 61.0159 93.4481   1
  10   3   2 21.0314 64.1367   8
 -10  -3  -2 64.3738 128.185  17
  10   3  -2 94.8836 144.147   8
 -10  -3   2 116.355 174.686  17
  10  -3   2 72.0672 85.3429   8
 -10   3  -2 74.7499 87.6531   4
  10  -3  -2-96.2252 285.676   8
 -10   3   2 53.4281 110.497   4
 -10   3  -2 82.6681 61.5804   2
  10   3  -2 81.8588 86.4234   1
  10   3   2-94.3940 230.471  14
  10   3  -2 159.184 189.317  14
  10  -3   2 155.031 160.302  14
 -10   3   2 78.1196 35.7627   2
  10  -3  -2 47.8369 101.233  14
  10  -3  -2 91.3490 141.279   1
  10  -3   3 405.538 207.331   6
  10  -3  -3 260.335 244.096   6
 -10  -3   3 133.269 76.4250  12
 -10   3  -3 80.4251 112.381  12
  10  -3  -3 148.458 141.828   1
 -10  -3   3-269.226 252.502   2
 -10   3  -3 369.302 210.862   5
 -10  -3  -3 85.9698 236.392  19
 -10  -3   3 234.747 194.653  19
 -10   3   3 366.387 239.924   5
 -10   3  -3 161.309 144.560  19
  10   3   3 325.697 246.837   1
 -10   3   3 376.495 216.757  19
  10   3   3 298.077 181.475  18
  10   3  -3 410.286 242.042  18
 -10  -3   3-630.145 345.802   4
  10   3   3 334.716 241.953   8
 -10  -3  -3-61.6730 40.2769  17
  10   3  -3 374.838 207.312   8
 -10  -3   3 138.905 177.511  17
  10  -3   3 208.178 143.126   8
 -10   3  -3 206.155 74.5383   2
 -10   3  -3 232.430 158.915   4
 -10   3   3 285.389 175.842   4
  10   3  -3 300.578 215.495   1
  10  -3   3 259.640 118.396   1
  10   3   3 223.469 223.785  14
  10   3  -3 30.2943 129.407  14
  10  -3   3 306.018 188.161  14
  10  -3  -3 199.166 182.525  14
 -10   3   3 578.823 317.060   2
  10   3  -4 136.665 98.6722  13
  10  -3   4 52.9367 5.32489   6
 -10  -3   4 28.9285 7.59571  12
 -10   3  -4-57.9180 125.696  12
 -10  -3   4 145.130 221.352   5
  10   3  -4 312.650 231.191  11
 -10   3  -4 215.715 181.301   5
  10   3  -4 353.335 212.929  10
  10   3   4-72.3332 278.516   1
 -10  -3  -4-9.37520 132.470  19
 -10  -3   4 14.1014 81.7677   2
 -10  -3   4 43.4287 73.9625  19
 -10   3   4 161.926 173.222   5
 -10   3  -4 28.0017 19.3369  19
 -10   3   4-24.2771 134.060  19
  10   3   4 71.7508 51.9716  18
  10   3  -4 72.2654 66.8361  18
 -10  -3   4-80.2114 226.509   4
  10   3   4 196.151 192.148   8
 -10   3  -4 80.2252 55.3747   2
 -10  -3  -4-74.7981 136.564  17
  10  -3  -4 131.690 187.759   1
  10   3  -4 122.649 110.084   8
 -10  -3   4-58.0973 146.953  17
  10  -3   4 159.968 123.173   1
  10  -3   4 90.6466 78.1725   8
 -10   3  -4 84.5925 99.8992   4
 -10   3   4-133.752 209.753   4
  10   3   4 159.806 196.838  14
  10   3  -4 220.522 219.964   1
  10   3  -4 117.670 156.624  14
 -10   3  -4-180.194 173.469   3
  10  -3   4 39.2588 102.000  14
  10  -3  -4-63.8201 134.330  14
  10  -3   5 58.1622 108.125   6
  10   3  -5-25.7585 29.7026  13
 -10   3  -5 0.88883 45.7170  12
 -10  -3   5 50.0503 76.9919   5
  10   3  -5 200.958 215.442  11
  10   3   5-388.546 404.162   1
 -10   3  -5 80.9226 99.7590   5
  10   3  -5 111.215 163.637  10
 -10  -3  -5-56.5271 78.2016  19
 -10  -3   5 161.023 126.051  19
 -10  -3   5 115.412 115.086   2
 -10   3   5 20.4062 42.3651   5
 -10   3  -5 41.4273 55.1669  19
  10   3   5-55.0731 153.595  18
  10  -3   5-2.17576 14.6991   1
  10   3  -5-77.4385 93.2466  18
 -10  -3   5-161.318 271.613   4
  10   3   5-39.2049 118.120   8
 -10  -3  -5 28.3041 169.296  17
  10   3  -5 211.458 185.880   8
 -10  -3   5 195.229 200.215  17
 -10   3  -5-27.4385 99.7761   4
  10  -3   5-42.3790 107.670   8
  10  -3  -5 144.845 202.947   1
 -10   3   5-398.815 224.459   4
  10   3  -5-61.8229 111.244  14
 -10   3  -5 21.0053 83.9850   3
  10  -3   5-11.5971 52.2345  14
  10   3  -5-9.87608 119.376   1
  10  -3  -5 158.885 192.001  14
  10  -3   6 500.098 239.929   6
  10   3  -6 622.115 340.199   1
  10   3  -6 467.707 196.696  13
 -10   3  -6 463.876 257.663  12
  10   3  -6 653.851 314.855  11
 -10  -3   6 158.972 150.229   5
 -10   3  -6 304.430 190.727   5
 -10   3  -6 233.332 126.095  20
  10  -3   6 549.369 222.402   1
 -10   3  -6 532.929 207.301  10
  10   3  -6 476.311 290.543  10
 -10  -3   6 280.838 226.402  19
  10   3  -6 1524.81 552.246   9
 -10   3  -6 196.351 161.491  19
 -10  -3   6 204.813 159.974   2
  10   3  -6 422.949 267.558  18
 -10  -3   6 130.154 76.2370   4
  10   3   6 201.494 245.010   8
 -10  -3   6 200.348 190.665  17
  10   3  -6 493.176 217.264   8
 -10   3  -6 284.366 186.432   4
  10  -3   6 554.799 263.922   8
  10   3  -6 460.137 360.873  14
  10  -3   6 311.448 205.922  14
 -10   3  -6 184.040 153.165   3
  10   3  -7 44.2994 77.6392  13
  10   3  -7 119.438 257.842   1
 -10   3  -7 74.9703 104.682  12
  10  -3   7 180.384 140.816   1
  10   3  -7 60.8228 195.243  11
 -10  -3   7 78.4613 23.5513   5
 -10   3  -7 63.2769 41.5106   5
 -10   3  -7-18.7408 46.2104  20
 -10   3  -7 15.8238 125.411  10
  10   3  -7 126.042 259.053  10
 -10  -3   7 61.6473 101.717  19
 -10   3  -7 2.01292 69.8177  19
  10   3  -7 371.842 322.342   9
 -10  -3   7 65.3796 93.1180   2
  10   3  -7 14.9231 19.6746  18
  10   3   7 157.652 230.035   8
 -10  -3   7 144.639 120.163   4
 -10   3  -7 14.1588 52.2204   4
 -10  -3   7 179.336 220.450  17
  10  -3   7 17.6986 101.230   8
  10   3  -7-74.1773 100.543   8
  10   3  -7 355.930 378.418  14
  10  -3   7-5.34282 30.5228  14
 -10   3  -7 30.9360 96.9708   3
  10  -3   7 20.8600 48.0748   6
  10  -3   8 60.6579 84.7265   1
 -10   3  -8-109.036 155.248   3
  10   3  -8 44.1319 73.2593  13
  10   3  -8 151.197 210.285   1
 -10   3  -8-114.142 144.303  12
  10   3  -8 134.671 198.509  11
 -10  -3   8 8.08366 146.811   5
 -10   3  -8 31.2289 113.432   5
 -10   3  -8 62.1218 98.1616  20
 -10   3  -8-67.0193 144.059  10
  10   3  -8-121.934 258.884  10
 -10   3  -8 126.583 73.2763  19
 -10  -3   8 46.1565 133.793  19
  10   3  -8 586.998 400.509   9
 -10  -3   8-90.4871 123.395   2
  10   3  -8 60.3497 78.5850  18
  10   3   8-5.97929 61.3304   8
 -10  -3   8 6.41677 112.596   4
 -10   3  -8 46.1053 39.4408   4
 -10  -3   8 88.5149 186.597  17
  10  -3   8 23.4989 18.7250   8
  10   3  -8-4.96187 30.6441   8
 -10   3  -8 199.765 339.396  15
  10   3  -8 153.026 247.819  14
  10  -3   8-5.37913 55.6980  14
  10  -3   8 117.350 149.137   6
 -10   3  -9 78.2241 148.681   3
  10   3  -9 168.039 149.100  13
 -10   3  -9-39.2109 101.851  12
  10   3  -9 131.951 260.886   1
 -10   3  -9 244.156 185.173   5
  10   3  -9 107.281 126.424  11
 -10  -3   9 20.9860 45.4959   5
 -10   3  -9 187.716 178.549  20
 -10   3  -9 52.9380 146.552  10
  10   3  -9 167.775 270.118  10
 -10   3  -9 47.8823 145.760  19
 -10  -3   9 195.437 169.599  19
  10   3  -9 317.601 207.846   9
  10   3  -9 130.695 109.316  18
 -10  -3   9 7.56611 33.7198   2
  10   3   9 159.321 201.363   8
 -10  -3   9 149.180 179.082   4
 -10   3  -9 102.249 154.267   4
  10  -3   9 43.3650 87.4004   8
 -10  -3   9 160.082 178.007  17
  10   3  -9 152.790 150.359   8
  10  -3   9-225.206 436.856  16
 -10   3  -9 349.332 339.921   7
 -10   3  -9 117.696 217.992  15
  10  -3   9 115.326 126.589   1
  10   3  -9 50.6813 210.980  14
  10  -3   9 42.0357 90.9727  14
  10  -3   9-85.1592 99.1906   6
 -10   3 -10-7.92141 522.143   3
  10   3 -10 49.9031 125.022  13
 -10   3 -10 21.5080 381.199   5
  10   3 -10 204.443 129.658   1
  10   3 -10-3.14863 179.162  11
 -10  -3  10-25.8169 68.2442   5
 -10   3 -10 356.446 414.233  20
 -10   3 -10 35.8399 720.748  10
  10   3 -10-484.748 497.820  10
 -10  -3  10-69.8567 86.7263  19
  10   3 -10-358.030 287.885   9
  10   3 -10-40.8921 66.9363  18
 -10  -3  10-9.05500 66.3845   2
 -10   3 -10-273.522 141.323   4
 -10  -3  10 54.4690 151.129   4
  10  -3  10 383.923 394.065   8
 -10  -3  10 71.2986 149.274  17
  10   3 -10-67.6154 216.884   8
 -10  -3  10-140.294 194.678  16
  10  -3  10-14.6112 335.545  16
  10  -3  10 364.266 487.673   1
 -10   3 -10 129.564 359.041   7
  10  -3  10 708.824 528.243   6
 -10   3 -10 10.2481 358.294  15
  10   3 -10 56.9457 222.342  14
  10  -3  10 487.470 430.954  14
 -10   3 -11 1381.68 610.497   3
  10   3 -11 608.523 257.222  13
  10   3 -11 845.518 413.114  11
  10   3 -11 811.398 372.733   1
 -10  -3  11 672.976 372.428   5
  10   3 -11-1169.03 958.978  10
 -10  -3  11 613.261 287.599  19
  10   3 -11 697.911 435.214   9
  10  -3  11 4504.97 842.412   8
  10   3 -11 1036.78 419.345  18
 -10   3 -11 1326.27 574.903   4
 -10  -3  11 758.395 335.540   2
 -10  -3  11 577.478 372.708   4
  10  -3  11 2170.90 750.741   1
 -10  -3  11 827.432 435.277  17
 -10  -3  11 646.080 249.378  16
  10  -3  11 1848.99 615.551  16
 -10   3 -11 1959.42 780.420   7
 -10   3 -11 1157.03 629.580  15
  10   3 -11 541.991 377.060  14
   3  10 -12-357.926 395.863  13
 -10   3 -12 29.0437 180.665   3
 -10   3 -12 33.5582 202.814  12
  10   3 -12 68.3265 201.772  11
 -10  -3  12 160.560 187.451   5
  10   3 -12 22.7486 133.510   1
 -10   3 -12 159.498 186.436  20
 -10   3 -12-614.202 720.166  10
 -10   3 -12-44.0563 107.782  19
 -10  -3  12-20.8539 19.1948  19
  10  -3  12 185.369 157.474   1
  10   3 -12-657.270 613.159   9
   3  10 -12 15.4508 114.362  18
 -10   3 -12-88.2725 229.030   4
  10   3 -12-4.73002 121.845  18
  -3 -10  12 104.618 155.309  17
 -10  -3  12 88.2642 182.224   4
 -10  -3  12-53.6732 91.8635   2
  10  -3  12 69.7792 142.590   8
 -10  -3  12 291.144 312.385  17
  10  -3  12-14.4432 49.7102  16
 -10  -3  12 145.707 125.813  16
 -10   3 -12 74.4350 93.2875   7
 -10   3 -12-3.83854 175.558  15
  10   3 -12 130.508 251.816  14
  10  -3  12-2.48292 100.535  14
  10  -3  12 50.5128 131.073   6
  10   4   0 3560.97 783.899   1
 -10   4   0 3607.17 683.922   5
  10  -4   0 1791.51 486.827   1
 -10   4   0 3367.74 651.703  19
 -10  -4   0 85.5910 209.063  19
  10   4   0 2921.49 605.443  18
  10   4   0 2860.56 632.767   8
 -10   4   0 3478.32 675.546   4
  10  -4   0 1500.07 483.020   8
  10  -4   0 2321.04 659.803   6
  10  -4   0 1872.59 497.605  14
  10  -4   1 389.340 246.963   6
  10  -4  -1 293.624 306.838   6
 -10  -4  -1-130.734 102.156  19
 -10  -4   1-35.0433 87.6810  19
 -10   4  -1 448.101 246.638   5
 -10   4   1 403.828 237.203   5
  10   4   1 206.325 139.025   1
 -10   4  -1 345.723 203.634  19
 -10   4   1 264.284 158.192  19
  10   4   1 280.565 210.692  18
  10   4  -1 321.624 180.647  18
  10   4  -1 236.240 169.333   1
  10   4   1 198.240 206.460   8
  10   4  -1 475.713 270.709   8
 -10  -4  -1 36.4936 148.361  17
 -10  -4   1-23.5828 112.705  17
  10  -4  -1 245.841 236.945   1
  10  -4   1 187.446 165.202   8
  10  -4  -1-99.9479 417.342   8
 -10   4  -1 415.390 220.382   4
 -10   4   1 279.203 174.354   4
  10   4  -1 235.936 144.567  14
  10  -4   1 153.603 89.3634   1
  10  -4   1 124.578 129.171  14
  10  -4  -1 177.110 131.608  14
  10  -4  -2 699.542 340.041   1
  10   4  -2 1576.38 530.177   1
 -10   4  -2 1907.39 473.765   5
 -10   4   2 1908.44 527.093   5
 -10   4  -2 1435.49 437.073  12
 -10   4  -2 2028.96 390.702   2
  10   4   2 1087.22 398.580   1
 -10   4  -2 1736.03 450.581  19
 -10   4   2 1804.59 457.700  19
 -10  -4   2 0.04551 118.215  19
  10   4  -2 1887.19 492.989  18
  10   4  -2 1978.18 521.116   8
  10   4   2 1311.22 385.764  18
 -10   4  -2 1741.47 475.047   4
  10  -4   2 1174.47 401.985   8
  10   4   2 1095.61 406.766   8
 -10  -4  -2 14.6221 128.874  17
 -10  -4   2 126.114 186.170  17
  10  -4   2 1073.70 367.375   1
 -10   4   2 1590.15 425.132   4
  10  -4   2 1439.12 416.418   6
  10  -4   2 1263.67 413.396  14
  10   4  -2 1192.77 547.965  14
  10  -4  -2 857.085 382.534  14
  10  -4   3 289.091 169.132   6
 -10   4  -3 342.110 202.384  12
  10   4   3-53.8944 323.572   1
 -10   4  -3 531.299 242.887   5
  10  -4   3 283.971 179.625   1
 -10  -4   3 140.636 204.049  19
 -10   4  -3 318.199 198.314  19
  10   4   3 123.455 82.4737  18
  10   4  -3 572.309 249.919  18
  10   4   3 67.8939 97.9275   8
 -10  -4  -3-4.67865 74.2524  17
  10   4  -3 474.860 223.295   8
 -10  -4   3 149.894 219.602  17
  10   4  -3 319.280 263.621   1
  10  -4   3 322.496 185.204   8
 -10   4  -3 427.122 230.387   4
  10   4  -3 155.334 192.934  14
 -10   4  -3 405.433 149.299   2
  10  -4   3 284.027 207.368  14
  10  -4   4 153.787 121.432   6
  10  -4   4 123.101 108.371   1
 -10  -4   4 22.5111 50.4510  12
 -10   4  -4 123.284 125.433  12
 -10   4  -4 169.201 134.473   5
 -10  -4   4 151.135 195.480  19
 -10   4  -4 200.999 128.662  19
  10   4  -4 174.810 186.998  18
  10   4   4 107.773 33.7106   8
 -10  -4  -4 41.1007 84.2326  17
  10   4  -4 171.067 132.642   8
 -10  -4   4 143.493 207.168  17
  10  -4   4 182.717 113.380   8
 -10   4  -4 188.345 146.898   4
  10   4  -4 157.117 205.389   1
 -10   4  -4 122.564 58.1278   2
  10   4  -4 2.64596 72.6003  14
  10  -4   4 178.367 160.819  14
  10   4  -5 795.045 299.913  13
  10  -4   5 947.106 304.150   6
 -10   4  -5 883.237 369.809  12
  10   4  -5 745.818 233.408  20
 -10  -4   5-25.6289 204.189   2
 -10   4  -5 928.579 321.800   5
 -10  -4   5 217.993 173.214  19
 -10   4  -5 664.390 293.055  19
  10   4  -5 1041.69 401.037  18
  10   4   5 531.460 329.925   8
  10   4  -5 1202.15 344.408   8
 -10  -4   5 197.567 226.920  17
  10  -4   5 811.169 289.073   8
 -10   4  -5 723.704 293.639   4
  10   4  -5 1094.54 435.106   1
  10  -4   5 950.400 279.350   1
  10   4  -5 325.629 234.923  14
 -10   4  -5 76.4343 175.555   3
  10  -4   5 617.491 306.615  14
  10  -4   6-66.5884 94.2375   6
  10   4  -6 59.1790 45.3879  13
 -10   4  -6-29.6242 102.372  12
  10   4  -6 210.216 276.394  11
 -10   4  -6-11.6280 34.0207   5
  10   4  -6 55.8288 80.7141  20
 -10  -4   6-37.0675 166.452   2
 -10  -4   6 79.3857 110.767  19
 -10   4  -6-101.847 129.004  19
  10   4  -6-6.70780 109.404  18
  10   4   6 278.322 362.086   8
  10   4  -6-23.6452 98.8556   8
 -10  -4   6-123.959 186.881  17
  10  -4   6-56.8463 93.3793   1
  10  -4   6 10.2879 47.5177   8
 -10   4  -6 140.143 146.582   4
  10   4  -6 83.4660 147.788   1
  10   4  -6 26.7884 140.553  14
 -10   4  -6-44.6760 138.689   3
  10  -4   6-4.36425 41.2171  14
  10  -4   7 434.730 223.174   6
  10   4  -7 575.308 243.623  13
 -10   4  -7 331.629 223.239  12
  10   4  -7 818.567 353.493  11
 -10   4  -7 408.576 207.779   5
  10   4  -7 792.422 368.146  10
  10   4  -7 375.998 230.414  20
 -10  -4   7 284.918 175.991   2
 -10  -4   7 86.6716 22.0941  19
 -10   4  -7 479.569 223.420  19
  10  -4   7 606.081 237.078   1
  10   4  -7 591.294 304.922  18
 -10  -4   7 133.982 98.0189  17
  10   4  -7 631.823 242.133   8
 -10   4  -7 356.006 214.242   4
  10  -4   7 456.651 224.688   8
  10   4  -7 530.969 293.937   1
  10   4  -7 345.190 328.225  14
  10  -4   7 637.306 241.216  14
 -10   4  -7 354.270 248.473   3
  10  -4   8 19.2235 59.6208   6
  10   4  -8 56.0686 102.397  13
 -10   4  -8 9.82873 59.0303  12
 -10  -4   8-72.8898 220.188   5
  10   4  -8 203.782 219.754  11
  10  -4   8 99.0395 113.931   1
 -10   4  -8-47.8578 50.0124   5
  10   4  -8 52.4226 136.844  20
  10   4  -8 146.284 114.864  10
 -10  -4   8 59.5502 100.357  19
 -10   4  -8-7.82796 96.1151  19
 -10  -4   8 19.1501 61.9093   2
  10   4  -8 156.370 195.134  18
 -10  -4   8-44.1879 130.777  17
 -10   4  -8-21.9123 8.03822   4
  10   4  -8 72.2515 48.1468   8
  10  -4   8-46.4048 86.2847   8
  10   4  -8 122.573 135.339  14
  10   4  -8 169.787 194.332   1
  10  -4   8 21.3747 44.6133  14
 -10   4  -8-132.940 178.935   3
  10   4  -9 194.661 156.468  13
  10  -4   9 603.439 315.559   1
 -10   4  -9 546.846 415.098  12
 -10  -4   9 339.329 275.541   5
  10   4  -9 371.887 278.148  11
 -10   4  -9 217.999 210.113   5
 -10   4  -9 96.9607 114.770  20
 -10   4  -9 36.4876 52.6945  10
  10   4  -9-377.302 453.435  20
  10   4  -9 462.418 413.201  10
  10   4  -9 1078.85 558.912   9
 -10  -4   9 95.0364 134.035  19
 -10   4  -9 298.569 288.640  19
 -10  -4   9 159.847 150.576   2
  10   4  -9 260.341 215.649  18
 -10   4  -9 42.8615 131.298   4
 -10  -4   9 64.9778 189.242  17
  10  -4   9 279.639 202.527   8
  10   4  -9 342.268 168.022   8
  10   4  -9 189.664 366.988  14
  10  -4   9 298.685 273.151  14
  10   4  -9 100.667 160.615   1
 -10   4  -9-126.993 337.510   3
  10  -4   9 382.993 272.210   6
  10   4 -10 759.258 437.040   1
  10   4 -10 689.160 250.900  13
 -10  -4  10 599.400 357.083   5
  10   4 -10 1330.88 492.540  11
 -10   4 -10 1025.50 347.654   5
 -10   4 -10 809.208 286.391  20
 -10   4 -10 729.254 254.933  10
  10   4 -10 1316.12 265.851  20
  10   4 -10 1889.56 671.904  10
  10   4 -10 2782.38 752.836   9
 -10  -4  10 314.683 167.874  19
 -10  -4  10 479.833 273.337   2
 -10  -4  10 252.650 167.474   4
  10   4 -10 943.995 391.242  18
 -10   4 -10 1026.72 528.707   4
 -10  -4  10 553.945 351.604  17
  10  -4  10 1117.41 452.320   8
  10   4 -10 760.398 279.125   8
  10  -4  10 1580.09 492.004   6
 -10   4 -10 1321.49 629.299  15
 -10   4 -10 2493.35 827.676   3
  10   4 -10 2335.16 866.360  14
  10  -4  10 1500.37 464.652   1
  10  -4  10 1243.88 397.301  14
 -10   4 -11-111.464 230.076   3
  10   4 -11 267.816 244.896   1
  10   4 -11 290.217 184.145  13
 -10   4 -11-198.496 237.325  12
 -10   4 -11 97.2761 173.546   5
 -10  -4  11 177.361 256.053   5
  10   4 -11 289.295 292.772  11
 -10   4 -11 143.807 115.295  20
 -10   4 -11 188.340 163.244  10
  10   4 -11 45.9646 91.1240  10
 -10   4 -11-45.5135 99.3127  19
  10   4 -11-191.634 368.415   9
 -10  -4  11 93.7271 113.029  19
 -10  -4  11-19.7572 115.375   2
 -10  -4  11-164.669 409.395   4
  10   4 -11 292.781 245.168  18
 -10   4 -11 141.062 137.995   4
 -10  -4  11 234.868 210.186  17
  10  -4  11 258.659 189.708   8
  10  -4  11-726.806 654.642  16
 -10   4 -11 244.119 344.111   7
  10  -4  11 299.376 183.581   1
 -10   4 -11 339.442 311.970  15
  10   4 -11-92.5254 274.501  14
  10  -4  11 200.362 183.489  14
  10  -4  11 100.696 94.9307   6
  10   5   0 206.845 175.397   1
  10   5   0 554.481 295.023  18
  10   5   0 363.505 265.761   8
 -10  -5   0 185.365 255.229  17
  10  -5   1 1250.33 675.769   6
 -10   5  -1 1752.13 500.336   5
  10   5   1 515.458 218.053   1
 -10   5  -1 1708.93 464.556  19
 -10  -5   1 148.601 167.942  19
  10   5  -1 1233.43 443.732   1
  10   5   1 745.997 275.558  18
  10   5  -1 1219.25 412.714  18
 -10   5  -1 1638.48 504.911   4
  10   5   1 820.831 335.073   8
  10   5  -1 798.114 350.685   8
 -10  -5  -1-11.1507 113.742  17
 -10  -5   1 164.601 209.731  17
  10  -5   1 290.265 301.459   8
  10  -5   1 719.051 329.041   1
  10  -5   1 720.805 327.430  14
  10  -5   2 815.929 402.085   6
 -10   5  -2 1449.26 433.739  19
 -10  -5   2 46.9508 188.331  19
 -10   5  -2 1230.63 404.359   5
  10   5  -2 1168.38 459.068   1
  10   5   2 413.818 98.9106  18
  10  -5   2 556.894 275.153   1
  10   5  -2 1094.77 395.429  18
 -10   5  -2 1571.91 485.874   4
  10   5   2 482.546 288.385   8
  10   5  -2 919.071 341.399   8
 -10  -5  -2 13.2709 125.573  17
 -10  -5   2-30.1595 113.287  17
  10  -5   2 369.561 92.0106   8
  10  -5   2 761.271 327.433  14
  10  -5   3 447.922 224.851   1
  10  -5   3 542.618 308.094   6
 -10  -5   3 182.269 172.826  19
 -10   5  -3 694.399 296.032   5
 -10   5  -3 533.014 236.564  19
  10   5  -3 709.530 340.614  18
  10   5  -3 408.897 243.055   1
  10   5  -3 485.788 269.347   8
 -10  -5   3-66.2958 125.430  17
  10  -5   3 310.466 215.132   8
 -10   5  -3 652.341 310.443   4
  10  -5   3 463.246 258.608  14
  10  -5   4 753.469 363.597   6
 -10   5  -4 932.644 382.886  12
 -10   5  -4 1173.33 385.901  19
 -10  -5   4-68.2665 75.9385  19
 -10   5  -4 1177.48 380.836   5
  10   5  -4 975.554 395.165  18
  10   5  -4 974.068 430.118   1
  10   5  -4 1185.13 380.225   8
 -10  -5   4 16.1161 84.0026  17
  10  -5   4 821.970 336.380   8
  10  -5   4 831.093 301.928   1
 -10   5  -4 1097.94 393.033   4
  10  -5   4 656.952 284.225  14
  10  -5   5-180.720 195.701   6
 -10   5  -5-18.3131 103.521  12
 -10   5  -5-7.59103 41.1084   5
 -10  -5   5-61.4022 122.971  19
  10  -5   5 39.9881 58.4562   1
 -10   5  -5-61.3451 124.828  19
  10   5  -5-38.4318 46.3703  18
  10   5  -5 7.56385 56.3814   8
  10   5  -5-105.138 133.072   1
 -10  -5   5-14.8268 111.377  17
  10  -5   5 5.62169 16.7757   8
 -10   5  -5-46.2139 48.9839   4
  10  -5   5-17.6127 54.4329  14
  10  -5   6 1272.87 417.512   6
  10  -5   6 1178.27 338.987   1
 -10   5  -6 1487.83 419.450   5
 -10   5  -6 1204.73 451.874  12
 -10   5  -6 1498.05 415.180  19
 -10  -5   6 296.133 265.101  19
  10   5  -6 1870.44 430.557   8
  10   5  -6 1450.83 523.914  18
 -10  -5   6 191.515 279.700  17
  10   5  -6 1355.63 527.636   1
  10  -5   6 1089.90 384.994   8
 -10   5  -6 1347.06 430.369   4
 -10   5  -6 163.386 191.029   3
  10  -5   6 1053.16 367.466  14
  10   5  -6 1296.72 388.810  13
  10   5  -7 55.5556 81.4426  13
  10  -5   7-204.074 160.788   6
 -10   5  -7-19.5928 70.9355  12
 -10  -5   7-180.062 243.582   2
 -10   5  -7 157.446 139.542   5
 -10  -5   7 61.2930 143.609  19
 -10   5  -7-120.926 166.673  19
  10   5  -7 90.4190 130.857  18
  10   5  -7 186.687 138.133   8
 -10  -5   7 181.290 151.402  17
  10  -5   7 59.2372 49.6799   8
 -10   5  -7-95.0675 174.868   4
  10   5  -7-34.2885 136.867   1
  10  -5   7-78.7499 133.272   1
 -10   5  -7-137.361 272.455   3
  10  -5   7 33.1254 47.5405  14
  10   5  -8 1211.19 403.699  13
  10  -5   8 746.263 350.629   6
 -10   5  -8 655.031 305.394  12
  10   5  -8 2038.24 696.559  11
  10   5  -8 957.842 356.594  20
 -10   5  -8 866.543 319.504   5
 -10  -5   8 193.199 140.131   2
 -10  -5   8 418.452 264.510  19
 -10   5  -8 497.946 273.712  19
  10   5  -8 1271.91 346.071   8
  10   5  -8 1060.53 464.086  18
  10  -5   8 1027.27 284.839   1
 -10  -5   8 430.519 357.841  17
 -10   5  -8 986.199 351.831   4
  10  -5   8 922.677 355.314   8
  10   5  -8 823.975 401.953   1
 -10   5  -8 446.100 258.983   3
  10  -5   8 971.603 322.173  14
  10  -5   9 180.255 147.348   6
  10   5  -9 54.9342 193.006  13
 -10   5  -9 908.427 495.232  12
  10   5  -9 234.914 182.806  11
 -10   5  -9 444.745 342.718   5
  10   5  -9 187.891 154.231  20
  10   5  -9 1018.08 509.955  10
  10  -5   9 278.862 158.586   1
 -10  -5   9 156.211 229.034   2
 -10  -5   9-10.1490 82.1762  19
 -10   5  -9 645.042 415.726  19
  10   5  -9 117.510 109.691  18
 -10  -5   9-11.7324 195.926  17
  10   5  -9 244.554 190.684   8
 -10   5  -9 430.223 347.387   4
  10  -5   9-26.2604 104.603   8
  10   5  -9-131.020 168.284   1
  10  -5   9 95.6316 89.3220  14
 -10   5  -9 868.495 573.256   3
  10  -5  10 812.565 338.966   6
  10   5 -10 866.527 323.305  13
  10  -5  10 791.772 246.554   1
 -10   5 -10 289.060 256.308  12
  10   5 -10 987.563 461.980  11
 -10   5 -10 631.751 282.653   5
  10   5 -10 411.286 232.302  20
  10   5 -10 1046.61 493.865  10
 -10  -5  10 514.969 307.364   2
 -10  -5  10 369.184 228.620  19
 -10   5 -10 340.549 276.879  19
  10   5 -10 782.913 362.748  18
 -10  -5  10 521.231 372.501  17
 -10   5 -10 600.692 320.599   4
  10  -5  10 791.702 337.257   8
  10   5 -10 929.226 504.309   1
  10  -5  10 727.018 299.669  14
 -10   5 -10 320.987 281.570   3
  10   6   0 256.504 48.0564  18
 -10  -6   0 279.424 311.919  17
  10   6  -1 456.770 252.394  18
  10   6  -1 612.514 284.320   8
 -10  -6   1 107.858 194.134  17
  10   6  -2-194.706 352.705   1
  10   6  -2 98.7696 134.508  18
  10   6  -2 47.5319 85.8365   8
 -10  -6   2 96.1547 146.541  17
 -10   6  -3 1882.24 534.659   5
  10   6  -3 561.149 227.046   1
 -10  -6   3 115.823 106.700  19
  10   6  -3 1026.61 391.084  18
  10   6  -3 794.607 299.574   8
 -10  -6   3-5.34269 112.320  17
 -10   6  -3 1815.13 616.230   4
  10  -6   4 77.1945 248.677   6
 -10  -6   4-36.1173 52.1054  19
  10   6  -4-90.4632 293.217   1
 -10   6  -4 45.0377 11.1928   5
 -10   6  -4-273.251 259.454  19
  10   6  -4 2.73851 12.3584  18
  10   6  -4 183.468 221.055   8
 -10  -6   4 42.6822 75.5553  17
  10  -6   4 27.4488 72.7958   1
  10  -6   4-337.332 393.479   8
 -10   6  -4 9.68976 120.869   4
  10  -6   4-6.40259 55.3785  14
  10  -6   5 1095.18 486.807   6
  10  -6   5 909.064 317.508   1
 -10   6  -5 1769.70 497.089   5
 -10   6  -5 973.800 426.948  12
 -10   6  -5 1916.35 500.148  19
 -10  -6   5-84.8340 86.3980  19
  10   6  -5 838.207 426.107   1
 -10   6  -5 1791.69 577.499   4
  10   6  -5 1090.66 407.832  18
  10   6  -5 1355.95 398.344   8
 -10  -6   5-16.6774 143.466  17
  10  -6   5 411.783 254.754   8
  10  -6   5 702.555 296.779  14
  10  -6   6 429.193 318.249   6
 -10   6  -6 316.178 286.231  12
 -10   6  -6 833.768 354.561   5
 -10  -6   6 127.915 42.3285  19
 -10   6  -6 367.691 225.057  19
  10   6  -6 750.219 436.563   1
  10   6  -6 665.054 353.452  18
  10   6  -6 697.714 318.459   8
 -10  -6   6 32.3848 129.033  17
  10  -6   6 281.363 185.117   1
  10  -6   6 279.583 255.785   8
 -10   6  -6 486.814 281.788   4
  10  -6   6 350.603 269.027  14
  10   6  -7 771.321 233.707  13
  10  -6   7 818.321 377.639   6
 -10   6  -7 856.802 421.542  12
  10  -6   7 937.240 316.510   1
 -10   6  -7 1150.14 381.774   5
 -10  -6   7 190.088 159.403  19
 -10   6  -7 891.036 423.315  19
  10   6  -7 1479.17 377.363   8
  10   6  -7 1228.62 451.348  18
  10   6  -7 1137.26 518.698   1
 -10  -6   7 123.386 259.604  17
  10  -6   7 1069.31 411.578   8
 -10   6  -7 1204.00 430.055   4
  10  -6   7 503.234 335.080  14
  10   6  -8 92.8181 66.3271  13
  10  -6   8 271.993 246.767   6
 -10   6  -8 31.6063 83.2935  12
 -10   6  -8 392.030 246.519   5
 -10  -6   8 94.4596 158.572  19
 -10   6  -8 17.0911 30.2412  19
  10   6  -8 169.357 141.200  18
  10   6  -8 295.652 181.788   1
  10   6  -8 242.745 138.519   8
 -10  -6   8-150.061 132.674  17
 -10   6  -8 374.891 252.058   4
  10  -6   8 88.0672 137.582   8
 -10   6  -8 86.2618 168.808   3
  10  -6   8 277.003 196.067  14
  10  -6   8 338.274 181.923   1
  10  -6   9 1231.54 441.924   6
 -10   6  -9 1561.63 455.067   5
 -10   6  -9 1254.68 440.014  12
 -10  -6   9-92.7239 309.536   2
 -10  -6   9 442.636 233.142  19
 -10   6  -9 797.113 405.970  19
  10   6  -9 1731.53 584.696  18
  10   6  -9 1186.77 537.132   1
 -10  -6   9 105.591 168.946  17
 -10   6  -9 1232.22 422.481   4
  10  -6   9 1191.28 437.117   8
  10  -6   9 1180.40 324.720   1
 -10   6  -9 1061.64 499.991   3
  10  -6   9 1359.67 433.691  14
  10   6  -9 1601.83 463.761  13
  10   7  -3 84.8424 101.698  18
  10   7  -3 130.127 136.508   8
 -10  -7   3-8.94341 174.182  17
  10   7  -4 731.791 339.742  18
  10   7  -4 543.357 270.992   8
 -10  -7   4-77.3222 146.170  17
  10   7  -5-35.7572 410.595   1
 -10  -7   5-132.256 174.117  19
  10   7  -5 328.814 174.099   8
 -10  -7   5-11.4139 55.6610  17
  10  -7   6 254.922 356.259   6
  10   7  -6 3.54797 202.486   1
 -10  -7   6-101.839 151.650  19
 -10   7  -6 1080.12 442.322   5
  10   7  -6 495.518 294.716  18
  10   7  -6 517.263 241.851   8
  10  -7   6 398.469 243.544   1
 -10  -7   6-132.834 193.469  17
  10  -7   6-593.466 578.990   8
 -10   7  -6 1173.50 561.698   4
  10  -7   6 525.774 351.321  14
  10  -7   7 970.031 349.061   1
  10  -7   7 482.770 388.408   6
 -10   7  -7 2004.12 605.431   5
 -10   7  -7 1545.95 504.553  12
  10   7  -7 457.865 283.327   1
 -10  -7   7 48.9323 170.526  19
 -10   7  -7 1081.29 384.239  19
  10   7  -7 965.561 404.197  18
  10   7  -7 1134.59 360.606   8
 -10  -7   7 79.1607 235.814  17
  10  -7   7-36.2952 245.840   8
 -10   7  -7 1733.66 637.662   4
  10  -7   7 909.937 401.089  14
 -11   0   0-33.8270 55.8805  12
  11   0   0 84.0720 127.085   1
 -11   0   0 70.8215 113.500   5
  11   0   0-81.5892 219.354  11
 -11   0   0-85.2587 107.977  19
 -11   0   0 36.2525 86.2318   2
  11   0   0 159.562 233.988  18
 -11   0   0 9.10629 64.0388   4
  11   0   0 83.3977 102.106   8
 -11   0   0 103.241 91.9223  17
 -11   0   0 69.2351 128.867   7
 -11   0   0-16.6432 118.410  15
  11   0   0 50.6507 85.3064  14
  11   0   0 5.78115 101.583   6
  11   0  -1 37.4016 19.6101  13
  11   0   1 270.302 157.641   1
 -11   0  -1 139.004 127.911  12
 -11   0   1 114.025 148.540  12
 -11   0  -1 88.9931 123.746   5
  11   0   1 353.517 240.113  11
 -11   0   1 141.900 171.207   5
  11   0  -1 242.844 242.811  11
  11   0  -1 142.703 112.113   1
 -11   0  -1 8.45468 164.246   2
 -11   0  -1 218.183 165.709  19
 -11   0   1 90.6386 63.4345  19
 -11   0   1 109.628 89.0864   2
  11   0   1 305.939 232.645  18
  11   0  -1 310.974 212.615  18
 -11   0  -1 161.855 193.927   4
 -11   0   1 86.1394 136.637   4
  11   0   1 177.644 135.687   8
  11   0  -1 166.593 139.721   8
 -11   0  -1 152.768 186.188  17
 -11   0   1 229.841 275.555  17
 -11   0  -1 139.408 53.8529   7
 -11   0   1 586.763 358.621   7
 -11   0  -1 268.166 175.761  15
 -11   0   1 410.810 330.033  15
  11   0   1 202.144 205.125  14
  11   0  -1 433.433 271.314  14
  11   0   1 379.791 209.089   6
  11   0  -1 341.919 195.836   6
  11   0   2-59.6338 81.5076   1
  11   0  -2 29.0995 56.0451  13
 -11   0  -2-15.1308 39.9599  12
 -11   0   2-351.689 387.764  12
 -11   0  -2-45.5958 125.215   5
  11   0   2-0.87750 121.058  11
  11   0  -2-127.167 186.332  11
 -11   0   2 35.0270 18.8392   5
  11   0  -2 55.7461 139.084   1
 -11   0  -2-54.2948 130.651  19
 -11   0   2 31.4059 76.3564  19
  11   0   2 25.3030 98.1499  18
 -11   0   2-29.0540 52.8774   2
  11   0  -2-54.9660 125.023  18
 -11   0  -2 75.6891 121.447   4
  11   0   2 84.5586 159.731   8
 -11   0   2-18.4870 35.6558   4
 -11   0  -2 184.913 193.163  17
  11   0  -2-32.9275 73.3223   8
 -11   0   2-178.109 239.350  17
 -11   0  -2-118.980 281.624   7
 -11   0  -2-87.4876 186.051  15
 -11   0   2 153.558 281.944  15
  11   0   2 63.5665 118.360  14
 -11   0  -2-33.1544 80.4070   3
  11   0  -2 49.2305 92.8109  14
  11   0   2 67.9841 96.3322   6
  11   0  -2 16.7577 45.2714   6
  11   0  -3 853.786 177.938  13
 -11   0  -3 107.582 62.5890  12
 -11   0  -3 323.573 183.772   5
  11   0   3 822.692 228.670  11
  11   0  -3 606.364 302.701  11
 -11   0   3 695.098 320.600   5
 -11   0  -3 258.919 158.590  19
 -11   0   3 599.837 253.870  19
  11   0  -3 908.959 357.379   1
  11   0   3 1014.54 325.269  18
  11   0  -3 1112.61 397.671  18
 -11   0  -3 308.399 246.716   4
 -11   0   3 595.322 202.915   2
  11   0   3 813.232 318.296   8
 -11   0   3 590.671 285.288   4
 -11   0  -3 174.094 43.3975  17
 -11   0   3 645.638 377.170  17
  11   0  -3 785.805 295.505   8
 -11   0  -3 94.2899 301.191   7
 -11   0  -3 101.523 353.746  15
  11   0   3 839.715 340.363  14
  11   0   3 901.964 339.793   1
  11   0  -3 866.137 365.825  14
  11   0   3 1139.57 374.736   6
 -11   0  -3 100.462 78.0715   3
  11   0  -3 858.540 252.106   6
  11   0  -4 17.8421 48.3143   6
 -11   0  -4 20.9060 42.4987   3
 -11   0  -4 125.425 169.688  12
 -11   0  -4 64.6903 106.897   5
  11   0   4-38.9368 42.2851  11
  11   0  -4 155.084 213.289  11
 -11   0   4-20.2865 50.9470   5
 -11   0  -4-67.9703 141.473  19
 -11   0   4 88.3107 146.344  19
  11   0   4-103.904 132.203  18
  11   0  -4-4.00916 146.672  18
 -11   0  -4-4.03179 112.895   4
  11   0  -4 126.953 183.465   1
  11   0   4 61.5395 91.2053   8
 -11   0   4 29.3561 29.6880   2
 -11   0  -4-19.2836 78.7846  17
 -11   0   4 121.188 140.800   4
 -11   0   4-187.231 204.980  17
  11   0  -4 45.0429 90.3448   8
 -11   0  -4-328.928 519.549  15
  11   0   4 7.71620 69.0576   1
  11   0   4-55.0737 137.463  14
  11   0   4 97.1881 131.598   6
  11   0  -4-8.24640 53.0073  14
  11   0   5 4856.12 846.197   1
 -11   0  -5 531.112 229.596   3
 -11   0  -5 1084.70 350.089  12
 -11   0   5 3164.63 707.479   5
  11   0  -5 3295.65 727.793   1
 -11   0   5 3086.63 522.968   2
  11   0   5 4805.03 559.111  11
  11   0  -5 1849.96 669.677  11
 -11   0   5 2984.44 611.835  19
 -11   0  -5 1029.33 399.936  19
 -11   0   5 3190.90 668.901   4
  11   0   5 5369.18 680.361  18
  11   0  -5 3715.01 872.963  18
  11   0   5 4079.49 759.447   8
  11   0  -5 3453.33 714.823   8
 -11   0  -5 833.921 343.994   4
 -11   0   5 2522.61 781.138  17
 -11   0  -5 518.329 243.038  17
  11   0   5 4482.20 660.329  16
  11   0   5 4926.74 849.373   6
  11   0  -5 4008.14 478.213   6
  11   0   5 4156.76 814.064  14
  11   0  -5 3823.20 795.053  14
  11   0  -6 1.51020 35.8090   6
 -11   0  -6 113.260 171.224   3
  11   0  -6-6.12923 122.147  11
 -11   0   6 2.77594 97.5207   5
 -11   0  -6-4.22082 139.952  19
 -11   0   6-48.6138 120.963  19
  11   0   6-61.8520 110.364  18
 -11   0  -6-75.7694 185.823   4
  11   0  -6-68.5487 173.950  18
  11   0   6 1.56029 101.914   8
 -11   0  -6 101.645 102.203  17
 -11   0   6 54.8210 160.832  17
  11   0   6-56.0402 161.799   1
 -11   0   6-98.9608 134.939   4
 -11   0   6-55.0698 96.6348   2
  11   0  -6-63.3495 136.653   8
  11   0   6-31.7889 51.6616  16
  11   0  -6-95.7425 176.723   1
  11   0   6-30.5669 24.2027  14
  11   0   6-20.7668 67.5209   6
  11   0  -6-92.0793 139.554  14
  11   0   7 3361.68 772.701   1
 -11   0   7 2738.66 699.257   5
  11   0  -7 2280.18 620.221   1
 -11   0   7 2624.19 518.725   2
  11   0  -7 783.074 506.530  11
 -11   0   7 2823.39 598.417  19
 -11   0  -7 200.712 200.474  19
  11   0   7 3820.86 511.082  18
 -11   0   7 3118.13 678.493   4
  11   0  -7 2013.16 689.132  18
  11   0   7 3657.37 754.170   8
 -11   0  -7-62.0553 233.749   4
 -11   0   7 2525.35 846.364  17
 -11   0  -7 212.451 159.860  17
  11   0   7 4222.76 623.485  16
  11   0  -7 1842.64 571.527   8
  11   0   7 3801.59 759.856   6
  11   0   7 3545.20 745.865  14
  11   0  -7 2583.48 672.022  14
  11   0  -8-67.7290 102.727  11
 -11   0   8 56.5910 177.033   5
 -11   0  -8 85.5651 203.987  19
 -11   0   8-47.3602 128.463  19
  11   0   8-53.7595 102.436   1
  11   0   8 31.5806 68.1931  18
  11   0  -8 79.1530 170.370  18
  11   0   8 154.104 226.334   8
 -11   0   8 411.267 386.343  17
 -11   0   8 160.323 188.499   4
 -11   0   8 34.5236 126.923   2
  11   0   8 106.712 91.2093  16
  11   0   8 211.713 327.260  14
  11   0  -8-115.988 166.727   1
  11   0   8 162.001 263.243   6
  11   0  -8-12.1238 77.9262  14
 -11   0   9 1643.39 598.413   5
 -11   0   9 1622.94 495.584   2
  11   0  -9 86.0375 173.585  11
 -11   0   9 1686.42 486.148  19
  11   0   9 1056.02 352.274   1
 -11   0  -9 748.872 437.535  19
 -11   0   9 2116.73 559.089   4
  11   0   9 2574.30 691.055   8
  11   0  -9 708.361 360.894  18
 -11   0   9 1194.53 592.967  17
  11   0   9 2373.02 516.664  16
  11   0   9 2758.18 681.016   6
  11   0   9 2896.52 728.285  14
  11   0  -9 1006.46 380.937  14
  11   0  -9 1484.13 561.235   1
  11   0 -10 25.9206 46.5242   1
 -11   0  10 1.30214 168.144   5
 -11   0 -10-186.146 217.268  19
  11   0 -10-23.9384 42.6218  18
  11   0  10 133.758 216.328   8
 -11   0  10-73.4246 204.870  17
 -11   0  10 20.9811 148.707   4
 -11   0  10 8.07123 151.018   2
  11   0  10-111.627 60.0838  16
  11   0  10-64.1988 149.828   6
  11   0  10 59.5958 208.459  14
  11   0 -10-91.8252 117.681  14
  11   0 -11 311.131 279.887   1
 -11   0  11 630.382 353.339   5
 -11   0 -11 97.8393 138.883  19
  11   0  11 746.120 366.052   8
 -11   0  11 457.268 380.082  17
 -11   0  11 996.316 429.371   4
  11   0  11 785.501 290.655  16
 -11   0  11 570.343 327.804   2
  11   0  11 494.192 296.665   6
  11   0  11 705.124 332.139  14
  11   0 -11 196.460 175.468  14
  11   1   0 36.6633 46.9874   1
  11  -1   0-3.80511 74.2298   6
 -11  -1   0-76.8000 109.874  12
 -11   1   0-66.9327 158.559  12
 -11  -1   0 44.0689 53.7200   5
  11   1   0 21.4187 32.3650  11
 -11   1   0 88.0775 103.510   5
 -11  -1   0-183.278 271.358   2
 -11  -1   0 139.324 200.150  19
 -11   1   0 36.1171 20.3160  19
  11  -1   0-25.3085 8.93555   1
  11   1   0 117.875 153.648  18
 -11   1   0 46.7224 91.8748   2
  11  -1   0 66.0328 94.3875  18
 -11  -1   0 14.2968 108.743   4
  11   1   0 22.1488 92.6587   8
 -11  -1   0 85.0116 149.192  17
 -11   1   0 23.0090 111.707   4
  11  -1   0 33.6226 48.2922   8
 -11   1   0 67.7330 116.298  17
  11   1   0 79.3654 70.4154  14
  11   1   0 24.3002 108.358   6
  11  -1   0 47.8311 106.918  14
  11  -1  -1 0.43261 19.3987   6
  11   1  -1 2.14489 55.1086   1
  11  -1  -1 45.0446 47.2103  13
 -11  -1  -1 37.4270 75.9053  12
 -11  -1   1 130.609 131.620  12
 -11   1  -1-60.8295 160.200  12
 -11   1   1-174.620 388.114  12
 -11  -1  -1 3.65008 80.7230   5
  11   1   1 2.67583 96.2334  11
 -11  -1   1 6.65987 19.1161   5
  11   1  -1 113.576 104.017  11
 -11   1  -1 83.1740 115.960   5
 -11   1   1 125.184 145.131   5
  11  -1   1 121.368 161.948   1
 -11  -1   1-8.39188 48.7597   2
 -11  -1  -1-40.2410 99.4676  19
 -11  -1   1-60.0771 155.399  19
 -11   1  -1 1.90834 59.4829  19
 -11   1   1 16.3241 91.9648  19
 -11   1  -1 105.989 103.706   2
  11   1   1 73.2650 141.942  18
  11   1  -1 29.6565 88.8380  18
  11  -1   1 33.4683 65.5446  18
 -11  -1  -1-68.0116 120.838   4
  11  -1  -1 36.0796 76.9336  18
 -11  -1   1 57.2213 120.564   4
  11  -1  -1 34.6418 108.816   1
 -11   1   1 80.3334 70.5651   2
  11   1   1 103.636 173.938   8
  11   1  -1 70.4771 95.5690   8
 -11   1  -1-67.4923 123.134   4
 -11  -1  -1-52.9885 29.3773  17
 -11  -1   1 38.3763 114.378  17
  11  -1   1 106.387 135.699   8
 -11   1   1 51.5282 85.7743   4
  11  -1  -1 30.9553 130.264   8
 -11   1  -1 64.3796 252.354  17
 -11   1   1 166.101 251.538  17
  11   1   1-17.9553 111.659   6
  11   1   1 111.745 161.341   1
  11   1   1-16.8789 55.6076  14
  11   1  -1-58.2741 94.0407  14
  11   1  -1 100.214 136.739   6
 -11  -1  -1 25.6650 20.2268   3
  11  -1   1 69.0316 115.734  14
  11  -1  -1 135.133 151.042  14
  11  -1   1 66.8152 48.0516   6
 -11  -1  -2-8.73562 58.9033   3
  11   1  -2 21.3718 54.9335  13
  11  -1  -2 180.401 114.287   6
 -11  -1  -2 168.975 167.372  12
  11   1  -2 337.474 234.173   1
 -11   1  -2 139.818 106.304  12
 -11  -1   2 41.7180 80.9606  12
 -11  -1  -2 133.853 181.599   5
  11   1   2 410.640 236.152  11
  11  -1   2 185.424 155.359   1
  11   1  -2 171.154 113.036  11
 -11  -1   2 76.8119 71.8531   5
 -11   1  -2 159.858 178.249   5
 -11   1   2-2.37488 64.5808   5
 -11   1  -2 128.113 96.8292   2
 -11  -1  -2 88.0438 118.674  19
 -11  -1   2 92.1971 129.094  19
 -11   1  -2 181.441 180.958  19
 -11   1   2 71.0284 92.8930  19
 -11  -1   2 93.3926 73.2093   2
  11   1   2 191.001 144.475  18
  11   1  -2 201.763 162.391  18
 -11  -1  -2 97.0448 55.1989   4
  11  -1   2 334.460 256.111  18
  11  -1  -2 352.719 288.594  18
 -11  -1   2 50.9508 27.1897   4
  11   1   2 243.279 174.988   8
 -11   1  -2 60.1933 57.1442   4
 -11  -1  -2 139.146 169.555  17
  11   1  -2 303.680 186.779   8
 -11   1   2 143.454 71.3194   2
  11  -1   2 146.096 150.512   8
 -11  -1   2 39.9874 143.143  17
 -11   1   2 299.064 231.020   4
 -11   1  -2-92.0609 131.569  17
  11  -1  -2 137.319 137.256   1
  11  -1  -2 188.835 155.880   8
 -11   1   2-40.1974 257.999  17
 -11   1  -2 366.996 312.229   7
  11   1   2 311.596 214.079   1
 -11   1  -2 374.502 328.604  15
  11   1   2 174.873 128.920   6
  11   1   2 250.260 242.927  14
  11   1  -2 151.344 113.418  14
  11   1  -2 280.076 194.964   6
  11  -1   2 204.033 161.527  14
  11  -1  -2 176.959 135.296  14
  11  -1   2 255.343 168.712   6
  11  -1  -3 66.7383 58.7327   6
  11   1  -3-18.8484 23.3749  13
 -11  -1  -3 4.20701 91.3465   3
 -11  -1  -3 300.140 262.768  12
  11  -1   3 30.1714 88.8460   1
 -11   1  -3-4.94458 71.0926  12
 -11  -1   3-659.114 513.417  12
  11   1  -3 63.5132 99.7966   1
  11   1   3 107.815 130.518  11
 -11   1  -3 8.83757 88.4755   5
  11   1  -3-102.917 107.429  11
 -11  -1   3 69.2800 123.922   5
 -11   1   3-89.1291 126.198   5
 -11  -1  -3-34.8470 117.749  19
 -11   1  -3 72.5925 110.455  19
 -11  -1   3 54.9010 91.5574  19
 -11   1   3-14.3464 63.4267  19
 -11  -1   3-10.7894 44.6282   2
  11   1   3 21.3904 79.3861  18
 -11  -1  -3-119.126 209.291   4
  11   1  -3-62.9802 123.791  18
  11  -1   3-118.370 187.564  18
  11  -1  -3 110.199 203.932  18
 -11  -1   3 52.2201 131.464   4
 -11   1  -3-116.132 144.942   4
  11   1   3 156.078 154.538   8
 -11  -1  -3-66.3979 99.4931  17
  11  -1   3 8.53291 77.9043   8
  11   1  -3-65.2393 118.234   8
 -11  -1   3 87.8125 77.7203  17
 -11   1  -3-113.759 116.566  17
 -11   1   3 241.873 330.441  17
 -11   1   3-51.6362 78.3705   4
 -11   1   3 3.84153 41.1512   2
  11  -1  -3-1.19244 53.8721   8
 -11  -1   3-481.657 492.944   7
  11   1   3-54.1078 27.1790   1
 -11   1  -3 180.770 265.561   7
  11  -1  -3-24.9615 105.201   1
 -11  -1   3-186.256 397.335  15
 -11   1  -3 132.327 230.937  15
  11   1   3-28.7041 92.2625   6
  11   1   3-112.448 203.404  14
  11   1  -3 65.0062 111.805  14
 -11   1  -3 74.9276 79.5610   3
  11  -1   3 39.7901 140.723  14
  11   1  -3 41.3714 62.8312   6
  11  -1  -3-38.3064 54.3882  14
  11  -1   3-15.4008 48.9921   6
  11   1  -4 1537.04 279.800  13
  11   1   4 1751.46 516.637   1
  11  -1   4 1422.40 418.099   1
  11   1  -4 1551.85 472.345   1
 -11   1  -4 546.811 244.373  12
 -11  -1   4 1079.83 313.648   2
  11   1   4 2454.50 421.853  11
 -11   1   4 1334.57 326.829   2
 -11   1  -4 761.062 314.000   5
  11   1  -4 2042.00 602.753  11
 -11  -1   4 912.146 385.132   5
 -11   1   4 1311.82 444.066   5
 -11   1   4 1336.41 407.964  19
 -11  -1  -4 211.987 187.602  19
 -11   1  -4 714.158 319.048  19
 -11  -1   4 971.777 349.365  19
  11   1   4 1787.94 405.225  18
 -11   1   4 1469.62 455.934   4
  11   1  -4 1724.93 512.946  18
  11  -1   4 1599.56 468.835  18
  11  -1   4 1548.76 452.855   8
  11   1  -4 1651.92 444.273   8
 -11  -1  -4-78.4950 317.105   4
  11  -1  -4 760.944 326.783  18
 -11   1  -4 894.483 412.832   4
  11   1   4 1487.40 460.762   8
 -11  -1   4 928.954 368.642   4
 -11  -1  -4-85.1383 152.103  17
 -11  -1   4 741.825 367.301  17
 -11   1  -4 282.176 251.815  17
 -11   1   4 1066.72 584.136  17
  11   1   4 1833.83 329.227  16
  11  -1  -4 1130.97 418.659   8
 -11  -1   4 928.100 220.347   7
 -11   1  -4 1411.10 504.116   7
  11   1  -4 1646.49 390.786   6
  11  -1   4 1883.92 453.693   6
  11  -1  -4 1407.07 303.652   6
 -11  -1   4 1129.42 377.690  15
 -11   1  -4 1134.73 523.718  15
  11   1  -4 1816.26 575.639  14
  11  -1   4 1459.17 462.161  14
  11  -1  -4 1497.18 490.990  14
  11   1   4 1494.92 519.855   6
  11  -1  -4 1197.49 411.683   1
  11   1   4 1582.12 506.461  14
 -11   1  -4 256.904 153.413   3
  11  -1  -5-75.2400 106.363   1
 -11   1  -5 24.5173 149.408   3
  11  -1  -5 14.8413 39.9433   6
  11   1  -5 135.301 102.056  13
 -11   1  -5 14.3688 64.6123  12
 -11   1  -5 102.790 158.820   5
  11   1  -5-124.847 211.907  11
 -11  -1   5 12.0279 99.5624   5
 -11   1   5 10.2205 79.4650   5
  11   1  -5 163.251 158.988   1
 -11  -1  -5 185.854 184.955  19
 -11   1  -5-61.7251 134.632  19
 -11  -1   5 9.85767 89.1834  19
 -11   1   5 17.2672 28.4798  19
  11   1   5 10.3789 80.8575  18
  11   1  -5-91.9396 207.211  18
  11  -1   5-28.3022 155.935  18
 -11  -1   5 81.7688 77.8490   2
 -11   1  -5 15.7444 121.814   4
  11   1   5 21.0543 124.162   8
  11   1   5 9.66279 35.3219   1
 -11  -1  -5 34.1454 58.9230  17
 -11  -1   5 18.4573 15.2966   4
  11  -1   5 143.595 158.441   8
 -11  -1   5 13.5850 100.732  17
 -11   1  -5-46.2649 153.634  17
  11   1  -5 0.30021 39.2218   8
 -11   1   5-166.915 205.113  17
 -11   1   5 28.5075 74.3755   4
  11  -1  -5-39.9470 150.158   8
 -11  -1   5-149.943 246.988   7
  11   1   5 34.2382 67.8322  16
 -11   1   5 137.396 167.960   2
 -11   1  -5-9.82523 82.7076   7
 -11  -1   5-40.1858 163.142  15
 -11   1  -5 223.614 294.846  15
  11   1   5-5.64963 73.8953   6
  11   1   5-75.3931 219.543  14
  11  -1   5-22.3976 125.586  14
  11   1  -5 53.9513 104.491  14
  11  -1   5-15.8504 81.7030   1
  11   1  -5 66.9050 65.3530   6
  11  -1  -5-36.1386 58.8760  14
  11  -1   5-58.7913 135.291   6
  11   1   6 3291.25 761.823   1
 -11   1  -6 591.169 209.702   3
  11  -1   6 3868.32 730.696   1
 -11   1  -6 1219.76 369.474  12
  11   1  -6 3200.30 692.027   1
 -11  -1   6 2373.49 655.791   5
 -11   1   6 3193.57 707.217   5
 -11  -1   6 2307.74 475.772   2
  11  -1  -6 2404.66 654.868   1
  11   1  -6 2870.71 709.151  11
 -11   1  -6 1081.07 386.816   5
 -11   1   6 3390.01 617.515   2
 -11  -1   6 2405.49 552.425  19
 -11   1   6 3331.95 666.696  19
 -11   1  -6 1374.49 440.117  19
 -11  -1   6 2446.23 609.277   4
  11   1   6 3765.87 549.055  18
  11   1  -6 3381.97 793.140  18
  11  -1   6 3926.03 650.755  18
 -11   1   6 3418.98 689.996   4
  11   1   6 3740.64 783.034   8
  11  -1   6 3261.77 665.149   8
  11   1  -6 3335.56 689.017   8
 -11   1  -6 1190.64 410.813   4
 -11  -1   6 2090.94 636.901  17
 -11   1   6 2433.69 821.407  17
  11   1   6 4176.65 558.678  16
  11  -1  -6 1413.93 442.577   8
 -11   1  -6 1181.45 466.492   7
  11   1   6 3540.07 802.619   6
  11  -1   6 4306.06 733.940   6
 -11  -1   6 3125.61 608.129  15
 -11   1  -6 1455.36 532.499  15
  11  -1  -6 2588.99 403.021   6
  11   1   6 3503.97 810.203  14
  11  -1   6 3492.20 693.530  14
  11   1  -6 3302.16 776.710  14
  11  -1  -6 2475.27 639.317  14
 -11   1  -7-145.850 168.609   3
  11  -1  -7-11.5506 64.6327   6
 -11   1  -7 76.7635 158.222  12
  11  -1  -7 16.5154 12.8012   1
  11   1  -7-78.9794 222.803  11
 -11  -1   7-112.622 136.742   5
 -11   1   7-77.7808 145.753   5
 -11  -1  -7-97.7428 181.206  19
 -11   1  -7 89.7305 100.365  19
 -11  -1   7 17.9921 60.4426  19
  11   1   7 86.5426 123.146   1
 -11   1   7-23.9688 139.128  19
  11   1   7-43.1153 13.4319  18
  11   1  -7-23.0721 70.3279   1
  11  -1   7 6.01969 80.7379  18
  11   1  -7-100.171 98.1019  18
 -11   1  -7-2.81981 77.4656   4
  11   1   7-30.1628 133.308   8
 -11  -1  -7 43.7705 9.01866  17
 -11  -1   7 11.5894 100.919   2
  11  -1   7-47.9656 78.6091   8
 -11  -1   7 22.3240 108.293   4
 -11  -1   7-135.527 210.264  17
 -11   1   7-10.8046 228.619  17
  11   1  -7 18.1012 82.5826   8
  11  -1   7-19.6135 43.6947  16
 -11   1   7 193.635 92.0592   4
 -11   1  -7-223.846 391.061   7
  11  -1   7-97.5191 149.110   1
  11   1   7 37.7515 104.543  16
 -11   1   7-69.6196 116.233   2
 -11   1  -7-115.168 295.981  15
  11   1   7-59.6906 110.101   6
  11   1   7-44.4495 130.728  14
  11  -1   7-46.8137 21.9703  14
  11   1  -7-6.95476 92.4699  14
  11  -1   7-125.159 153.092   6
  11  -1  -7 78.2843 176.004  14
 -11   1  -8 65.8435 195.696   3
 -11   1  -8 23.7001 226.206  12
  11   1  -8 1891.72 600.337   1
 -11   1   8 2366.14 665.960   5
 -11  -1   8 1685.92 445.403   2
 -11   1   8 1959.86 526.246   2
  11   1  -8 1139.59 510.032  11
 -11  -1   8 1762.03 565.393   5
  11   1   8 1100.42 390.844   1
 -11  -1   8 1558.26 463.939  19
  11  -1  -8 1111.45 485.248   1
 -11   1   8 1809.19 498.753  19
 -11  -1  -8-139.319 221.202  19
 -11   1  -8 1224.87 590.370  19
 -11  -1   8 1558.90 496.173   4
  11   1   8 2066.94 398.032  18
 -11   1   8 2022.33 583.756   4
  11  -1   8 2351.37 611.525   8
  11   1  -8 1662.23 561.833  18
  11   1   8 2006.66 591.536   8
 -11  -1  -8-72.4398 148.430  17
 -11  -1   8 1272.21 563.753  17
 -11   1   8 1211.48 602.224  17
  11  -1   8 2682.87 584.679  16
  11   1   8 2832.77 527.424  16
  11   1  -8 1839.72 608.220   8
 -11   1  -8-719.091 399.500   7
  11   1   8 1964.83 581.806   6
 -11   1  -8 88.6100 260.793  15
  11  -1  -8 1157.77 307.991   6
  11   1   8 2215.23 636.217  14
  11   1  -8 1664.74 564.662  14
  11  -1  -8 1406.48 495.155  14
 -11   1  -9 14.7986 324.272   3
  11   1  -9-54.4976 270.296  11
 -11  -1   9-26.4930 104.097   5
 -11   1   9 16.6642 56.8071   5
 -11  -1  -9 83.2389 126.820  19
 -11  -1   9-76.1195 156.826  19
  11  -1  -9 13.6010 155.535   1
  11   1   9 21.2230 28.7450  18
 -11   1  -9 280.242 197.417   4
  11   1  -9-131.321 170.702  18
  11   1   9 169.709 118.803   8
  11   1  -9 139.623 185.420   1
 -11  -1   9 109.545 172.922   2
 -11  -1   9-3.31885 23.1640   4
 -11  -1   9 23.0822 196.520  17
 -11   1   9 97.5327 110.205   4
  11   1   9-60.0616 133.144  16
 -11   1   9-70.6909 113.222   2
  11   1   9-111.748 203.874   6
  11   1   9 141.433 138.969  14
  11   1  -9 81.9418 82.5159  14
  11  -1  -9-88.0385 54.9511  14
  11   1 -10 214.109 148.156  11
 -11  -1  10 627.677 366.102   5
 -11  -1 -10-185.078 302.273  19
 -11   1  10 968.441 467.176   5
 -11   1 -10 216.965 233.829  19
  11  -1  10 674.754 302.634   1
 -11  -1  10 584.052 312.823  19
  11   1 -10 491.499 326.830  18
  11  -1 -10 368.979 324.724   1
  11   1  10 781.239 386.080   8
  11  -1  10 1107.81 493.750   8
 -11  -1  10 692.440 313.586   4
 -11  -1  10 409.187 294.994  17
 -11  -1  10 472.991 239.380   2
 -11   1  10-172.137 632.217  17
  11   1 -10 565.442 357.270   1
  11  -1  10 979.420 371.228  16
 -11   1  10 829.924 378.396   4
  11   1  10 1015.67 350.756  16
 -11   1  10 772.242 368.635   2
  11   1  10 640.469 348.058   6
  11   1  10 646.027 381.323  14
  11  -1  10 589.687 370.520  14
  11  -1  10 579.274 311.585   6
  11   1 -10 524.114 319.837  14
  11  -1 -10 362.563 302.376  14
  11   1 -11 78.3995 258.717  11
 -11  -1  11-55.7506 57.9908   5
 -11  -1 -11-1.67170 59.1780  19
 -11   1  11 95.9238 145.960   5
 -11   1 -11-66.1488 90.6618  19
 -11  -1  11-213.045 281.006  19
  11   1 -11-14.1272 131.483  18
  11   1  11 45.4996 105.527   8
  11  -1  11-97.7718 119.635   8
  11  -1 -11 286.238 266.294   1
 -11  -1  11-171.915 252.674  17
 -11  -1  11-20.8595 31.9223   4
 -11  -1  11 97.7280 188.555   2
  11  -1  11-59.3455 40.2548  16
 -11   1  11 15.2208 63.5120   4
  11   1 -11-71.4167 132.770   1
  11   1  11-26.1385 85.3888  16
 -11   1  11 192.185 265.022   2
  11   1  11-44.6774 109.616   6
  11   1  11-12.4652 173.846  14
  11  -1  11 2.47400 20.3647  14
  11  -1  11 12.3699 80.1997   6
  11   1 -11 89.0340 197.374  14
  11  -1 -11 121.194 164.322  14
  11  -2   0 30.8480 78.4354   6
 -11  -2   0 142.252 129.656  12
  11   2   0 125.402 188.322  11
 -11   2   0 70.1885 82.6571   5
 -11  -2   0 16.9142 135.644  19
  11   2   0 293.293 161.779   9
 -11   2   0-26.6696 73.8380  19
  11   2   0 161.461 194.944  18
 -11  -2   0-120.449 251.390   4
  11   2   0 55.4251 130.206   8
 -11  -2   0-71.2208 73.5319  17
 -11   2   0-14.7360 31.4130   2
  11  -2   0-9.02515 41.2340   8
 -11   2   0-22.0077 51.1919   4
  11  -2   0 17.2912 123.972   1
  11   2   0-27.0704 42.7001   1
  11   2   0-39.0597 78.7658   6
  11   2   0-103.600 188.995  14
  11  -2   0 80.2928 117.103  14
  11  -2   1 240.120 144.981   6
  11  -2  -1 224.758 152.862   6
 -11  -2   1 14.4180 58.3206  12
 -11   2  -1 48.9500 151.663  12
 -11  -2   1 78.4655 186.010   5
  11   2  -1 483.365 270.374  11
 -11   2  -1 254.382 211.601   5
 -11   2   1 272.923 198.126   5
 -11  -2  -1 28.6595 182.057  19
 -11  -2   1 87.5873 134.740  19
  11   2   1 747.533 257.026   9
  11   2  -1 304.487 157.868   9
 -11   2  -1 158.100 151.544  19
 -11   2   1 107.406 124.860  19
  11   2   1 241.059 160.994  18
 -11  -2  -1-635.396 341.967   4
  11   2  -1 213.924 119.386  18
 -11  -2   1-46.1905 122.409   4
 -11   2  -1 147.203 98.7537   2
  11   2   1 267.277 224.017   8
  11   2  -1 306.796 205.324   8
 -11  -2  -1 20.8455 81.1825  17
 -11  -2   1 95.4222 141.647  17
  11  -2   1 225.251 189.082   1
 -11   2  -1 103.466 166.360   4
  11  -2   1 231.174 210.186   8
  11  -2  -1 119.302 173.591   8
 -11   2   1 147.743 159.653   4
 -11   2   1 153.493 102.308   2
  11   2   1 165.735 186.208   1
  11   2   1 51.8680 57.7165   6
  11   2  -1-36.0832 116.748   6
  11   2  -1 271.769 211.692   1
  11   2   1 240.895 177.651  14
  11  -2  -1 121.368 125.446   1
  11   2  -1 9.27902 149.209  14
  11  -2   1 13.9589 26.6856  14
  11  -2  -1 113.148 130.215  14
  11  -2   2 39.6390 47.8772   6
  11  -2  -2-35.3312 38.8648   1
  11  -2  -2 82.2492 104.445   6
 -11  -2   2-4.20377 58.7157  12
 -11   2  -2-84.7786 114.347  12
 -11  -2   2 120.937 154.100   5
  11   2  -2 254.214 229.867  11
 -11   2  -2-57.0343 35.7560   5
 -11   2  -2 91.3076 86.6422  20
 -11  -2   2-95.6948 159.218   2
 -11   2   2-38.1184 74.6196   5
 -11  -2  -2 115.884 187.978  19
 -11  -2   2 110.640 150.491  19
 -11   2  -2 7.51495 33.7922  19
  11   2  -2 575.104 292.615   9
 -11   2   2 26.9528 77.9108  19
  11   2   2 40.1695 65.1986  18
  11   2  -2-61.2560 118.320  18
  11  -2   2-28.8644 23.4837   1
 -11   2  -2 62.3006 73.7830   2
 -11  -2   2 6.93849 122.812   4
  11   2   2-21.8061 83.9248   8
 -11  -2  -2 7.15321 85.1775  17
  11   2  -2-25.8168 52.1617   8
 -11  -2   2 29.0641 90.8033  17
 -11   2  -2 64.2285 78.0292   4
  11  -2   2 17.3053 106.814   8
  11   2   2 39.0366 107.432   1
  11  -2  -2-23.7968 54.2990   8
 -11   2   2 50.5391 108.110   4
 -11   2   2 85.4892 102.943   2
  11   2   2-55.5901 102.742   6
  11   2  -2-34.5591 135.385   6
  11   2   2 73.5996 187.562  14
  11   2  -2 34.5056 99.5817  14
  11   2  -2-37.3594 96.0579   1
  11  -2   2 76.5331 84.0072  14
  11  -2  -2-66.3329 112.893  14
  11  -2   3 109.487 64.5940   6
  11   2  -3 25.0170 85.2468   1
  11   2  -3 52.2311 82.7511  13
  11  -2  -3 68.0913 89.1789   6
 -11   2  -3 83.6866 92.6517  12
 -11  -2   3 15.3247 60.1645  12
  11  -2  -3 62.6587 77.5878   1
 -11  -2   3 96.8506 132.917   5
  11   2  -3 19.5509 75.2673  11
 -11   2  -3 108.639 143.944   5
 -11   2  -3 160.279 117.753  20
 -11   2   3-81.6511 134.906   5
 -11  -2  -3-6.87905 51.4401  19
 -11  -2   3 85.8925 89.0483   2
  11  -2   3 42.4395 86.5700   1
 -11   2  -3 64.5452 69.9070   2
 -11  -2   3-4.10601 71.3245  19
 -11   2  -3 96.4543 113.404  19
 -11   2   3 62.0938 75.8765  19
  11   2  -3-75.8453 219.902   9
  11   2   3 202.660 158.169  18
  11   2  -3 71.6585 108.351  18
 -11  -2   3-43.1817 114.503   4
  11   2   3 65.7728 94.0935   8
  11   2   3 33.4753 163.302   1
 -11  -2  -3-11.2425 75.4322  17
  11   2  -3 265.621 192.182   8
 -11  -2   3 51.4998 145.788  17
 -11   2  -3 192.527 193.524   4
  11  -2   3 117.989 115.182   8
  11  -2  -3 81.1515 121.525   8
 -11   2   3 32.3269 45.3977   4
  11   2   3 117.217 85.5069  16
 -11   2   3 134.735 107.556   2
  11   2   3-128.584 189.018   6
  11   2  -3 95.3797 77.4216   6
  11   2   3 226.588 220.240  14
  11   2  -3 45.9440 107.828  14
  11  -2   3-11.8227 78.8769  14
  11  -2  -3 48.1954 26.8269  14
  11   2  -4 125.793 97.8128  13
  11   2  -4 57.3080 24.4889   1
  11  -2  -4 72.0103 87.1326   6
 -11   2  -4 55.6932 84.2311  12
  11   2  -4 123.778 141.438  11
 -11  -2   4 37.2194 86.6706   5
  11  -2   4 78.8053 127.289   1
 -11   2  -4 111.010 165.383   5
 -11   2  -4 132.642 103.831  20
 -11   2   4 64.0495 76.7176   5
  11  -2  -4 172.341 181.960   1
 -11  -2  -4-97.5311 226.019  19
 -11  -2   4 75.6495 170.892  19
 -11   2  -4 154.778 221.959  19
 -11  -2   4 111.026 112.710   2
 -11   2   4 7.78082 61.4199  19
  11   2  -4-353.370 323.620   9
  11   2   4 144.317 150.902  18
  11   2  -4 101.236 98.0506  18
  11   2   4-1.79304 104.404   1
 -11  -2   4-69.1884 153.997   4
  11   2   4-16.4537 88.8526   8
 -11  -2  -4 3.72467 153.689  17
 -11   2  -4 62.2399 77.0949   4
 -11  -2   4-156.201 249.372  17
  11   2  -4 33.3771 85.9698   8
  11  -2   4 160.778 127.874   8
  11  -2  -4 31.4304 278.298   8
 -11   2   4 177.826 150.823   4
  11   2   4 47.8281 18.3507  16
 -11   2   4 109.457 22.6402   2
  11   2   4-22.7253 177.178   6
  11   2  -4 97.8559 120.211   6
  11   2   4 110.425 170.062  14
  11   2  -4 100.548 163.388  14
 -11   2  -4 92.1779 114.781   3
  11  -2   4 193.283 191.069  14
  11  -2  -4-30.9394 166.006  14
  11  -2   4 54.4890 108.468   6
  11   2  -5 1503.16 328.684  13
  11   2   5 1440.77 517.145   1
  11  -2  -5 935.569 302.731   6
  11  -2   5 1616.35 431.185   1
  11   2  -5 1373.33 464.718   1
 -11   2  -5 662.471 274.592  12
  11   2  -5 2181.90 590.000  11
 -11  -2   5 798.642 364.424   5
 -11   2   5 1723.06 464.316   2
 -11   2  -5 626.086 280.813   5
 -11   2  -5 520.065 190.043  20
 -11   2   5 1262.84 411.247  19
 -11   2   5 1444.78 491.251   5
 -11  -2  -5 133.480 206.095  19
 -11  -2   5 867.228 313.397  19
 -11   2  -5 812.005 343.530  19
 -11  -2   5 826.003 292.750   2
 -11   2   5 1479.13 446.322   4
  11   2   5 1104.36 309.612  18
  11   2  -5 1508.41 426.831   8
  11  -2  -5 716.474 336.616   1
  11   2  -5 1459.61 487.826  18
 -11  -2   5 750.855 364.622   4
  11   2   5 1355.74 444.405   8
 -11  -2  -5-47.1688 101.340  17
 -11   2  -5 660.043 276.990   4
  11  -2   5 1309.44 424.901   8
 -11  -2   5 667.368 373.775  17
  11   2   5 1624.27 351.490  16
  11  -2  -5-92.7538 464.569   8
  11  -2   5 1628.82 409.349   6
 -11   2  -5 1088.87 517.574  15
  11   2   5 452.107 212.429   6
  11  -2   5 1452.83 434.758  14
  11   2   5 1538.50 570.606  14
  11   2  -5 1306.85 549.750  14
 -11   2  -5 152.848 44.5266   3
  11  -2  -5 915.778 395.997  14
  11  -2   6-25.6214 86.7689   1
  11   2  -6 43.7874 67.6908  13
  11  -2  -6-1.29628 38.2533   6
 -11   2  -6-422.735 231.517  12
  11   2  -6-60.1772 130.581   1
 -11   2  -6-75.1343 39.9828   5
  11   2  -6 20.6067 68.7907  11
 -11  -2   6-42.2010 5.78044   5
 -11   2  -6-43.2410 152.002  20
  11   2   6-499.415 298.877   1
 -11  -2  -6-35.0829 102.469  19
 -11   2   6 87.0690 120.438   5
 -11   2  -6 218.832 218.268  19
 -11  -2   6-2.51171 83.0864  19
 -11   2   6-45.9771 177.127  19
  11   2  -6-267.316 411.542   9
  11   2   6-2.04357 7.31421  18
 -11  -2   6 51.1179 27.9640   2
  11   2  -6-65.3131 112.026  18
  11   2   6 0.42321 25.0461   8
 -11  -2   6 68.5767 178.860   4
 -11   2  -6 37.7616 86.7974   4
 -11  -2  -6 90.0243 133.885  17
  11  -2   6-5.75530 26.6222   8
 -11  -2   6-117.622 240.084  17
  11   2  -6 11.8316 62.1000   8
  11  -2  -6-20.1746 52.2909   1
 -11   2   6-1.31406 66.3245   4
 -11   2  -6 255.045 312.298   7
  11   2   6 93.7578 144.251  16
 -11   2  -6-4.42484 208.620  15
  11   2   6-207.015 283.616   6
 -11   2   6 87.5007 70.8033   2
  11   2   6-51.6674 143.468  14
  11   2  -6-4.12021 51.2952  14
  11  -2   6-79.6594 82.5101  14
  11  -2  -6-32.0610 104.111  14
  11  -2   6-27.4541 109.506   6
 -11   2  -6 156.161 169.329   3
  11   2  -7 1325.05 302.499  13
 -11   2  -7 112.818 107.347   3
  11  -2   7 1818.95 504.679   1
 -11   2  -7 376.531 269.442  12
 -11   2   7 1704.49 585.164   5
 -11   2  -7 627.026 301.292   5
  11   2  -7 1438.91 500.090   1
  11   2  -7 1223.46 458.600  11
 -11   2   7 2060.93 658.856   2
 -11  -2   7 1072.92 450.975   5
  11   2   7 566.782 195.894   1
 -11   2  -7 200.491 110.092  20
 -11  -2  -7 176.539 164.927  19
 -11   2  -7 802.152 375.113  19
 -11  -2   7 1054.10 371.333  19
  11   2  -7-563.289 680.554   9
  11   2   7 1071.46 311.747  18
 -11   2   7 1439.27 487.069   4
  11   2  -7 1429.83 429.829   8
  11   2  -7 1559.70 527.198  18
 -11  -2   7 770.568 296.299   2
  11   2   7 1125.61 467.390   8
 -11   2  -7 481.742 257.623   4
 -11  -2  -7-1.82547 86.9367  17
 -11  -2   7 1153.74 444.309   4
  11  -2   7 1292.20 383.213   8
 -11  -2   7 573.282 399.791  17
 -11   2  -7 1156.59 470.499   7
  11   2   7 1636.09 440.031  16
  11  -2   7 1539.35 448.292   6
  11  -2  -7 689.576 435.018   1
 -11   2  -7 1036.00 496.945  15
  11   2   7 259.868 293.130   6
  11   2   7 1255.92 523.412  14
  11   2  -7 1457.60 539.228  14
  11  -2   7 1113.70 425.396  14
  11  -2  -7 497.769 253.986  14
 -11   2  -8 180.568 465.770   3
  11   2  -8 208.541 173.138  13
 -11   2  -8 909.945 522.387   5
  11   2  -8 329.748 217.522  11
 -11  -2   8 118.339 227.566   5
  11   2  -8-16.8341 18.3754   1
 -11  -2  -8 80.3103 204.817  19
 -11   2   8 89.9306 153.323   5
 -11  -2   8 18.0698 92.2767  19
  11   2   8 73.3118 97.0305  18
  11   2  -8 13.0382 72.2997  18
 -11   2  -8 766.672 522.021   4
  11   2   8-124.084 251.050   8
 -11  -2   8 103.250 92.9859   2
 -11  -2  -8 81.5722 204.557  17
 -11  -2   8 48.1482 72.1384   4
 -11  -2   8-52.9466 180.929  17
  11   2  -8 22.1454 173.088   8
 -11   2  -8 386.353 516.413   7
 -11   2   8 81.7589 118.688   4
  11   2   8 242.254 183.806  16
 -11   2  -8 528.451 603.566  15
  11   2   8-450.843 400.224   6
  11   2   8-22.9401 199.351  14
 -11   2   8 309.791 305.437   2
  11   2  -8 93.7925 144.612  14
  11  -2  -8 121.559 204.819   1
  11  -2  -8 224.209 282.151  14
 -11   2  -9 288.071 388.771   3
  11  -2  -9 641.862 476.112   1
 -11   2  -9 533.007 432.480  12
  11   2  -9 787.486 438.303  11
 -11  -2   9 443.369 263.764   5
 -11  -2  -9-6.47984 131.574  19
  11   2  -9 329.729 264.943   1
 -11   2   9 734.514 406.980   5
 -11  -2   9 409.601 215.383  19
  11   2   9 201.981 91.3191  18
  11   2  -9 559.774 367.376  18
 -11   2  -9 338.118 386.841   4
  11   2   9 583.891 349.259   8
 -11  -2  -9 86.0019 156.558  17
 -11  -2   9 312.798 232.198   2
 -11  -2   9 357.318 244.093   4
 -11  -2   9 476.390 307.467  17
  11   2  -9 501.588 260.489   8
 -11   2  -9 1557.47 805.588   7
  11   2   9 737.774 339.706  16
 -11   2  -9 1020.12 719.715  15
  11   2   9-286.373 424.137   6
  11   2  -9 441.324 279.916  14
  11  -2  -9 438.065 338.612  14
 -11   2 -10-50.4915 65.0114   3
 -11   2 -10-135.015 128.943  12
  11   2 -10-5.92965 186.497  11
 -11  -2  10 149.616 170.286   5
 -11  -2 -10 80.4209 131.660  19
 -11   2 -10 55.5394 183.441  19
 -11  -2  10-9.01979 87.0806  19
  11   2 -10-56.1003 109.413   1
 -11   2 -10 53.6057 116.357   4
  11   2 -10-92.7492 200.461  18
  11   2  10 17.1455 80.7672   8
  11  -2  10-147.779 173.477   1
 -11  -2  10 77.0195 139.987   2
  11  -2  10 160.640 240.302   8
 -11  -2  10 1.04415 92.9767   4
 -11  -2  10 142.257 202.929  17
  11  -2  10-100.528 92.1704  16
 -11   2 -10-127.700 218.587   7
  11   2  10 125.989 176.954  16
 -11   2 -10-380.414 437.691  15
  11  -2  10 27.0984 141.642  14
  11   2 -10-66.4703 95.8892  14
  11  -2  10 30.6629 71.8802   6
  11   3   0 1888.86 556.502   1
 -11   3   0 1450.62 432.628   5
  11  -3   0 1247.04 390.950   1
 -11   3   0 1546.01 298.322   2
 -11   3   0 1658.40 454.498  19
 -11  -3   0 45.5537 117.584  19
  11   3   0 1592.62 432.262  18
 -11   3   0 1666.82 473.981   4
  11   3   0 1942.82 519.320   8
 -11  -3   0 21.1894 102.546  17
  11  -3   0 1074.08 397.746   8
  11  -3   0 1396.59 391.951   6
  11   3   0 1775.23 653.279  14
  11  -3   0 1242.30 423.177  14
  11  -3   1 159.264 130.950   6
  11  -3  -1 85.7237 113.521   6
 -11   3  -1 189.668 205.634   5
 -11   3   1 144.607 137.016   5
 -11  -3  -1-105.688 186.733  19
 -11  -3   1 17.0796 246.717  19
  11  -3  -1 96.4301 189.155   1
 -11   3  -1 16.8080 89.1350  19
 -11   3   1-14.0854 98.2930  19
  11   3   1 9.96069 86.2246  18
  11   3  -1 53.7175 71.1139  18
  11   3   1 121.122 152.893   8
  11   3   1 8.50417 21.1780   1
  11   3  -1 7.36957 72.4777   8
 -11  -3  -1 75.0014 135.243  17
 -11  -3   1 17.3621 61.5484  17
  11  -3   1-62.5273 104.656   8
 -11   3  -1 91.1059 127.460   4
  11  -3  -1 29.4257 3.71651   8
  11   3  -1-5.77906 67.1957   1
 -11   3   1 44.2546 13.5264   4
 -11   3  -1 36.7648 28.6382   2
 -11   3   1 63.8638 83.5601   2
  11   3   1 77.3852 156.790  14
  11   3  -1-30.4182 151.666  14
  11  -3   1 141.700 146.445  14
  11  -3  -1 57.5810 62.0911  14
  11  -3   1 14.2487 37.5880   1
  11  -3   2 402.736 188.055   6
  11  -3  -2 417.070 198.931   6
 -11  -3   2-15.3224 78.0585  12
 -11   3  -2 443.695 296.733  12
 -11   3  -2 384.667 241.869   5
 -11   3   2 627.994 322.666   5
 -11  -3  -2 190.603 249.737  19
 -11  -3   2 179.892 188.434  19
 -11   3  -2 414.721 226.850  19
 -11   3   2 553.233 258.667  19
  11   3   2 605.267 263.123  18
  11   3  -2 608.961 321.085  18
  11   3   2 506.294 293.346   1
  11   3   2 413.871 187.846   8
 -11  -3  -2 65.4203 157.128  17
  11  -3  -2 194.018 187.356   1
  11   3  -2 515.467 254.519   8
 -11  -3   2 126.363 154.287  17
  11  -3   2 469.290 261.106   8
 -11   3  -2 386.951 121.733   2
 -11   3  -2 430.773 226.084   4
  11  -3  -2 156.703 147.984   8
 -11   3   2 476.972 259.659   4
  11   3  -2 585.881 301.192   1
  11   3   2 236.261 153.619  16
  11  -3   2 357.696 190.346   1
  11   3   2 572.939 361.453  14
  11   3  -2 470.989 341.821  14
 -11   3   2 666.071 289.300   2
  11  -3   2 343.140 239.338  14
  11  -3  -2 208.297 177.920  14
  11  -3   3 103.124 110.938   6
  11  -3  -3 97.4996 114.932   6
 -11  -3   3 42.9367 45.8842  12
 -11   3  -3 42.3751 67.5047  12
  11   3  -3 425.055 280.837  11
 -11  -3   3-255.447 268.401   2
 -11   3  -3 206.079 176.449   5
  11   3  -3 164.498 143.874  10
 -11  -3  -3 76.6163 160.781  19
 -11   3   3 122.815 100.943   5
 -11  -3   3 133.214 211.051  19
 -11   3  -3 168.203 154.394  19
 -11   3   3 63.8204 62.2456  19
  11   3   3 138.381 194.685   1
  11   3   3 127.462 137.628  18
 -11  -3   3-379.483 396.716   4
  11   3  -3 71.4923 131.252  18
  11   3   3 174.144 223.409   8
 -11  -3  -3 124.204 140.526  17
  11   3  -3 194.368 206.840   8
 -11  -3   3-99.1515 151.266  17
 -11   3  -3 118.670 111.983   4
  11  -3   3 101.977 44.8792   8
  11  -3   3-18.7344 131.375   1
 -11   3   3 141.847 188.708   4
  11  -3  -3 82.5756 147.342   1
  11   3   3 96.1167 81.7310  16
  11   3  -3 70.7463 66.2711   1
  11   3   3 93.2537 112.171  14
  11   3  -3 49.1322 223.663  14
 -11   3   3 232.194 164.354   2
  11  -3   3 69.5440 75.1095  14
  11  -3  -3 186.767 201.885  14
  11  -3   4 176.260 152.215   6
  11   3  -4 102.170 80.9266  13
 -11   3  -4-29.2583 88.3545  12
 -11  -3   4 50.8264 70.0842   5
  11   3  -4 149.537 112.637  11
 -11   3  -4-9.54810 61.7954   5
  11   3  -4 59.5535 112.235  10
 -11  -3   4-83.1749 175.961   2
 -11  -3  -4-24.7401 31.4619  19
  11   3   4-64.6636 187.168   1
 -11   3   4 113.507 131.663   5
 -11  -3   4-21.9587 56.9362  19
 -11   3  -4 105.352 152.321  19
 -11   3   4 25.1271 137.463  19
  11   3   4 162.236 124.052  18
  11   3  -4 127.323 147.933  18
 -11  -3   4-252.670 338.787   4
  11  -3   4 62.0902 73.1490   1
  11   3   4 277.570 230.996   8
 -11  -3  -4-32.1832 74.2211  17
  11   3  -4 300.815 169.669   8
 -11  -3   4 96.5025 158.412  17
 -11   3  -4 178.449 196.302   4
  11  -3   4 114.261 162.268   8
 -11   3   4 96.1611 137.015   4
  11   3   4 99.0231 136.901  16
  11   3   4 158.364 159.876  14
  11   3  -4 221.321 195.841   1
  11   3  -4-3.74455 5.66686  14
 -11   3   4 149.853 182.528   2
  11  -3   4 95.9599 140.466  14
  11  -3  -4 42.3445 84.8113   1
  11  -3  -4 139.361 195.526  14
  11  -3   5 230.062 138.496   6
  11   3  -5 337.281 179.551  13
 -11   3  -5 39.6850 20.3646  12
  11  -3  -5 173.901 215.067   1
 -11  -3   5 61.5720 88.9938   5
  11   3  -5 332.063 254.177  11
 -11   3  -5 244.304 192.979   5
 -11   3  -5 318.069 161.252  20
  11   3   5-110.636 293.057   1
  11   3  -5 307.710 140.061  10
 -11  -3  -5 292.101 302.826  19
 -11  -3   5-1.43540 57.4970   2
  11  -3   5 212.235 178.480   1
 -11   3   5 306.241 253.169   5
 -11  -3   5 143.572 85.4564  19
  11   3  -5 1099.51 445.192   9
 -11   3  -5 34.0291 87.5443  19
  11   3   5 264.625 168.247  18
  11   3  -5 285.614 196.159  18
 -11  -3   5 14.6631 121.570   4
  11   3   5 311.835 292.005   8
 -11  -3  -5 86.3389 24.1853  17
 -11  -3   5 27.5550 81.1250  17
  11   3  -5 433.752 243.620   8
 -11   3  -5 82.2672 128.917   4
  11  -3   5 395.269 204.662   8
 -11   3   5 239.245 185.279   4
  11   3   5 264.130 229.338  16
  11   3   5 74.0715 162.871  14
  11   3  -5-83.5256 253.102  14
 -11   3  -5-35.2036 159.700   3
  11   3  -5 184.731 187.062   1
  11  -3   5 308.663 198.114  14
  11  -3  -5 104.828 132.210  14
  11   3  -6 416.525 178.772  13
 -11   3  -6 330.712 230.041  12
 -11  -3   6 194.894 159.902   5
  11   3  -6 423.914 286.121  11
  11  -3   6 621.220 244.638   1
 -11   3  -6 309.808 208.241   5
 -11   3  -6 252.810 116.469  20
  11  -3  -6 305.625 310.905   1
 -11  -3  -6-194.879 280.693  19
  11   3  -6 298.724 161.990  10
 -11   3   6 544.779 344.582   5
 -11  -3   6 299.176 186.675  19
 -11   3  -6 168.235 12.8045  19
  11   3  -6 833.226 364.017   9
 -11  -3   6 203.188 146.890   2
  11   3   6 209.819 129.291  18
  11   3  -6 430.082 217.621  18
 -11  -3   6 145.917 71.5763   4
  11   3   6 425.262 319.695   8
 -11  -3  -6 66.3104 160.060  17
 -11   3  -6 277.987 211.329   4
 -11  -3   6-151.531 119.683  17
  11   3  -6 440.702 217.931   8
  11  -3   6 224.138 144.055   8
  11   3  -6 416.451 333.823  14
  11  -3   6 461.338 213.964  14
 -11   3  -6 39.6631 109.956   3
  11  -3  -6 177.938 175.113  14
  11   3  -6 559.292 299.438   1
  11  -3   6 458.807 204.627   6
  11   3  -7 237.673 230.632   1
  11   3  -7 78.0019 87.9188  13
  11  -3   7 1230.26 493.124   1
 -11  -3   7 93.8374 209.363   5
  11   3  -7 398.670 267.649  11
 -11   3  -7 390.707 264.014   5
 -11   3  -7 22.1911 75.1133  20
 -11  -3  -7-76.2537 113.333  19
  11   3  -7 71.7089 48.7452  10
 -11  -3   7 41.5171 57.4574  19
 -11   3  -7 913.803 414.456  19
  11   3  -7 728.876 408.506   9
 -11  -3   7 88.2224 118.303   2
  11   3   7-124.923 199.736  18
  11   3  -7 238.359 199.224  18
 -11  -3   7 161.353 159.001   4
  11   3   7 108.175 185.493   8
 -11  -3  -7-2.46837 85.8362  17
 -11   3  -7 113.526 173.975   4
 -11  -3   7 112.689 247.851  17
  11  -3   7 680.582 380.151   8
  11   3  -7 213.704 165.085   8
  11   3  -7 191.247 263.528  14
  11  -3   7 795.257 437.211  14
 -11   3  -7 345.384 542.511   3
  11  -3   7 408.450 353.622   6
  11   3  -8 139.266 62.9162  13
  11   3  -8 144.431 135.948   1
 -11  -3   8 36.2893 125.347   5
 -11   3  -8 143.512 158.820   5
  11   3  -8 229.451 139.550  11
 -11   3  -8 1048.27 413.169  20
 -11  -3  -8 99.0518 156.947  19
  11   3  -8-1424.47 747.837  10
 -11   3  -8 859.310 420.982  19
 -11  -3   8 178.345 168.388  19
  11   3  -8 546.727 445.087   9
 -11  -3   8 44.2790 27.7146   2
  11   3  -8 192.766 251.711  18
  11   3   8 225.214 237.526   8
 -11  -3   8 102.894 61.7060   4
 -11  -3  -8 0.60914 89.4833  17
 -11   3  -8 749.519 361.370   4
 -11  -3   8-6.55333 121.961  17
  11   3  -8 116.261 101.178   8
 -11   3  -8-359.157 471.161   7
  11  -3   8 1511.77 475.095   6
 -11   3  -8-234.250 435.960  15
 -11   3  -8 2304.09 734.987   3
  11   3  -8 319.365 328.947  14
 -11   3  -9-116.780 118.517   3
  11   3  -9-6.01263 80.5046  13
  11   3  -9-4.35937 14.7396   1
 -11   3  -9 181.810 271.154  12
 -11   3  -9-191.832 217.820   5
 -11  -3   9-19.1517 16.6146   5
  11   3  -9 105.987 184.913  11
 -11   3  -9-21.0077 149.832  20
 -11   3  -9-8.06922 127.687  19
 -11  -3   9 9.15500 54.1110  19
  11   3  -9-648.500 556.207   9
 -11  -3   9 49.8960 106.504   2
  11   3  -9-207.643 237.842  18
  11   3   9 46.3063 62.4251   8
 -11  -3   9-30.9839 156.461   4
 -11   3  -9-72.6544 84.5394   4
  11  -3   9 139.767 274.070   8
 -11  -3   9 48.7264 87.0045  17
  11   3  -9 60.1824 101.960   8
 -11   3  -9-51.6474 138.406   7
 -11   3  -9 192.317 365.266  15
  11  -3   9 313.163 260.387   1
  11   3  -9-97.8111 282.055  14
  11  -3   9 20.1641 119.159  14
  11  -3   9-21.4061 46.4617   6
 -11   3 -10 9.95026 86.6014   3
  11   3 -10 79.4791 129.464  13
 -11   3 -10-34.8116 117.489  12
  11   3 -10 68.7108 180.693   1
 -11   3 -10-118.162 175.170   5
 -11  -3  10 84.2379 126.495   5
  11   3 -10 77.8072 183.888  11
 -11   3 -10 38.6869 111.762  20
 -11   3 -10-29.1525 106.648  19
 -11  -3  10 104.004 190.956  19
  11   3 -10-395.868 405.745   9
  11   3 -10 99.6113 79.8386  18
 -11  -3  10 45.1548 56.9106   2
  11   3  10 256.406 420.041   8
 -11   3 -10 211.908 270.476   4
 -11  -3  10-117.884 183.236   4
  11  -3  10 68.8396 76.6061   8
 -11  -3  10 39.9542 156.899  17
  11   3 -10-83.1109 183.151   8
  11  -3  10-404.313 462.171  16
  11  -3  10 472.543 320.882   1
 -11   3 -10 17.6494 40.2371   7
 -11   3 -10 66.4158 133.684  15
  11   3 -10-73.4258 147.909  14
  11  -3  10-9.46127 51.8894  14
  11  -3  10 76.2347 111.150   6
  11  -4   0 243.870 206.109   6
 -11  -4   0 178.850 235.689  19
 -11   4   0 289.131 203.748   5
 -11   4   0 238.947 183.963  19
  11   4   0 179.779 144.452  18
  11   4   0 134.613 170.781   1
  11   4   0 302.367 250.728   8
 -11  -4   0-97.8082 134.185  17
  11  -4   0 250.361 220.495   8
 -11   4   0 321.656 228.078   4
  11  -4   0 84.4309 132.034   1
  11   4   0 191.851 159.809  14
 -11   4   0 334.919 188.101   2
  11  -4   0 179.344 188.284  14
  11   4   1 1583.48 541.151   1
  11   4  -1 1994.72 593.662   1
  11  -4  -1 1580.27 542.675   6
 -11   4  -1 2055.93 543.714   5
 -11   4   1 1844.16 532.255   5
 -11   4  -1 1953.63 402.253   2
 -11   4  -1 1694.96 473.512  19
 -11   4   1 1762.75 494.649  19
 -11  -4  -1 63.9098 92.5563  19
 -11  -4   1 118.847 199.070  19
  11   4   1 1656.60 446.373  18
  11   4  -1 1701.94 479.652  18
  11   4  -1 1658.35 473.700   8
 -11   4  -1 1949.69 529.699   4
 -11   4   1 1829.87 513.783   4
  11  -4   1 1061.64 389.470   1
  11   4   1 1340.70 468.604   8
 -11  -4  -1-126.019 163.232  17
 -11  -4   1 57.4130 190.069  17
  11  -4   1 1040.53 415.653   8
  11  -4  -1 198.595 214.523   8
  11  -4   1 1504.72 453.767   6
  11   4  -1 1147.89 534.944  14
  11  -4   1 1144.71 411.721  14
  11  -4  -1 871.191 363.961  14
  11  -4  -1 772.209 366.378   1
  11  -4   2 197.549 191.035   6
  11  -4  -2 163.114 166.286   1
  11  -4   2 82.6300 91.4200   1
 -11   4  -2-28.0206 171.281   5
 -11  -4  -2-13.8553 110.970  19
  11   4   2-116.457 215.440   1
 -11  -4   2 14.2200 170.496  19
 -11   4   2-11.4040 132.677   5
 -11   4  -2 96.2183 87.6035  19
 -11   4   2-4.36244 164.013  19
  11   4   2 104.195 151.635  18
  11   4  -2 174.138 182.124  18
  11   4   2 66.7584 132.657   8
  11   4  -2 426.089 248.529   8
 -11  -4  -2-50.5045 140.893  17
 -11  -4   2 265.635 239.233  17
  11   4  -2 113.114 126.874   1
  11  -4   2 50.7762 127.989   8
 -11   4  -2 149.152 151.442   4
 -11   4   2 115.166 92.5109   4
  11   4  -2 183.928 211.018  14
 -11   4  -2 135.094 80.8270   2
  11  -4   2 74.4044 97.0540  14
  11  -4  -2 42.7021 94.0499  14
  11  -4   3 231.206 172.082   6
  11  -4   3 419.952 239.932   1
 -11   4  -3 198.082 226.832  12
  11   4   3-36.1476 277.030   1
 -11   4  -3 341.999 184.074   5
 -11  -4  -3 139.800 161.992  19
 -11  -4   3 77.4517 151.166  19
 -11   4   3 423.540 303.774   5
 -11   4  -3 341.686 221.874  19
  11   4   3 154.967 117.075  18
  11   4  -3 346.270 196.747  18
  11   4   3 253.079 223.368   8
 -11  -4  -3 114.930 185.938  17
  11   4  -3 421.143 241.698   8
 -11  -4   3-75.5398 80.3405  17
  11   4  -3 372.801 259.938   1
  11  -4   3 197.247 223.431   8
 -11   4  -3 298.501 179.736   4
 -11   4   3 271.578 202.380   4
  11   4  -3 70.8452 100.851  14
  11  -4   3 418.168 247.687  14
  11  -4   4 581.931 266.554   6
 -11   4  -4 614.155 302.772  12
 -11   4  -4 660.006 304.617   5
 -11  -4  -4 110.604 236.020  19
 -11  -4   4 72.1059 90.2946  19
 -11   4  -4 562.954 266.166  19
  11   4   4 236.850 144.326  18
  11   4  -4 513.612 281.599  18
  11   4   4 408.553 266.638   8
 -11  -4  -4 10.1345 151.634  17
  11   4  -4 560.635 264.433   8
 -11  -4   4 40.2930 82.6667  17
  11  -4   4 262.317 171.339   8
 -11   4  -4 486.090 261.989   4
  11   4  -4 563.369 327.847   1
  11  -4   4 565.488 258.675   1
  11   4  -4 165.580 192.611  14
  11  -4   4 554.164 285.876  14
  11   4  -5-37.2602 164.845  13
  11  -4   5 85.4211 104.775   6
 -11   4  -5 43.4012 144.605  12
  11   4  -5 636.053 329.701  11
 -11  -4   5-309.735 341.011   2
 -11   4  -5 31.9192 47.9056   5
 -11  -4   5 66.1608 197.383  19
 -11   4  -5-57.1634 123.738  19
  11   4   5-184.289 254.473  18
  11   4  -5 11.7552 89.1418  18
  11   4   5 105.288 154.357   8
 -11  -4  -5 169.154 130.501  17
  11   4  -5 133.328 124.611   8
 -11  -4   5 98.6579 184.912  17
 -11   4  -5 54.4742 70.7009   4
  11  -4   5 98.5939 54.4945   8
  11  -4   5 159.544 122.273   1
  11   4  -5-17.8335 29.1325   1
  11   4  -5-20.9441 197.329  14
  11  -4   5-3.74160 42.2114  14
  11  -4   6 504.928 232.285   6
  11   4  -6 795.068 310.448  13
 -11   4  -6 377.099 224.117  12
  11   4  -6 731.787 344.333  11
 -11   4  -6 343.964 208.137   5
  11   4  -6 463.119 192.399  10
 -11  -4   6 64.2805 112.089   2
 -11  -4   6 547.696 328.820  19
 -11   4  -6 91.1429 95.7840  19
  11   4  -6 580.092 325.940  18
  11  -4   6 615.257 241.071   1
  11   4   6 381.883 305.504   8
  11   4  -6 529.726 237.852   8
 -11  -4   6 175.574 319.917  17
 -11   4  -6 336.959 221.149   4
  11  -4   6 556.207 271.602   8
  11   4  -6 774.889 396.077   1
  11   4  -6 89.8244 188.011  14
 -11   4  -6 20.8305 245.261   3
  11  -4   6 591.662 282.022  14
  11  -4   7 267.825 216.251   6
  11   4  -7 75.9776 119.726  13
 -11   4  -7 158.824 203.341  12
  11   4  -7-107.197 224.894  11
 -11   4  -7 45.0971 113.273   5
  11   4  -7 169.918 157.433  10
  11  -4   7 123.368 160.355   1
 -11  -4   7-53.8051 73.2314   2
 -11  -4   7 64.3300 195.636  19
 -11   4  -7 117.509 153.362  19
  11   4  -7 8.13783 134.239  18
 -11  -4   7-20.1537 108.408  17
  11   4  -7 106.701 45.4976   8
 -11   4  -7-2.14072 127.285   4
  11  -4   7 249.512 182.039   8
  11   4  -7-52.3793 165.544   1
  11   4  -7-137.598 300.244  14
 -11   4  -7 127.429 256.674   3
  11  -4   7 84.7191 162.765  14
  11  -4   8 172.114 162.421   6
  11   4  -8 311.311 190.515  13
 -11   4  -8 204.420 230.960  12
  11  -4   8 581.817 246.588   1
 -11  -4   8 33.9594 50.9341   5
  11   4  -8 600.123 347.597  11
 -11   4  -8 290.623 202.800   5
 -11   4  -8 82.3561 43.9601  20
  11   4  -8 311.909 150.629  10
 -11  -4   8 169.157 154.039  19
  11   4  -8 1076.27 530.654   9
 -11  -4   8 85.2642 163.453   2
 -11   4  -8 105.351 117.515  19
  11   4  -8 464.682 325.534  18
 -11   4  -8 182.611 136.067   4
 -11  -4   8 277.413 250.291  17
  11   4  -8 372.604 231.558   8
  11  -4   8 252.684 146.703   8
  11   4  -8 40.0426 241.767  14
  11   4  -8 303.390 243.084   1
  11  -4   8 205.007 129.985  14
 -11   4  -8 102.357 60.8695   3
  11  -4   9 143.308 210.972   1
  11   4  -9-33.6872 82.5226  13
 -11   4  -9 26.0605 89.3251  12
 -11  -4   9 74.6941 183.615   5
  11   4  -9 27.4399 174.790  11
 -11   4  -9-68.3285 189.388   5
 -11   4  -9 33.1749 50.3451  20
  11   4  -9 330.908 264.111  10
 -11  -4   9 0.14169 53.0685  19
  11   4  -9-316.083 203.885   9
 -11   4  -9-12.2150 44.7872  19
 -11  -4   9-13.7720 52.6667   2
  11   4  -9-11.3142 81.3613  18
 -11   4  -9 7.29014 70.6025   4
 -11  -4   9-107.345 200.185  17
  11  -4   9 28.6538 61.4126   8
  11   4  -9-56.6164 126.649   8
  11   4  -9-51.9150 155.110  14
  11  -4   9 42.2025 125.025  14
  11   4  -9 94.5852 78.0245   1
 -11   4  -9 37.0567 61.8632   3
  11  -4   9 160.510 198.240   6
  11   5   0 404.660 174.092   1
 -11  -5   0 60.9620 185.687  19
 -11   5   0 1095.17 451.361   5
 -11   5   0 733.675 287.975  19
  11   5   0 601.887 270.103  18
  11  -5   0 389.069 290.289   1
  11   5   0 481.265 282.796   8
 -11  -5   0 228.322 228.189  17
 -11   5   0 1029.63 422.589   4
  11  -5   0 339.075 247.774  14
  11  -5   1 565.294 413.673   6
  11  -5   1 179.413 161.876   1
 -11   5  -1 1681.81 536.191   5
  11   5   1-74.3824 244.948   1
 -11   5  -1 1630.92 528.073  19
 -11  -5  -1-180.452 208.170  19
 -11  -5   1 30.4303 114.697  19
  11   5  -1 413.966 250.440   1
  11   5   1 374.665 244.662  18
  11   5  -1 459.750 256.939  18
 -11   5  -1 1448.89 615.542   4
  11   5   1 309.302 233.472   8
  11   5  -1 381.477 239.300   8
 -11  -5  -1-80.5817 63.0965  17
 -11  -5   1-156.394 221.466  17
  11  -5   1-355.927 409.463   8
  11  -5   1 136.074 167.575  14
  11  -5   2 878.806 441.140   6
 -11   5  -2 1440.52 502.997   5
 -11   5  -2 1583.87 498.185  19
 -11  -5   2 201.838 232.950  19
  11   5  -2 950.725 434.611   1
  11   5   2 611.556 272.273  18
 -11   5  -2 1544.86 603.338   4
  11   5  -2 828.332 353.894  18
  11   5   2 644.313 308.435   8
  11   5  -2 752.003 307.838   8
 -11  -5  -2 147.985 221.484  17
 -11  -5   2 13.5688 92.4521  17
  11  -5   2 475.131 256.714   8
  11  -5   2 506.866 257.084   1
  11  -5   2 533.810 297.151  14
  11  -5   3 644.087 343.968   6
 -11   5  -3 713.938 326.446   5
 -11  -5   3 132.539 131.125  19
 -11   5  -3 504.270 271.793  19
  11   5   3 162.423 33.7332  18
  11   5  -3 778.077 350.173  18
  11   5  -3 783.391 397.846   1
  11   5   3 360.424 241.050   8
 -11  -5  -3 43.6892 144.884  17
  11   5  -3 658.028 288.946   8
 -11  -5   3-30.7185 155.940  17
  11  -5   3 421.016 241.588   1
  11  -5   3 409.816 233.067   8
 -11   5  -3 832.669 375.844   4
  11  -5   3 284.524 247.460  14
  11  -5   4 53.9832 121.687   6
 -11   5  -4-442.734 330.430  12
  11  -5   4 88.3097 128.048   1
 -11   5  -4 12.6286 80.4569   5
 -11  -5   4-52.4063 123.507  19
 -11   5  -4-191.499 164.681  19
  11   5  -4 252.618 212.802  18
  11   5  -4 289.889 301.963   1
  11   5  -4 55.2918 97.2285   8
 -11  -5   4-77.4404 148.267  17
  11  -5   4 30.8133 84.2272   8
 -11   5  -4-55.5998 115.079   4
  11  -5   4 156.191 190.318  14
  11  -5   5 725.271 329.581   6
  11  -5   5 572.229 258.766   1
 -11   5  -5 613.083 385.188  12
 -11   5  -5 530.404 246.578   5
 -11   5  -5 736.306 300.318  19
  11   5  -5 638.521 368.066  18
  11   5  -5 756.010 285.537   8
  11   5  -5 633.706 321.157   1
 -11  -5   5-98.6958 154.443  17
  11  -5   5 489.941 229.998   8
 -11   5  -5 540.263 317.556   4
  11  -5   5 323.389 227.472  14
  11   5  -6-215.787 297.677  13
  11  -5   6-98.8847 123.511   6
 -11   5  -6-47.0720 137.945  12
 -11   5  -6 162.350 205.326   5
 -11  -5   6-96.1385 161.953  19
 -11   5  -6 162.443 161.952  19
  11   5  -6-37.3494 68.0624  18
  11   5  -6 278.721 168.955   8
 -11  -5   6-67.8976 95.3060  17
  11   5  -6 110.815 142.201   1
 -11   5  -6 51.8583 75.8940   4
  11  -5   6-63.7254 78.4515   8
  11  -5   6 60.4505 90.7810   1
  11  -5   6-4.18777 87.6311  14
  11   5  -7 986.282 362.743  13
  11  -5   7 981.582 355.489   6
 -11   5  -7 772.937 391.091  12
  11   5  -7 1804.34 609.434  11
 -11  -5   7-170.962 316.479   2
 -11   5  -7 999.321 390.592   5
 -11  -5   7 284.110 239.242  19
 -11   5  -7 1002.25 398.482  19
  11   5  -7 1500.10 406.664   8
  11   5  -7 1224.54 484.905  18
 -11  -5   7-90.3266 104.901  17
  11  -5   7 882.888 310.718   1
 -11   5  -7 778.560 344.380   4
  11  -5   7 987.235 387.474   8
  11   5  -7 1114.87 479.837   1
 -11   5  -7 136.607 122.041   3
  11  -5   7 982.401 351.089  14
  11   6   0 360.749 246.450  18
  11   6   0 445.569 223.131   8
 -11  -6   0 28.5261 130.421  17
  11   6  -1-303.378 349.177   1
 -11  -6   1 79.1112 174.315  19
  11   6  -1 336.082 247.048  18
  11   6  -1 442.818 278.504   8
 -11  -6  -1 111.675 190.882  17
 -11  -6   1 133.696 202.178  17
  11   6  -2 32.6251 264.577   1
 -11  -6   2-58.4713 139.998  19
  11   6  -2 591.750 297.275  18
  11   6  -2 360.603 256.635   8
 -11  -6   2 0.59446 16.5133  17
  11  -6   3 350.661 442.977   6
  11  -6   3 213.436 214.804   1
  11   6  -3-217.783 209.041   1
 -11  -6   3 147.100 183.317  19
 -11   6  -3-2.27843 79.5540   5
 -11   6  -3-344.425 332.783  19
  11   6  -3-163.784 170.329  18
  11   6  -3-24.6298 112.374   8
 -11  -6   3 27.0582 139.190  17
  11  -6   3-526.942 572.759   8
 -11   6  -3 301.809 272.338   4
  11  -6   3-2.90778 25.5003  14
  11  -6   4 313.363 284.547   6
 -11  -6   4-13.2906 188.303  19
 -11   6  -4 822.516 380.231   5
  11   6  -4 617.333 337.622   1
 -11   6  -4 578.161 319.700  19
  11   6  -4 565.370 328.991  18
  11   6  -4 682.214 271.721   8
 -11  -6   4 117.672 227.968  17
  11  -6   4-170.511 189.842   8
 -11   6  -4 682.747 380.643   4
  11  -6   4 221.873 181.014   1
  11  -6   4 426.773 294.751  14
  11  -6   5 173.590 102.742   6
 -11   6  -5-566.436 537.934  12
 -11   6  -5 286.211 276.645   5
 -11  -6   5 62.7863 147.088  19
 -11   6  -5 106.841 158.822  19
  11   6  -5 100.921 52.4046   1
  11   6  -5 36.5109 93.7315  18
  11   6  -5 125.136 175.524   8
 -11  -6   5-75.3086 215.883  17
  11  -6   5 221.491 221.553   1
  11  -6   5 125.572 77.8883   8
 -11   6  -5 146.505 296.946   4
  11  -6   5 133.769 197.286  14
  12   0   0 296.250 196.021   1
 -12   0   0-19.8766 98.7506  12
 -12   0   0 95.4609 77.6582   5
  12   0   0 185.860 104.218  11
 -12   0   0 251.884 153.083   2
 -12   0   0-45.8050 128.248  19
  12   0   0 393.879 191.786  18
 -12   0   0 320.784 238.943   4
  12   0   0 406.412 223.831   8
 -12   0   0 82.1974 225.233  17
 -12   0   0 330.113 137.718   7
 -12   0   0 239.284 195.442  15
  12   0   0 546.614 339.293  14
  12   0   0 504.044 225.462   6
  12   0   1 112.305 151.475   1
 -12   0  -1 86.5577 138.737  12
 -12   0   1-54.8197 138.718  12
  12   0  -1-75.6392 166.325   1
 -12   0  -1-33.3118 23.8795   5
 -12   0   1 88.0163 129.002   5
  12   0   1-242.393 290.474  11
  12   0  -1-63.3378 130.341  11
 -12   0  -1-343.594 314.716   2
 -12   0  -1-13.5491 47.9366  19
 -12   0   1-97.0196 89.2408  19
 -12   0   1 81.4706 123.646   2
  12   0   1 7.85750 15.0578  18
  12   0  -1-57.3951 114.617  18
 -12   0  -1 6.48204 80.5653   4
 -12   0   1-53.9829 111.350   4
  12   0   1 63.4978 119.053   8
  12   0  -1 120.354 166.466   8
 -12   0  -1-185.916 249.128  17
 -12   0   1-81.5349 210.449  17
 -12   0  -1-666.447 364.214   7
 -12   0   1-31.8920 108.945   7
 -12   0  -1-175.412 319.647  15
 -12   0   1 1.31204 79.3049  15
  12   0   1 14.8534 46.9117  14
  12   0  -1-73.3066 117.224  14
  12   0   1-100.531 157.053   6
  12   0  -1-23.5260 38.8940   6
 -12   0  -2 177.395 211.590  12
 -12   0  -2 260.502 206.352   5
  12   0   2 528.363 198.688  11
 -12   0   2 446.897 286.113   5
  12   0  -2 333.743 257.081  11
  12   0  -2 723.376 327.302   1
 -12   0  -2 95.2540 146.117  19
 -12   0   2 414.103 233.407  19
 -12   0   2 522.179 206.523   2
  12   0   2 974.031 369.844  18
  12   0  -2 866.898 396.501  18
 -12   0  -2 334.456 241.830   4
 -12   0   2 298.626 233.137   4
  12   0   2 793.956 338.745   8
  12   0  -2 937.849 379.429   8
 -12   0   2 443.030 214.053  17
 -12   0  -2 345.650 21.6635   7
 -12   0   2 776.799 406.104   7
 -12   0  -2 115.773 339.052  15
 -12   0   2 974.359 442.077  15
  12   0   2 646.116 320.529  14
  12   0  -2 845.003 438.372  14
  12   0   2 941.632 353.800   6
  12   0  -2 1167.11 361.204   6
  12   0   2 648.950 308.344   1
 -12   0  -3 219.050 270.916  12
 -12   0  -3 141.136 227.979   5
 -12   0   3-87.5526 125.644   5
  12   0  -3-41.0616 52.9993  11
 -12   0  -3 218.568 350.464  19
  12   0  -3-19.6926 89.1354   1
 -12   0   3-144.103 208.026  19
  12   0   3 151.860 361.633  18
 -12   0   3-12.3330 24.4723   2
  12   0  -3-117.944 209.946  18
 -12   0  -3-50.3296 57.0056   4
  12   0   3 92.4986 156.292   8
 -12   0   3-16.1956 18.3006   4
 -12   0  -3 442.227 475.714  17
 -12   0   3 42.6907 48.3327  17
  12   0  -3 20.1152 48.2928   8
 -12   0  -3-326.368 332.255   7
 -12   0   3 293.534 345.483   7
 -12   0  -3-206.654 466.829  15
 -12   0   3 284.658 312.952  15
  12   0   3 101.446 209.026   1
  12   0   3 108.095 278.314  14
  12   0  -3-33.7666 158.899  14
  12   0   3 545.081 462.939   6
  12   0  -3-50.4635 73.6533   6
  12   0  -4 2478.14 334.647  13
  12   0   4 3537.12 750.216   1
 -12   0  -4 1247.85 384.813  12
  12   0  -4 2670.36 646.598   1
 -12   0   4 1803.19 562.082   5
 -12   0   4 2105.96 421.710   2
 -12   0  -4 966.294 436.594   5
  12   0  -4 962.495 479.247  11
 -12   0  -4 1627.58 600.919  19
 -12   0   4 2005.41 521.786  19
 -12   0   4 1928.25 585.367   4
  12   0   4 3975.58 758.904  18
  12   0  -4 2526.22 766.728  18
  12   0   4 3073.97 688.709   8
  12   0  -4 2472.52 613.809   8
 -12   0  -4 866.982 407.280   4
 -12   0  -4 784.206 482.295  17
 -12   0   4 1508.19 638.896  17
  12   0   4 4496.98 912.727   6
  12   0  -4 3576.06 539.911   6
  12   0   4 3848.48 833.613  14
  12   0  -4 2685.17 745.196  14
 -12   0  -4 795.471 347.990   3
 -12   0  -5 140.425 155.546   3
 -12   0  -5 576.096 321.707  12
  12   0  -5 2.95405 210.578  11
 -12   0   5 66.0850 47.9559   5
 -12   0  -5 502.686 320.509  19
 -12   0   5-4.13387 72.3819  19
  12   0   5-8.69646 94.2019  18
 -12   0  -5 329.193 256.972   4
  12   0  -5 21.2160 193.857  18
  12   0  -5 13.8734 76.8705   1
 -12   0   5 53.9746 72.5748   2
  12   0   5 150.639 165.387   8
 -12   0  -5-211.063 216.812  17
 -12   0   5-102.387 190.622   4
 -12   0   5 224.256 245.816  17
  12   0  -5 48.2434 15.4638   8
  12   0   5 118.297 196.813   1
  12   0   5 86.7192 183.745  14
  12   0   5 147.632 107.202   6
  12   0  -5-31.7940 189.117  14
  12   0   6 5004.79 940.792   1
 -12   0  -6 352.183 187.644   3
 -12   0  -6 454.856 312.977  12
 -12   0   6 3903.62 828.974   5
  12   0  -6 3883.97 841.670   1
 -12   0   6 3616.61 623.938   2
  12   0  -6 1215.56 657.666  11
 -12   0   6 3799.38 744.075  19
 -12   0  -6 766.329 460.441  19
 -12   0   6 3918.92 806.023   4
  12   0   6 5950.98 768.864  18
  12   0  -6 3501.13 933.787  18
  12   0   6 4931.82 883.911   8
  12   0  -6 3353.46 817.981   8
 -12   0   6 2900.44 889.308  17
  12   0   6 5796.97 991.439   6
  12   0   6 4790.87 914.673  14
  12   0  -6 3969.21 892.097  14
 -12   0  -7 325.783 301.131  12
 -12   0  -7 298.561 243.847   3
  12   0  -7 244.215 173.443  11
 -12   0   7-142.364 61.3558   5
 -12   0  -7-30.8614 72.6154  19
 -12   0   7-9.27412 84.6677  19
  12   0  -7-14.6299 108.086  18
  12   0   7-26.2804 73.0112   1
  12   0   7-18.6785 96.5505   8
 -12   0   7-11.9159 43.9444   2
 -12   0   7 5.22862 5.31069   4
 -12   0   7 116.075 241.070  17
  12   0  -7-35.2954 38.1659   1
  12   0  -7-244.625 443.137   8
  12   0   7-18.6198 73.6085  14
  12   0   7-64.2682 188.516   6
  12   0  -7 35.6046 67.2524  14
  12   0   8 4284.39 880.613   1
 -12   0   8 3654.90 690.476   2
 -12   0   8 3525.03 752.147  19
 -12   0  -8 230.618 252.227  19
  12   0  -8 2425.85 820.938  18
  12   0   8 4652.54 882.691   8
 -12   0   8 3038.21 931.811  17
  12   0  -8 1226.80 506.895   8
  12   0   8 5255.27 973.829   6
  12   0   8 4958.82 914.079  14
 -12  -1   0-91.5705 132.133  12
 -12   1   0-171.042 258.826  12
 -12  -1   0-181.851 183.045   5
  12   1   0 15.1247 130.866  11
 -12   1   0 44.0003 110.674   5
  12  -1   0 32.7535 46.3594   1
 -12  -1   0 15.4768 137.473  19
 -12   1   0 62.8759 152.702  19
 -12   1   0 0.09799 45.3964   2
  12   1   0 39.9684 95.8623  18
  12  -1   0 24.4739 208.525  18
 -12  -1   0 109.647 181.541   4
  12   1   0 32.3680 144.735   8
 -12   1   0 106.059 96.6701   4
 -12  -1   0-9.07023 104.723  17
  12  -1   0 85.6247 134.466   8
 -12   1   0 6.79778 46.3056  17
  12   1   0-95.3900 132.084   6
  12   1   0-54.6967 99.9679  14
  12  -1   0-40.4855 53.9971  14
  12   1   0 58.9125 130.828   1
  12  -1   0 86.4533 112.172   6
  12  -1  -1 225.297 167.534   6
  12   1  -1 57.8657 71.8049   1
 -12  -1  -1 15.1697 102.489  12
 -12  -1   1 42.3389 74.2745  12
 -12   1  -1 32.4281 107.302  12
 -12  -1  -1 66.6622 86.8023   5
 -12  -1   1 38.3215 50.1947   5
  12   1   1 271.668 126.858  11
  12   1  -1 223.433 61.4247  11
  12  -1   1 150.056 92.9069   1
 -12   1  -1 165.836 197.422   5
 -12   1   1 46.8360 34.7921   5
 -12  -1   1-109.219 177.596   2
 -12  -1  -1 53.9882 179.765  19
 -12  -1   1 154.080 231.794  19
 -12   1  -1 55.2431 124.085  19
 -12   1  -1 97.8698 109.468   2
 -12   1   1 155.778 107.472  19
  12  -1  -1 185.703 146.072   1
  12   1   1 366.289 203.061  18
  12   1  -1 191.854 158.013  18
 -12  -1  -1 98.5300 95.5959   4
 -12   1   1 173.546 131.418   2
  12  -1   1 6.50035 108.573  18
  12  -1  -1 162.449 110.853  18
 -12  -1   1 273.436 249.406   4
 -12   1  -1 239.075 250.605   4
  12   1   1 192.698 175.298   8
  12   1  -1 235.220 200.172   8
 -12  -1  -1 84.8053 65.0229  17
 -12   1   1 31.4183 121.806   4
 -12  -1   1 335.582 297.456  17
  12  -1   1 68.5508 62.1945   8
  12  -1  -1 184.466 183.424   8
 -12   1  -1 113.796 115.719  17
 -12   1   1 86.0085 122.357  17
 -12   1  -1 396.028 346.402   7
 -12   1  -1 274.189 309.545  15
  12   1   1 260.951 167.965   1
  12   1   1 59.8822 199.090   6
  12   1   1 361.015 263.382  14
  12   1  -1 134.957 140.124   6
  12   1  -1 342.502 276.166  14
  12  -1   1 287.279 226.782  14
  12  -1  -1 123.327 119.309  14
  12  -1   1 313.295 183.316   6
  12  -1  -2 32.3641 55.1403   6
  12   1  -2 40.3286 93.1044   1
 -12  -1  -2 21.2737 10.3814  12
 -12   1  -2-75.9129 117.147  12
  12  -1   2 96.3105 157.197   1
 -12  -1   2-53.7841 130.069  12
  12   1   2 96.2597 182.966  11
 -12  -1   2-100.262 86.4810   5
  12   1  -2 182.056 254.635  11
 -12   1  -2-79.5264 29.8984   5
 -12   1   2-93.6001 155.275   5
 -12   1  -2-92.1538 207.610   2
 -12  -1  -2-140.176 172.175  19
 -12  -1   2 6.02392 74.3753   2
 -12  -1   2 11.8376 204.154  19
 -12   1  -2 30.6715 155.279  19
 -12   1   2-77.1214 149.074  19
  12   1   2-13.2793 93.7687  18
  12   1  -2 23.6314 128.203  18
 -12  -1  -2-54.3777 184.818   4
  12  -1   2-15.8056 212.981  18
  12  -1  -2 111.814 255.497  18
  12  -1  -2 25.6594 113.852   1
 -12  -1   2 215.576 197.954   4
 -12   1   2 46.7569 68.6547   2
 -12   1  -2-25.7894 42.8692   4
  12   1   2 159.345 202.873   8
 -12  -1  -2-182.616 177.552  17
  12   1  -2 8.99655 56.4196   8
  12  -1   2 29.9876 108.247   8
 -12  -1   2 87.8701 203.985  17
 -12   1   2 73.9318 142.879   4
 -12   1  -2-217.790 251.149  17
  12  -1  -2 31.1956 23.4203   8
 -12   1   2-1.42509 225.892  17
 -12   1  -2 315.280 345.927   7
  12   1   2 46.5922 115.478   1
 -12   1  -2-1.23857 182.962  15
  12   1   2-32.9080 136.903   6
  12   1   2 24.9987 123.454  14
  12   1  -2-25.4209 62.0779  14
  12   1  -2 141.998 218.094   6
  12  -1   2-67.0082 26.0500  14
  12  -1  -2 8.15740 133.118  14
  12  -1   2 105.761 180.858   6
  12   1  -3 1227.94 353.298  13
  12   1   3 1433.51 510.412   1
  12  -1   3 1468.79 450.296   1
 -12  -1  -3 228.792 181.053  12
 -12   1  -3 635.851 297.973  12
  12   1  -3 1187.19 440.047   1
 -12   1   3 1112.58 299.296   2
  12   1   3 2102.27 447.510  11
 -12   1  -3 601.827 286.669   5
 -12  -1   3 983.396 435.379   5
  12   1  -3 1899.25 598.935  11
 -12   1   3 990.418 404.716   5
 -12  -1  -3 229.704 158.152  19
 -12   1  -3 1051.19 484.687  19
 -12  -1   3 809.124 373.915  19
 -12   1   3 891.968 354.826  19
 -12  -1   3 768.065 290.346   2
  12   1   3 1554.62 436.800  18
  12   1   3 1695.91 519.438   8
 -12  -1  -3 105.446 152.678   4
  12   1  -3 1743.54 571.885  18
  12  -1   3 1473.26 607.042  18
  12  -1  -3 684.359 417.962  18
 -12  -1   3 735.566 379.762   4
 -12   1  -3 632.812 314.660   4
 -12  -1  -3 61.4275 59.9286  17
  12  -1   3 1115.55 411.724   8
  12  -1  -3 1057.48 415.595   1
 -12  -1   3 1323.54 585.227  17
  12   1  -3 1201.43 407.542   8
 -12   1   3 940.544 411.632   4
 -12   1  -3 746.161 475.718  17
 -12   1   3 745.940 519.680  17
  12  -1  -3 1142.41 449.112   8
 -12   1  -3 896.481 411.440   7
  12  -1   3 1903.28 492.494   6
  12  -1  -3 1386.48 338.716   6
 -12   1  -3 987.015 485.698  15
  12   1   3 1869.40 603.472  14
  12   1   3 1477.96 541.146   6
  12   1  -3 1260.22 496.332  14
  12   1  -3 1348.08 443.125   6
  12  -1   3 1446.69 461.192  14
  12  -1  -3 1207.63 478.935  14
  12  -1   4 69.2411 70.0736   1
  12  -1  -4-15.5687 60.0692   6
  12   1  -4 50.1985 67.2272  13
 -12  -1  -4 247.850 181.456  12
 -12   1  -4 820.863 352.397  12
  12   1   4 122.598 181.700  11
  12   1  -4 6.25732 131.635   1
 -12   1  -4 11.8446 195.457   5
 -12  -1   4-134.700 202.333   5
  12   1  -4-226.022 314.943  11
 -12   1   4 66.3434 108.682   5
 -12  -1  -4 69.2693 126.021  19
 -12   1  -4 727.175 450.852  19
 -12  -1   4 106.592 54.3138  19
 -12   1   4 16.0621 100.946  19
 -12  -1   4-111.825 125.561   2
  12   1   4 93.5035 146.506  18
  12   1  -4 16.7899 110.477  18
  12  -1   4 0.04590 11.9899  18
 -12   1  -4 267.377 275.210   4
 -12  -1   4 0.23894 30.0356   4
  12   1   4 88.8427 49.5421   8
 -12  -1  -4 2.26632 143.842  17
  12  -1   4 101.944 123.296   8
 -12  -1   4-73.9478 127.541  17
  12   1  -4 50.9566 139.675   8
 -12   1  -4 618.435 511.072  17
 -12   1   4-47.3584 59.7052   2
 -12   1   4-42.2676 95.7842   4
 -12   1   4 113.764 152.465  17
  12   1   4 84.9304 86.6839   1
  12  -1  -4 12.0836 116.287   8
  12  -1  -4-50.2849 144.611   1
 -12   1  -4 22.6592 121.723   7
 -12  -1   4-482.975 564.688  15
 -12   1  -4 36.8388 162.574  15
  12   1   4 283.648 238.544   6
  12   1   4 115.615 157.322  14
  12   1  -4-38.6187 181.776  14
  12  -1   4 187.468 163.093  14
 -12   1  -4 466.024 261.675   3
  12  -1  -4 53.8325 35.5428  14
  12  -1   4 34.6776 55.1053   6
  12   1  -5 2632.64 411.691  13
  12   1   5 3030.80 724.121   1
  12  -1   5 2921.05 648.182   1
  12   1  -5 2595.26 649.561   1
 -12  -1   5 2020.62 619.921   5
 -12   1   5 2464.02 650.794   5
 -12  -1   5 1879.06 453.336   2
  12  -1  -5 2048.68 593.172   1
 -12   1   5 2480.60 495.811   2
 -12   1  -5 1378.83 541.955   5
  12   1  -5 2036.77 658.775  11
 -12  -1   5 1848.93 508.148  19
 -12   1   5 2324.77 573.282  19
 -12  -1  -5 540.165 387.144  19
  12   1   5 3659.83 605.603  18
 -12   1   5 2358.18 619.996   4
  12   1  -5 2855.02 760.479  18
  12  -1   5 3685.77 805.943  18
  12   1   5 2911.91 685.035   8
  12  -1   5 2689.88 651.126   8
  12   1  -5 2878.18 661.911   8
  12  -1  -5 1905.53 647.094   8
 -12   1  -5 1511.63 514.531   4
 -12  -1   5 1661.94 553.511   4
 -12  -1  -5 59.4166 188.030  17
 -12  -1   5 1558.51 584.215  17
 -12   1   5 1576.12 676.806  17
 -12   1  -5 1933.55 648.446   7
  12   1   5 2797.59 723.881   6
  12  -1   5 3855.76 738.418   6
  12  -1  -5 2597.42 439.196   6
 -12   1  -5 1903.90 756.387  15
  12   1   5 3031.22 762.860  14
  12  -1   5 2660.13 650.454  14
  12   1  -5 2865.70 777.541  14
  12  -1  -5 2471.16 698.543  14
 -12   1  -5 784.469 406.029   3
 -12   1  -6-163.270 168.623   3
  12   1  -6 14.7846 68.5535  13
 -12   1  -6 92.9969 198.840  12
 -12   1  -6-83.2478 64.8321   5
  12   1  -6-162.279 274.838  11
 -12  -1   6 9.36834 100.650   5
 -12   1   6 50.2805 169.315   5
  12   1  -6-54.6974 121.844   1
 -12  -1  -6-342.190 261.485  19
 -12   1  -6-185.031 175.473  19
 -12  -1   6-129.072 172.916  19
 -12   1   6-101.467 186.810  19
  12   1   6-89.6636 96.8146  18
  12   1   6-47.5398 229.246   1
  12   1  -6-114.216 135.618  18
 -12   1  -6-103.944 154.975   4
 -12  -1   6-16.2162 43.5080   2
  12   1   6-69.9713 66.5342   8
 -12  -1   6-16.8783 119.666   4
 -12  -1  -6-74.7121 126.583  17
  12  -1   6-264.840 257.002   8
 -12  -1   6-52.1639 237.011  17
  12   1  -6 5.50501 51.4415   8
 -12   1   6-11.3252 136.777  17
 -12   1   6 6.44251 101.759   4
  12  -1  -6-326.992 602.984   8
 -12   1   6-37.8553 11.3959   2
 -12   1  -6-956.114 461.766   7
  12  -1   6-79.2632 157.943   1
 -12   1  -6-338.783 431.435  15
  12   1   6 21.9320 106.652   6
  12   1   6-59.1076 183.763  14
  12  -1   6-84.4276 185.310  14
  12  -1  -6 51.0660 122.348   1
  12   1  -6 17.3072 75.5224  14
  12  -1   6-104.240 186.752   6
  12  -1  -6-214.024 208.955  14
  12   1   7 4216.89 910.033   1
 -12   1  -7 417.827 240.973   3
  12  -1   7 5131.07 920.912   1
 -12   1  -7 719.030 289.902  12
  12   1  -7 3849.72 837.592   1
 -12  -1   7 3322.63 828.308   5
 -12   1   7 4406.13 916.092   5
 -12  -1   7 3066.36 600.147   2
  12  -1  -7 2757.11 752.806   1
 -12   1   7 4457.91 768.966   2
  12   1  -7 2573.60 851.577  11
 -12  -1   7 3235.24 710.353  19
 -12   1   7 3955.93 798.365  19
 -12   1  -7 778.774 356.575  19
 -12  -1   7 3361.94 765.127   4
  12   1   7 4928.15 632.839  18
  12   1  -7 3930.50 935.183  18
 -12   1   7 4792.74 897.811   4
  12   1   7 4577.14 889.286   8
  12  -1   7 4386.92 810.414   8
  12   1  -7 4274.51 928.828   8
 -12   1  -7 863.246 395.476   4
 -12  -1   7 2338.31 797.193  17
 -12   1   7 2514.70 925.973  17
 -12   1  -7 876.198 134.573   7
  12   1   7 4245.40 898.201   6
  12  -1   7 5953.57 959.490   6
 -12   1  -7 675.963 339.652  15
  12   1   7 4437.28 931.427  14
  12  -1   7 4525.57 851.619  14
  12   1  -7 3807.24 932.678  14
  12  -1  -7 3024.20 771.580  14
  12  -2   0 50.8131 61.9050   6
 -12  -2   0 137.067 105.154  12
  12   2   0-99.4353 284.701  11
 -12   2   0 70.5080 73.7276   5
 -12  -2   0 205.325 285.311  19
 -12   2   0 46.4470 86.8897  19
  12   2   0-98.3256 231.717  18
 -12  -2   0-720.281 375.962   4
 -12   2   0 34.0993 89.4624   2
  12   2   0 42.6521 117.697   8
 -12  -2   0-111.017 125.276  17
  12  -2   0 92.1571 104.340   1
 -12   2   0 63.4667 73.2975   4
  12  -2   0 9.59227 2.41524   8
  12   2   0-65.9638 173.180   1
  12   2   0-33.1541 123.134   6
  12   2   0-95.5395 262.722  14
  12  -2   0 123.711 208.246  14
  12  -2   1 201.894 157.948   6
  12  -2  -1-22.6735 38.5536   6
 -12  -2  -1 280.804 194.084  12
 -12  -2   1 17.9512 12.7408  12
 -12   2  -1-154.538 257.126  12
 -12  -2   1 106.635 107.753   5
  12   2   1 314.023 292.639  11
  12   2  -1 98.8130 84.4988  11
 -12   2  -1 98.9693 131.342   5
 -12   2   1-16.8601 112.250   5
 -12  -2  -1 122.215 255.416  19
 -12  -2   1-109.960 114.787  19
 -12   2  -1 48.8692 170.447  19
 -12   2   1 84.2668 151.129  19
  12   2   1-14.4901 106.294  18
  12   2  -1-24.3320 132.791  18
 -12  -2   1-43.0237 118.541   4
  12  -2   1 95.2139 165.131   1
 -12   2  -1 37.0715 37.8546   2
  12   2   1 336.605 316.387   8
  12   2  -1 92.3141 179.901   8
 -12  -2  -1 360.684 303.273  17
 -12  -2   1-76.8099 55.8703  17
 -12   2  -1-51.8148 118.404   4
 -12   2   1 22.1578 36.0704   2
  12  -2   1 32.8941 133.418   8
 -12   2   1-17.5836 84.7660   4
  12  -2  -1 79.7856 102.268   8
  12   2   1 304.579 283.685   1
  12  -2  -1 8.63988 67.8601   1
  12   2   1-2.15155 142.233   6
  12   2  -1 138.909 232.968   6
  12   2  -1 14.5523 63.8312   1
  12   2   1 35.6603 278.987  14
  12   2  -1 109.597 131.931  14
  12  -2   1 6.60296 106.281  14
  12  -2  -1 205.566 207.550  14
  12  -2   2 52.0924 134.912   6
  12  -2  -2 88.1105 107.747   6
 -12  -2   2 261.562 170.155  12
 -12   2  -2 49.5964 52.8247  12
  12   2   2 231.171 249.219  11
 -12  -2   2 42.6790 94.8760   5
  12   2  -2 198.319 138.816  11
 -12   2  -2 33.2803 110.035   5
 -12  -2   2-70.1871 167.968   2
 -12   2   2-28.9682 116.492   5
 -12  -2  -2 237.950 237.705  19
 -12  -2   2 104.709 160.634  19
 -12   2  -2 200.986 178.370  19
  12  -2   2-4.52272 37.6367   1
 -12   2   2 124.565 165.549  19
  12   2   2 144.951 125.317  18
  12   2  -2 219.770 234.308  18
 -12  -2   2-12.4481 145.082   4
  12   2   2 254.369 228.462   8
 -12  -2  -2-172.210 187.512  17
  12   2  -2 104.492 146.829   8
 -12  -2   2 58.6701 221.690  17
 -12   2  -2-21.1311 100.798   4
  12  -2   2 61.6182 171.247   8
  12   2   2 113.808 228.180   1
 -12   2   2 157.287 166.817   4
  12  -2  -2-0.98117 68.3540   8
 -12   2   2-73.5681 99.4351   2
  12   2   2-71.6508 253.082   6
  12  -2  -2 52.7711 65.6164   1
  12   2  -2 489.150 348.685   6
  12   2   2 103.931 125.187  14
  12   2  -2 133.831 205.479  14
  12   2  -2 255.477 222.814   1
  12  -2   2 47.4717 159.144  14
  12  -2  -2 69.4625 17.5974  14
  12   2  -3-109.941 270.182  13
  12  -2  -3-45.8493 23.7314   6
 -12   2  -3 144.469 102.077  12
 -12  -2   3 117.890 176.786   5
  12   2  -3-221.959 212.666  11
 -12   2  -3 124.379 163.009   5
  12  -2   3 138.900 93.9395   1
 -12   2   3 54.6655 115.204   5
 -12  -2   3 86.0085 77.2910   2
 -12  -2  -3 124.847 280.374  19
 -12  -2   3 183.443 254.528  19
 -12   2  -3 237.327 259.658  19
 -12   2   3 18.2051 96.1734  19
  12   2   3-7.81784 81.2935  18
  12   2  -3 54.1228 166.707  18
 -12  -2   3-98.8970 157.094   4
  12   2   3 40.6496 121.525   8
  12   2   3 4.07072 105.708   1
 -12  -2  -3 114.225 55.6291  17
 -12   2  -3 97.2777 139.130   4
  12   2  -3 177.414 154.491   8
 -12  -2   3-310.818 312.634  17
  12  -2   3-30.4595 105.134   8
 -12   2   3 48.2393 57.0922   4
  12  -2  -3-14.1709 114.228   8
 -12   2   3 127.794 132.440   2
  12   2   3 40.0984 129.706   6
  12   2   3 27.0349 48.6621  14
  12   2  -3 14.6995 97.0499  14
  12  -2   3 185.568 214.733  14
  12  -2  -3 104.372 190.591  14
  12  -2  -3 105.415 153.482   1
  12   2  -3 43.1062 131.122   1
  12  -2   3 98.0849 124.279   6
  12   2  -4 936.445 370.489  13
  12   2  -4 963.727 396.497   1
  12  -2  -4 761.074 259.895   6
  12  -2  -4 629.069 351.004   1
 -12   2  -4 755.372 371.504  12
  12  -2   4 954.811 356.668   1
 -12  -2   4 820.265 413.520   5
  12   2  -4 1325.14 539.711  11
 -12   2  -4 499.825 299.802   5
 -12   2   4 754.441 340.074   5
 -12  -2  -4 227.507 272.929  19
 -12  -2   4 765.393 333.117  19
 -12  -2   4 572.174 269.655   2
 -12   2  -4 829.511 465.449  19
 -12   2   4 825.221 346.867  19
  12   2   4 1059.31 335.274  18
  12   2  -4 1227.50 476.613  18
  12   2   4 897.453 388.677   1
 -12  -2   4 560.997 378.716   4
  12   2   4 1373.34 513.258   8
 -12   2  -4 462.420 272.798   4
 -12  -2  -4 86.3212 136.286  17
 -12  -2   4 501.802 373.403  17
  12   2  -4 946.037 327.930   8
  12  -2   4 961.541 377.348   8
 -12   2   4 869.427 391.084   4
  12  -2  -4 414.533 220.111   8
 -12   2   4 1006.47 310.408   2
 -12   2  -4 790.261 416.567  15
  12   2   4 361.629 226.808   6
  12   2   4 948.149 491.239  14
 -12   2  -4-52.0051 132.188   3
  12   2  -4 885.899 429.333  14
  12  -2   4 1067.16 403.929  14
  12  -2  -4 758.258 370.179  14
  12  -2   4 1113.75 362.286   6
  12   2  -5 100.074 100.335  13
  12  -2   5 131.698 189.675   1
  12   2  -5-59.2536 119.691   1
  12  -2  -5 48.7313 101.015   6
 -12   2  -5-174.827 64.7422  12
  12  -2  -5 27.3364 101.857   1
 -12  -2   5-131.412 151.769   5
 -12   2  -5 50.2732 81.6036   5
  12   2  -5 212.332 194.142  11
 -12   2   5-131.506 204.658   5
 -12  -2  -5 258.604 246.286  19
 -12  -2   5-3.23542 138.356  19
 -12   2  -5 151.185 284.628  19
 -12   2   5-69.0187 146.321  19
 -12  -2   5 69.9810 124.354   2
  12   2   5-88.9925 192.842   1
  12   2   5 53.8390 139.712  18
  12   2  -5-119.567 193.600  18
 -12  -2   5 71.9855 141.520   4
  12   2   5 9.15934 159.057   8
 -12   2  -5 89.7380 133.535   4
 -12  -2  -5-95.9468 165.790  17
  12  -2   5-164.718 154.083   8
 -12  -2   5 40.1437 182.855  17
  12   2  -5-153.579 132.414   8
 -12   2   5-102.709 143.258   4
  12  -2  -5-335.231 669.230   8
 -12   2  -5 206.280 317.437   7
 -12   2   5 4.29640 39.5104   2
 -12   2  -5 56.2136 250.186  15
  12   2   5-226.362 332.301   6
  12   2   5 132.906 212.421  14
  12   2  -5-122.642 176.091  14
  12  -2   5 93.6166 176.975  14
 -12   2  -5-92.6404 95.8459   3
  12  -2  -5 97.7625 78.7177  14
  12  -2   5-41.8868 44.4245   6
  12   2  -6 2406.44 443.240  13
  12   2   6 1893.50 577.825   1
  12  -2   6 2563.63 585.285   1
  12   2  -6 2412.80 673.890   1
 -12   2  -6 555.760 286.219  12
 -12   2   6 2398.96 684.569   5
  12   2  -6 3095.95 783.502  11
 -12   2  -6 1052.45 415.094   5
 -12   2   6 2541.27 615.649   2
 -12  -2   6 1174.48 456.520   5
  12  -2  -6 1354.42 519.286   1
 -12   2   6 2039.23 563.080  19
 -12  -2  -6-25.3180 160.284  19
 -12   2  -6 1019.72 435.777  19
 -12  -2   6 1212.82 399.637  19
  12   2   6 1996.85 432.115  18
  12   2  -6 2542.04 696.941  18
 -12   2   6 2545.35 637.850   4
 -12  -2   6 1229.34 380.142   2
  12   2  -6 2713.41 621.203   8
 -12  -2   6 1238.60 484.569   4
  12   2   6 1990.23 578.208   8
 -12   2  -6 819.586 365.502   4
  12  -2   6 1916.81 525.008   8
 -12  -2   6 815.794 441.567  17
 -12   2  -6 1178.75 516.602   7
  12  -2   6 2502.51 560.664   6
  12  -2  -6 1216.95 345.025   6
 -12   2  -6 1493.32 581.443  15
  12   2   6 842.843 329.329   6
  12   2   6 1937.38 639.485  14
  12  -2   6 2475.62 595.406  14
  12   2  -6 2162.53 743.551  14
  12  -2  -6 1480.16 569.025  14
  12   2  -7-3.59703 48.3245  13
 -12   2  -7-21.8520 67.6883  12
  12   2  -7-47.5283 72.0718   1
 -12   2  -7 16.6491 117.671   5
 -12  -2   7 2.21696 66.6668   5
  12   2  -7-97.3063 95.4825  11
  12   2   7-356.661 456.568   1
 -12   2   7-65.8018 37.2291   5
 -12  -2  -7 62.8880 33.2526  19
 -12   2  -7-102.300 187.792  19
 -12  -2   7-75.4510 103.812  19
 -12   2   7-298.910 351.253  19
  12  -2  -7 255.333 300.060   1
  12   2   7-13.0190 112.241  18
 -12  -2   7 29.5033 77.5224   2
  12   2  -7-6.14795 153.365  18
 -12   2  -7-24.3381 64.1399   4
  12   2   7-56.4558 120.021   8
 -12  -2   7 199.626 206.243   4
 -12  -2  -7 93.7327 123.181  17
  12  -2   7-120.785 132.552   8
 -12  -2   7-7.06819 168.122  17
  12   2  -7-87.3285 211.937   8
 -12   2   7 39.3100 28.6555   4
 -12   2  -7-111.893 184.644   7
 -12   2   7 82.6707 72.0345   2
 -12   2  -7-158.124 256.507  15
  12   2   7-305.871 445.531   6
  12   2   7-182.281 258.889  14
  12  -2   7 44.5183 117.741   1
  12   2  -7-93.4430 265.999  14
  12  -2   7-52.9076 140.929  14
  12  -2   7-107.692 169.182   6
  12  -2  -7 407.047 345.569  14
 -12   2  -7-158.887 172.258   3
  12  -3   0-0.79400 67.6965   6
 -12   3   0 127.484 154.708   5
 -12  -3   0 172.965 224.223  19
 -12   3   0 30.7529 108.057  19
  12   3   0 156.448 204.669  18
  12   3   0 115.840 207.411   8
 -12  -3   0 212.736 241.084  17
  12   3   0 114.625 200.234   1
 -12   3   0 31.3439 65.9035   4
  12  -3   0 44.7047 68.4549   8
 -12   3   0 46.6266 67.9296   2
  12   3   0 49.7941 149.602  14
  12  -3   0-37.5221 115.982   1
  12  -3   0-11.7965 50.3593  14
  12  -3   1 536.608 225.787   6
  12  -3  -1 350.429 177.663   6
  12  -3  -1 270.810 171.607   1
 -12  -3   1 110.133 117.377  12
 -12   3  -1-756.119 726.640  12
  12   3  -1 1027.08 374.840  11
 -12   3  -1 493.374 266.575   5
 -12   3   1 434.499 232.764   5
 -12  -3  -1-15.0505 159.123  19
 -12  -3   1 9.52039 55.0929  19
 -12   3  -1 641.000 308.171  19
 -12   3   1 696.808 305.516  19
  12   3   1 756.177 310.466  18
  12   3  -1 763.291 347.490  18
  12   3   1 727.683 390.583   8
  12   3   1 702.828 361.658   1
  12   3  -1 679.860 306.513   8
 -12  -3  -1-87.8574 194.667  17
 -12  -3   1 135.121 158.902  17
 -12   3  -1 364.115 210.756   4
  12  -3   1 556.884 304.919   8
  12  -3  -1 526.199 306.974   8
 -12   3   1 612.767 310.726   4
  12   3  -1 695.485 394.489   1
 -12   3   1 603.099 189.829   2
  12  -3   1 443.672 218.004   1
  12   3   1 603.299 422.545  14
  12   3  -1 648.406 452.926  14
  12  -3   1 419.400 254.101  14
  12  -3  -1 485.832 273.056  14
  12  -3   2-62.3072 112.963   6
  12  -3  -2 112.416 154.989   6
 -12   3  -2 165.058 173.638  12
  12   3  -2-7.08665 83.2510  11
  12  -3  -2-42.4464 130.941   1
 -12   3  -2 40.0673 126.256   5
 -12   3   2-15.5506 107.434   5
 -12  -3  -2-97.1066 182.022  19
 -12  -3   2 137.457 237.122  19
 -12   3  -2-11.0017 25.6557  19
 -12   3   2 66.2339 142.027  19
  12   3   2 85.3854 77.3045  18
  12   3  -2 84.2073 96.4536  18
  12   3   2-76.7706 126.964   1
  12   3   2 207.699 210.019   8
 -12  -3  -2 56.1208 162.024  17
  12   3  -2 32.6455 67.7688   8
 -12  -3   2 211.773 278.524  17
  12  -3   2 3.76185 73.1173   1
 -12   3  -2 170.305 163.459   4
  12  -3   2 43.1955 115.369   8
  12  -3  -2-2.01912 135.180   8
 -12   3   2 141.120 207.830   4
  12   3  -2 167.657 229.794   1
 -12   3   2 109.251 100.487   2
  12   3   2-53.0348 126.294  14
  12   3  -2-112.884 251.325  14
  12  -3   2 36.6011 80.3811  14
  12  -3  -2 36.6775 22.7934  14
  12  -3   3 56.2602 44.9761   6
  12  -3  -3 95.4507 116.278   6
 -12   3  -3 16.8372 130.399  12
  12   3  -3 42.9925 156.949  11
 -12   3  -3-18.0062 38.1558   5
 -12   3   3 76.4223 166.993   5
 -12  -3  -3 118.274 205.968  19
 -12  -3   3 78.7361 107.055  19
  12   3  -3 128.743 293.398   9
 -12   3  -3 105.842 131.967  19
  12  -3  -3 202.599 213.168   1
 -12   3   3 10.9667 97.0075  19
  12   3   3-18.4395 120.661   1
  12   3   3 9.16031 108.665  18
  12   3  -3-13.1419 129.114  18
  12  -3   3-80.3768 146.546   1
  12   3   3-17.4105 44.8025   8
 -12  -3  -3 68.1940 37.1383  17
  12   3  -3-90.3997 135.519   8
 -12  -3   3-64.4429 133.353  17
 -12   3  -3 100.704 76.7481   4
  12  -3   3 89.2098 119.491   8
  12  -3  -3-382.633 483.331   8
 -12   3   3 88.4311 154.081   4
  12   3  -3 31.0635 51.8356   1
 -12   3   3 103.523 131.170   2
  12   3   3-10.1724 112.828  14
  12   3  -3-34.5057 120.125  14
  12  -3   3-45.7110 32.8514  14
  12  -3  -3-179.202 202.776  14
  12  -3   4-3.64507 85.2626   6
  12  -3  -4 136.038 164.301   6
 -12   3  -4-215.027 225.612  12
  12   3  -4-46.3974 21.0415  11
 -12   3  -4 33.4649 93.3757   5
 -12  -3   4-201.101 269.819   2
 -12   3   4 79.0986 186.814   5
 -12  -3  -4 0.56624 112.949  19
 -12  -3   4-79.8778 140.845  19
  12   3   4-83.3304 222.413   1
  12   3  -4 392.122 344.908   9
 -12   3  -4-97.5515 50.3383  19
 -12   3   4 24.9067 94.0695  19
  12  -3   4-32.2907 138.803   1
  12   3   4 29.3695 17.9442  18
 -12  -3   4-260.489 295.778   4
  12   3  -4-37.4000 106.937  18
  12   3   4 202.199 222.372   8
  12  -3  -4 185.095 234.594   1
 -12  -3  -4 18.3057 121.945  17
  12   3  -4 42.9342 94.9312   8
 -12  -3   4 79.2355 96.1415  17
 -12   3  -4 28.9041 69.2293   4
  12  -3   4-4.86528 56.5057   8
 -12   3   4 86.3651 117.494   4
  12   3  -4 14.1562 154.223   1
  12   3   4-173.083 223.994  14
 -12   3   4 160.819 140.051   2
  12   3  -4-59.7009 65.4952  14
  12  -3   4 66.0624 89.9757  14
  12  -3  -4-43.4807 119.500  14
  12  -3   5 455.515 241.945   6
  12   3  -5 277.027 171.094  13
 -12   3  -5 94.1646 149.237  12
 -12  -3   5 17.0674 154.263   5
  12   3  -5 526.917 227.574  11
 -12   3  -5 338.107 200.950   5
  12  -3   5 534.016 274.333   1
  12   3   5 141.213 192.118   1
 -12  -3   5 156.119 128.744   2
 -12  -3  -5 125.419 257.088  19
 -12   3   5 600.453 344.718   5
 -12  -3   5 358.677 267.619  19
 -12   3  -5 239.667 183.562  19
  12   3  -5 59.3696 182.969   9
 -12   3   5 308.856 106.185  19
  12   3   5 362.337 189.046  18
  12   3  -5 483.908 308.454  18
 -12  -3   5-49.4144 222.315   4
  12   3   5 344.550 252.469   8
 -12  -3  -5-118.710 90.8714  17
 -12   3  -5 199.090 147.828   4
 -12  -3   5 80.7849 167.981  17
  12   3  -5 426.688 239.270   8
  12  -3   5 436.826 274.530   8
  12  -3  -5 372.589 282.105   1
 -12   3   5 422.649 263.388   4
  12   3   5 294.184 244.431  14
 -12   3  -5-165.205 255.417   3
  12   3  -5 372.027 351.744  14
 -12   3   5 975.983 453.354   2
  12   3  -5 465.100 344.674   1
  12  -3   5 283.127 150.147  14
  12  -3  -5 360.009 308.551  14
  12   3  -6-14.7802 67.2361  13
 -12   3  -6 129.917 206.076  12
  12  -3   6 92.8016 112.708   1
 -12  -3   6 19.1331 85.5957   5
  12   3  -6-154.821 178.607  11
 -12   3  -6 30.8219 47.4773   5
 -12  -3  -6-50.0081 120.903  19
 -12   3   6 321.806 327.851   5
 -12  -3   6 184.110 192.954   2
 -12  -3   6 127.316 151.834  19
 -12   3  -6 124.666 173.467  19
  12   3  -6 513.602 389.787   9
  12   3   6 64.3366 82.7244  18
  12   3  -6 13.3503 153.912  18
 -12  -3   6 94.6617 151.076   4
  12   3   6 71.7062 90.6770   8
 -12  -3  -6 30.0773 70.0299  17
 -12   3  -6-48.8267 24.6359   4
 -12  -3   6-69.7652 158.458  17
  12   3  -6 92.6363 86.1704   8
  12  -3   6 7.72345 12.6204   8
 -12   3   6-27.1662 97.0573   4
  12  -3  -6 145.312 299.357   1
  12   3  -6 84.8151 193.072  14
 -12   3  -6 200.627 244.457   3
  12  -3   6-11.3659 23.1667  14
  12   3  -6 197.112 200.278   1
  12  -3  -6 463.800 460.842  14
  12  -3   6-73.3175 128.161   6
  12  -4   0 1235.30 423.170   6
 -12   4   0 1474.64 468.935  19
 -12   4   0 1378.66 435.419   5
  12  -4   0 778.994 353.189   1
  12   4   0 1614.83 458.200  18
  12   4   0 1458.91 513.093   1
  12   4   0 1279.94 443.603   8
 -12  -4   0-36.9950 105.995  17
  12  -4   0 822.589 399.420   8
 -12   4   0 1489.44 488.995   4
  12   4   0 989.041 505.668  14
  12  -4   0 809.677 392.979  14
  12  -4   1-139.590 127.132   6
  12  -4  -1 123.220 214.589   6
  12  -4   1 134.072 163.215   1
 -12   4  -1 59.6718 47.0511   5
 -12   4   1 13.9355 161.548   5
 -12  -4  -1-77.4874 190.421  19
 -12  -4   1-62.2031 108.076  19
 -12   4  -1-9.51036 79.0306  19
 -12   4   1 55.1547 120.358  19
  12   4   1-53.6647 114.859   1
  12   4   1 13.2436 79.1904  18
  12   4  -1 92.6498 151.831  18
  12   4  -1 38.9406 16.7986   1
  12   4   1 24.9901 168.249   8
  12   4  -1 89.9410 171.940   8
  12  -4  -1 65.9664 135.953   1
 -12  -4  -1-20.8764 49.0849  17
 -12  -4   1-26.1400 74.0373  17
  12  -4   1 45.0626 132.289   8
 -12   4  -1-38.2199 97.7140   4
  12  -4  -1-324.016 510.331   8
 -12   4   1 157.581 143.226   4
  12   4   1-139.247 281.195  14
  12   4  -1 126.043 275.567  14
 -12   4   1 141.630 135.067   2
  12  -4   1 53.0004 49.4535  14
  12  -4  -1-87.1594 117.519  14
  12  -4   2 352.025 230.668   6
  12  -4  -2 52.4248 55.8650   6
 -12   4  -2 317.615 199.303   5
 -12  -4  -2-194.606 283.041  19
 -12   4   2 520.120 299.349   5
 -12  -4   2 159.353 189.745  19
  12   4   2 351.960 242.566   1
 -12   4  -2 483.042 294.945  19
 -12   4   2 356.173 202.612  19
  12   4   2 529.307 239.368  18
  12   4  -2 409.048 235.263  18
  12   4   2 296.984 269.412   8
  12   4  -2 356.835 224.088   8
 -12  -4  -2 143.188 160.620  17
 -12  -4   2-75.4829 163.968  17
  12   4  -2 407.846 317.555   1
 -12   4  -2 264.055 200.077   4
  12  -4   2 289.464 238.204   8
 -12   4   2 550.684 313.416   4
  12  -4  -2 112.482 129.627   1
  12   4  -2 271.741 235.257  14
  12  -4   2 386.712 273.700  14
  12  -4  -2 169.780 198.974  14
  12  -4   2 338.982 236.974   1
  12  -4   3 34.8572 71.0024   6
 -12   4  -3-118.626 225.054  12
  12   4   3-533.426 305.118   1
 -12   4  -3-60.6353 90.3990   5
 -12  -4  -3 4.98510 245.491  19
 -12   4   3 100.773 170.643   5
 -12  -4   3 62.4313 155.021  19
 -12   4  -3 85.8802 151.827  19
  12   4   3 94.5360 155.287  18
  12   4  -3 20.0916 51.0439  18
  12   4   3 173.331 209.602   8
 -12  -4  -3-21.9109 25.6499  17
  12   4  -3-37.6758 37.1794   8
 -12  -4   3-168.119 198.901  17
  12   4  -3 202.464 206.201   1
 -12   4  -3-8.62244 82.5283   4
  12  -4   3 42.2414 128.039   8
 -12   4   3 37.4148 98.3150   4
  12  -4   3 23.4604 77.6196   1
  12   4  -3-169.087 169.984  14
  12  -4   3 228.780 252.401  14
  12  -4  -3 140.720 190.220   1
  12  -4  -3 187.801 245.226  14
  12  -4   4-23.0933 55.7102   6
 -12   4  -4 81.2580 98.0087  12
  12   4  -4 58.3172 136.048  11
  12   4   4-569.798 442.350   1
 -12   4  -4 52.3764 100.498   5
 -12  -4  -4 80.4546 72.0413  19
 -12  -4   4 57.0353 181.168  19
 -12   4  -4 93.7585 114.649  19
  12   4   4 126.061 122.153  18
  12   4  -4-41.1511 44.8582  18
  12   4   4-86.0692 98.1196   8
 -12  -4  -4 92.0205 157.574  17
  12   4  -4 38.8930 156.071   8
 -12  -4   4 42.3957 221.074  17
 -12   4  -4 51.0587 100.073   4
  12  -4   4 128.094 217.494   8
  12  -4   4 220.340 183.486   1
  12   4  -4-75.2374 114.337   1
  12   4  -4-165.799 293.344  14
  12  -4   4-79.1776 141.297  14
   0   0   0    0.00    0.00   0

TITL HFMOF@5 in P4/mnc
REM P4/mnc (#128 in standard setting)
CELL 0.71073  19.437820  19.437820  32.103795  90.0000  90.0000  90.0000
ZERR   15.00   0.001091   0.001091   0.002326   0.0000   0.0000   0.0000
LATT  1
SYMM -x,-y, z
SYMM -y, x, z
SYMM  y,-x, z
SYMM -x+1/2, y+1/2,-z+1/2
SYMM  x+1/2,-y+1/2,-z+1/2
SYMM  y+1/2, x+1/2,-z+1/2
SYMM -y+1/2,-x+1/2,-z+1/2
SFAC C H O Hf
UNIT 540.00 660.00 120.00 15.00
TREF
HKLF 4
END
;
_shelx_hkl_checksum              17990
_shelx_shelxl_version_number     2014/7
_olex2_submission_special_instructions 'No special instructions were received'
_oxdiff_exptl_absorpt_empirical_details
;
Empirical correction (ABSPACK) includes:
- Absorption correction using spherical harmonics
- Frame scaling
;
_oxdiff_exptl_absorpt_empirical_full_max 6.941
_oxdiff_exptl_absorpt_empirical_full_min 0.465
loop_
_space_group_symop_operation_xyz
'x, y, z'
'-x, -y, z'
'-y, x, z'
'y, -x, z'
'-x+1/2, y+1/2, -z+1/2'
'x+1/2, -y+1/2, -z+1/2'
'y+1/2, x+1/2, -z+1/2'
'-y+1/2, -x+1/2, -z+1/2'
'-x, -y, -z'
'x, y, -z'
'y, -x, -z'
'-y, x, -z'
'x-1/2, -y-1/2, z-1/2'
'-x-1/2, y-1/2, z-1/2'
'-y-1/2, -x-1/2, z-1/2'
'y-1/2, x-1/2, z-1/2'
loop_
_atom_site_label
_atom_site_type_symbol
_atom_site_fract_x
_atom_site_fract_y
_atom_site_fract_z
_atom_site_U_iso_or_equiv
_atom_site_adp_type
_atom_site_occupancy
_atom_site_site_symmetry_order
_atom_site_calc_flag
_atom_site_refinement_flags_posn
_atom_site_refinement_flags_adp
_atom_site_refinement_flags_occupancy
_atom_site_disorder_assembly
_atom_site_disorder_group
Hf1 Hf -0.0410(2) 0.12100(18) 0.0000 0.040(3) Uani 1 2 d DS TU P . .
Hf2 Hf 0.0000 0.0000 0.07626(14) 0.037(4) Uani 1 4 d DS TU P . .
O1 O -0.0229(15) 0.0915(11) 0.1100(9) 0.033(11) Uiso 1 1 d D U . . .
O4 O -0.076(2) 0.031(2) 0.0398(13) 0.092(16) Uiso 1 1 d . U . . .
O13 O -0.0580(18) 0.1695(17) 0.0592(7) 0.059(13) Uiso 1 1 d D U . . .
O19 O -0.146(3) 0.161(3) 0.0000 0.08(2) Uiso 1 2 d S TU P . .
O20 O 0.015(3) 0.222(3) 0.0000 0.08(2) Uiso 1 2 d S TU P . .
C3 C -0.0702(9) 0.3133(17) 0.1913(12) 0.079(18) Uiso 1 1 d D U . . .
C4 C -0.0881(14) 0.3228(15) 0.1501(15) 0.10(2) Uiso 1 1 d D U . . .
H4 H -0.1042 0.3656 0.1417 0.120 Uiso 1 1 calc R . . . .
C5 C -0.0829(15) 0.270(2) 0.1209(9) 0.075(19) Uiso 1 1 d D U . . .
H5 H -0.0953 0.2780 0.0933 0.090 Uiso 1 1 calc R . . . .
C6 C -0.0582(10) 0.2050(19) 0.1341(11) 0.065(18) Uiso 1 1 d D U . . .
C7 C -0.0403(14) 0.1955(15) 0.1751(14) 0.08(2) Uiso 1 1 d D U . . .
H7 H -0.0242 0.1526 0.1835 0.092 Uiso 1 1 calc R . . . .
C8 C -0.0455(14) 0.248(2) 0.2044(9) 0.085(19) Uiso 1 1 d D U . . .
H8 H -0.0331 0.2403 0.2320 0.102 Uiso 1 1 calc R . . . .
C9 C -0.0761(11) 0.3677(13) 0.2202(8) 0.037(16) Uiso 1 1 d D U . . .
C16 C -0.0214(12) 0.4136(13) 0.2222(8) 0.020(16) Uiso 1 1 d DG U . A -2
C15 C -0.021(2) 0.466(3) 0.2518(19) 0.02(2) Uiso 0.5 1 d DG U . A .
C10 C -0.1310(16) 0.374(2) 0.2477(13) 0.05(3) Uiso 0.5 1 d DG U . A -1
C11 C -0.1876(17) 0.327(3) 0.2456(19) 0.10(4) Uiso 0.5 1 d D U . A -1
H11A H -0.2047 0.3248 0.2176 0.145 Uiso 0.5 1 calc GR . . A -1
H11B H -0.2236 0.3417 0.2639 0.145 Uiso 0.5 1 calc GR . . A -1
H11C H -0.1723 0.2817 0.2539 0.145 Uiso 0.5 1 calc GR . . A -1
C12 C -0.0548(12) 0.1553(14) 0.1022(8) 0.058(17) Uiso 1 1 d D U . . .
C17 C 0.0347(13) 0.4136(19) 0.1978(10) 0.08(2) Uiso 1 1 d D U . A -2
H H 0.0678 0.3815 0.2085 0.124 Uiso 1 1 calc GR . . A -2
HA H 0.0545 0.4589 0.1973 0.124 Uiso 1 1 calc GR . . A -2
HB H 0.0219 0.4004 0.1700 0.124 Uiso 1 1 calc GR . . A -2
loop_
_atom_site_aniso_label
_atom_site_aniso_U_11
_atom_site_aniso_U_22
_atom_site_aniso_U_33
_atom_site_aniso_U_23
_atom_site_aniso_U_13
_atom_site_aniso_U_12
Hf1 0.056(5) 0.045(4) 0.018(5) 0.000 0.000 0.002(3)
Hf2 0.049(4) 0.049(4) 0.013(6) 0.000 0.000 0.000
loop_
_atom_type_symbol
_atom_type_description
_atom_type_scat_dispersion_real
_atom_type_scat_dispersion_imag
_atom_type_scat_source
C C 0.0033 0.0016 'International Tables Vol C Tables 4.2.6.8 and 6.1.1.4'
H H 0.0000 0.0000 'International Tables Vol C Tables 4.2.6.8 and 6.1.1.4'
Hf Hf -0.5830 6.1852 'International Tables Vol C Tables 4.2.6.8 and 6.1.1.4'
O O 0.0106 0.0060 'International Tables Vol C Tables 4.2.6.8 and 6.1.1.4'
loop_
_exptl_crystal_face_index_h
_exptl_crystal_face_index_k
_exptl_crystal_face_index_l
_exptl_crystal_face_perp_dist
5 -1 2 0.0492
2 2 -5 0.0455
0 2 -5 0.0421
-2 2 -5 0.0365
-5 2 -5 0.0362
-5 0 -1 0.0390
1 -2 5 0.0514
-1 -2 5 0.0496
-5 0 1 0.0359
0 -5 -4 0.0271
0 5 4 0.0254
26 5 -13 0.0492
23 8 -22 0.0462
loop_
_geom_angle_atom_site_label_1
_geom_angle_atom_site_label_2
_geom_angle_atom_site_label_3
_geom_angle
_geom_angle_site_symmetry_1
_geom_angle_site_symmetry_3
Hf1 Hf1 Hf1 90.0 11 3
Hf2 Hf1 Hf1 59.77(4) . 3
Hf2 Hf1 Hf2 89.19(13) . 9
O4 Hf1 Hf1 85.2(12) 4 3
O4 Hf1 Hf1 85.6(11) . 11
O4 Hf1 Hf2 86.7(11) . 9
O4 Hf1 Hf2 89.6(11) 11 .
O4 Hf1 O4 103(2) 11 .
O4 Hf1 O4 62(2) 4 .
O4 Hf1 O4 68(2) . 10
O4 Hf1 O4 76(2) 4 11
O4 Hf1 O13 75.2(15) 4 .
O4 Hf1 O13 146.1(16) 11 .
O4 Hf1 O19 140.8(12) 4 .
O4 Hf1 O20 92.5(16) 4 .
O13 Hf1 Hf1 109.4(9) . 11
O13 Hf1 Hf1 109.0(10) . 3
O13 Hf1 Hf2 162.3(9) 10 .
O13 Hf1 Hf2 73.1(9) . .
O13 Hf1 O4 78.2(13) . .
O13 Hf1 O4 142.3(14) 10 .
O13 Hf1 O13 124.6(19) . 10
O13 Hf1 O19 72.5(11) . .
O13 Hf1 O20 72.0(11) . .
O19 Hf1 Hf1 84.7(15) . 3
O19 Hf1 Hf1 174.7(15) . 11
O19 Hf1 Hf2 117.1(9) . .
O19 Hf1 O4 90.0(16) . .
O19 Hf1 O20 98.1(19) . .
O20 Hf1 Hf1 87.1(14) . 11
O20 Hf1 Hf1 177.1(14) . 3
O20 Hf1 Hf2 118.5(8) . .
O20 Hf1 O4 144.9(11) . .
Hf1 Hf2 Hf1 60.47(7) . 3
Hf1 Hf2 Hf1 90.82(13) . 9
O1 Hf2 Hf1 114.0(8) 4 .
O1 Hf2 Hf1 107.9(8) 3 .
O1 Hf2 Hf1 165.5(9) 2 .
O1 Hf2 Hf1 75.3(8) . .
O1 Hf2 Hf1 114.0(8) 2 11
O1 Hf2 O1 75.0(8) 4 .
O1 Hf2 O1 118.9(17) 2 .
O4 Hf2 Hf1 87.6(13) . 9
O4 Hf2 Hf1 91.0(12) . 11
O4 Hf2 Hf1 87.6(13) 2 .
O4 Hf2 O1 135.3(16) 2 .
O4 Hf2 O1 83.8(16) . .
O4 Hf2 O1 149.5(16) . 4
O4 Hf2 O1 75.0(15) 4 .
O4 Hf2 O1 135.3(16) . 2
O4 Hf2 O4 69.4(13) . 4
O4 Hf2 O4 107(2) . 2
C12 O1 Hf2 137(2) . .
Hf1 O4 Hf1 107.2(17) 3 .
Hf2 O4 Hf1 110.3(18) . .
Hf2 O4 Hf1 118(2) . 3
C12 O13 Hf1 141(2) . .
C4 C3 C8 119.2(10) . .
C4 C3 C9 121(4) . .
C8 C3 C9 120(4) . .
C3 C4 H4 119.0 . .
C3 C4 C5 122(3) . .
C5 C4 H4 118.9 . .
C4 C5 H5 120.7 . .
C4 C5 C6 119(2) . .
C6 C5 H5 120.7 . .
C7 C6 C5 119.4(10) . .
C7 C6 C12 126(4) . .
C12 C6 C5 114(3) . .
C6 C7 H7 118.9 . .
C6 C7 C8 122(3) . .
C8 C7 H7 118.9 . .
C3 C8 H8 120.7 . .
C7 C8 C3 119(2) . .
C7 C8 H8 120.7 . .
C16 C9 C3 116.7(10) . .
C10 C9 C3 123.2(11) . .
C15 C16 C9 120.0 . .
C17 C16 C9 126.4(2) . .
C17 C16 C15 113.6(2) . .
C9 C10 C11 120.0(2) . .
C10 C11 H11A 109.5 . .
C10 C11 H11B 109.5 . .
C10 C11 H11C 109.4 . .
H11A C11 H11B 109.5 . .
H11A C11 H11C 109.5 . .
H11B C11 H11C 109.5 . .
O1 C12 C6 120(3) . .
O13 C12 O1 112(3) . .
O13 C12 C6 125(3) . .
C16 C17 H 109.5 . .
C16 C17 HA 109.5 . .
C16 C17 HB 109.4 . .
H C17 HA 109.5 . .
H C17 HB 109.5 . .
HA C17 HB 109.5 . .
loop_
_geom_bond_atom_site_label_1
_geom_bond_atom_site_label_2
_geom_bond_distance
_geom_bond_site_symmetry_2
Hf1 Hf1 3.512(5) 3
Hf1 Hf2 3.487(4) .
Hf1 O4 2.09(4) 4
Hf1 O4 2.27(4) .
Hf1 O13 2.148(18) .
Hf1 O19 2.19(5) .
Hf1 O20 2.24(5) .
Hf2 O1 2.130(18) .
Hf2 O4 1.97(4) .
O1 C12 1.407(9) .
O13 C12 1.406(9) .
C3 C4 1.38(4) .
C3 C8 1.42(4) .
C3 C9 1.412(6) .
C4 H4 0.9300 .
C4 C5 1.387(10) .
C5 H5 0.9300 .
C5 C6 1.43(4) .
C6 C7 1.37(4) .
C6 C12 1.411(6) .
C7 H7 0.9300 .
C7 C8 1.390(10) .
C8 H8 0.9300 .
C9 C16 1.3900 .
C9 C10 1.3900 .
C16 C15 1.3900 .
C16 C17 1.344(4) .
C10 C11 1.437(4) .
C11 H11A 0.9600 .
C11 H11B 0.9600 .
C11 H11C 0.9600 .
C17 H 0.9600 .
C17 HA 0.9600 .
C17 HB 0.9600 .
loop_
_geom_torsion_atom_site_label_1
_geom_torsion_atom_site_label_2
_geom_torsion_atom_site_label_3
_geom_torsion_atom_site_label_4
_geom_torsion
Hf1 O13 C12 O1 10(5)
Hf1 O13 C12 C6 168(2)
Hf2 O1 C12 O13 -19(4)
Hf2 O1 C12 C6 -178.3(19)
C3 C4 C5 C6 0.0(4)
C3 C9 C16 C15 -176(4)
C3 C9 C16 C17 4(4)
C3 C9 C10 C11 -5(5)
C4 C3 C8 C7 0.0(3)
C4 C3 C9 C16 -84(3)
C4 C3 C9 C10 100(3)
C4 C5 C6 C7 0.0(3)
C4 C5 C6 C12 180.0(2)
C5 C6 C7 C8 0.0(4)
C5 C6 C12 O1 172(2)
C5 C6 C12 O13 15(3)
C6 C7 C8 C3 0.0(4)
C7 C6 C12 O1 -8(2)
C7 C6 C12 O13 -165(3)
C8 C3 C4 C5 0.0(3)
C8 C3 C9 C16 96(3)
C8 C3 C9 C10 -80(3)
C9 C3 C4 C5 180(2)
C9 C3 C8 C7 -180(2)
C12 C6 C7 C8 180(2)
loop_
_exptl_oxdiff_crystal_face_indexfrac_h
_exptl_oxdiff_crystal_face_indexfrac_k
_exptl_oxdiff_crystal_face_indexfrac_l
_exptl_oxdiff_crystal_face_x
_exptl_oxdiff_crystal_face_y
_exptl_oxdiff_crystal_face_z
5.0001 -1.0000 1.9999 -0.0185 -0.1572 0.1075
2.0001 2.0000 -5.0001 0.0052 -0.1090 -0.1047
0.0000 2.0000 -5.0001 0.0087 -0.0393 -0.1262
-2.0000 2.0000 -5.0000 0.0122 0.0304 -0.1476
-5.0001 2.0000 -5.0000 0.0174 0.1350 -0.1798
-5.0001 0.0000 -0.9999 -0.0022 0.1691 -0.0722
1.0000 -2.0000 5.0001 -0.0104 0.0044 0.1369
-1.0001 -2.0000 5.0001 -0.0069 0.0742 0.1154
-5.0001 -0.0000 1.0001 0.0196 0.1795 -0.0351
-0.0001 -5.0000 -4.0000 -0.2019 0.0130 0.0099
0.0001 5.0000 4.0000 0.2019 -0.0130 -0.0099
26.0006 5.0000 -13.0009 -0.0291 -1.0071 -0.0457
23.0006 8.0000 -22.0010 -0.0272 -0.9693 -0.2949
