#------------------------------------------------------------------------------
#$Date: 2019-11-25 22:30:06 +0200 (Mon, 25 Nov 2019) $
#$Revision: 241967 $
#$URL: file:///home/coder/svn-repositories/cod/cif/4/13/18/4131842.cif $
#------------------------------------------------------------------------------
#
# This file is available in the Crystallography Open Database (COD),
# http://www.crystallography.net/
#
# All data on this site have been placed in the public domain by the
# contributors.
#
data_4131842
loop_
_publ_author_name
'Yan, Yong'
'O'Connor, Alice E'
'Kanthasamy, Gopikkaa'
'Atkinson, George'
'Allan, David R.'
'Blake, Alexander J.'
'Schr\"oder, Martin'
_publ_section_title
;
 Unusual and Tunable Negative Linear Compressibility in the Metal-Organic
 Framework MFM-133(M) (M = Zr, Hf).
;
_journal_issue                   11
_journal_name_full               'Journal of the American Chemical Society'
_journal_page_first              3952
_journal_page_last               3958
_journal_paper_doi               10.1021/jacs.7b11747
_journal_volume                  140
_journal_year                    2018
_chemical_formula_moiety         'C88 H72 Hf6 O32'
_chemical_formula_sum            'C88 H72 Hf6 O32'
_chemical_formula_weight         2708.36
_space_group_crystal_system      tetragonal
_space_group_IT_number           128
_space_group_name_Hall           '-P 4 2n'
_space_group_name_H-M_alt        'P 4/m n c'
_atom_sites_solution_hydrogens   geom
_audit_creation_date             2017-02-05
_audit_creation_method
;
Olex2 1.2
(compiled 2015.09.30 svn.r3233 for OlexSys, GUI svn.r5103)
;
_cell_angle_alpha                90
_cell_angle_beta                 90
_cell_angle_gamma                90
_cell_formula_units_Z            2
_cell_length_a                   19.0820(12)
_cell_length_b                   19.0820(12)
_cell_length_c                   32.674(3)
_cell_measurement_reflns_used    3811
_cell_measurement_temperature    293(2)
_cell_measurement_theta_max      13.6970
_cell_measurement_theta_min      1.9440
_cell_volume                     11897.3(15)
_computing_cell_refinement       'CrysAlisPro 1.171.38.41 (Rigaku OD, 2015)'
_computing_data_collection       'CrysAlisPro 1.171.38.41 (Rigaku OD, 2015)'
_computing_data_reduction        'CrysAlisPro 1.171.38.41 (Rigaku OD, 2015)'
_computing_molecular_graphics    'Olex2 (Dolomanov et al., 2009)'
_computing_publication_material  'Olex2 (Dolomanov et al., 2009)'
_computing_structure_refinement  'ShelXL (Sheldrick, 2015)'
_diffrn_ambient_temperature      293(2)
_diffrn_detector                 'CCD plate'
_diffrn_detector_area_resol_mean 16.1592
_diffrn_detector_type            Eos
_diffrn_measured_fraction_theta_full 0.933
_diffrn_measured_fraction_theta_max 0.933
_diffrn_measurement_details
;
List of Runs (angles in degrees, time in seconds):

  # Type    Start    End  Width  t~exp~   \w     \q     \k     \f   Frames
--------------------------------------------------------------------------
  1  \w      4.00  65.00   1.00   90.00    --   26.49   0.00 150.00   61
  2  \w     -5.00  43.00   1.00   90.00    --   26.49 -53.00  17.00   48
  3  \w    -49.00 -17.00   1.00   90.00    --   26.49 134.00 123.00   32
  4  \w    -30.00   6.00   1.00   90.00    --   26.49  39.00 -12.00   36
  5  \w    -25.00  15.00   1.00   90.00    --   26.49  13.00  -3.00   40
  6  \w      8.00  69.00   1.00   90.00    --   26.49 -97.00-143.00   61
  7  \w    -28.00 -15.00   1.00   90.00    --   26.49  97.00 -35.00   13
  8  \w    -57.00  -2.00   1.00   90.00    --  -28.05  53.00 -17.00   55
  9  \w     -5.00  15.00   1.00   90.00    --  -28.05 -81.00  29.00   20
 10  \w      3.00  26.00   1.00   90.00    --  -28.05 -97.00  35.00   23
 11  \w    -20.00  13.00   1.00   90.00    --  -28.05 -53.00  17.00   33
 12  \w     -5.00  27.00   1.00   90.00    --  -28.05 -97.00-143.00   32
 13  \w    -20.00  11.00   1.00   90.00    --   26.49  81.00 151.00   31
 14  \w     -7.00  55.00   1.00   90.00    --   26.49 -37.00-180.00   62
 15  \w    -29.00 -16.00   1.00   90.00    --   26.49  97.00 -35.00   13
 16  \w     17.00  70.00   1.00   90.00    --   26.49-114.00  44.00   53
 17  \w    -52.00   8.00   1.00   90.00    --  -28.05  39.00 167.00   60
 18  \w    -25.00  29.00   1.00   90.00    --  -28.05 -39.00  12.00   54
 19  \w    -28.00  25.00   1.00   90.00    --  -28.05 -39.00-167.00   53
 20  \w     15.00  37.00   1.00   90.00    --  -28.05-114.00  44.00   22
;
_diffrn_measurement_device       'four-circle diffractometer'
_diffrn_measurement_device_type  'SuperNova, Single source at offset, Eos'
_diffrn_measurement_method       '\w scans'
_diffrn_orient_matrix_type
'CrysAlisPro convention (1999,Acta A55,543-557)'
_diffrn_orient_matrix_UB_11      -0.0011945000
_diffrn_orient_matrix_UB_12      0.0324042000
_diffrn_orient_matrix_UB_13      0.0104967000
_diffrn_orient_matrix_UB_21      -0.0355131000
_diffrn_orient_matrix_UB_22      -0.0063342000
_diffrn_orient_matrix_UB_23      0.0053553000
_diffrn_orient_matrix_UB_31      0.0111024000
_diffrn_orient_matrix_UB_32      -0.0169134000
_diffrn_orient_matrix_UB_33      0.0182440000
_diffrn_radiation_monochromator  mirror
_diffrn_radiation_probe          x-ray
_diffrn_radiation_type           MoK\a
_diffrn_radiation_wavelength     0.71073
_diffrn_reflns_av_R_equivalents  0.4889
_diffrn_reflns_av_unetI/netI     0.1498
_diffrn_reflns_Laue_measured_fraction_full 0.933
_diffrn_reflns_Laue_measured_fraction_max 0.933
_diffrn_reflns_limit_h_max       12
_diffrn_reflns_limit_h_min       -12
_diffrn_reflns_limit_k_max       9
_diffrn_reflns_limit_k_min       -10
_diffrn_reflns_limit_l_max       21
_diffrn_reflns_limit_l_min       -21
_diffrn_reflns_number            23375
_diffrn_reflns_point_group_measured_fraction_full 0.933
_diffrn_reflns_point_group_measured_fraction_max 0.933
_diffrn_reflns_theta_full        13.731
_diffrn_reflns_theta_max         13.731
_diffrn_reflns_theta_min         1.958
_diffrn_source                   'micro-focus sealed X-ray tube'
_diffrn_source_type              'SuperNova (Mo) X-ray Source'
_exptl_absorpt_coefficient_mu    2.637
_exptl_absorpt_correction_T_max  0.840
_exptl_absorpt_correction_T_min  0.815
_exptl_absorpt_correction_type   gaussian
_exptl_absorpt_process_details
;
CrysAlisPro 1.171.38.41 (Rigaku Oxford Diffraction, 2015)
Numerical absorption correction based on gaussian integration over
			a multifaceted crystal model
Empirical absorption correction using spherical harmonics,
 implemented in SCALE3 ABSPACK scaling algorithm.
;
_exptl_crystal_density_diffrn    0.756
_exptl_crystal_F_000             2568
_exptl_crystal_size_max          0.119
_exptl_crystal_size_mid          0.1
_exptl_crystal_size_min          0.052
_refine_diff_density_max         2.483
_refine_diff_density_min         -2.620
_refine_diff_density_rms         0.367
_refine_ls_extinction_coef       0.00004(14)
_refine_ls_extinction_expression Fc^*^=kFc[1+0.001xFc^2^\l^3^/sin(2\q)]^-1/4^
_refine_ls_extinction_method     'SHELXL-2014/7 (Sheldrick 2014'
_refine_ls_goodness_of_fit_ref   1.799
_refine_ls_hydrogen_treatment    constr
_refine_ls_matrix_type           full
_refine_ls_number_parameters     75
_refine_ls_number_reflns         905
_refine_ls_number_restraints     113
_refine_ls_restrained_S_all      13.279
_refine_ls_R_factor_all          0.2067
_refine_ls_R_factor_gt           0.1708
_refine_ls_shift/su_max          1.193
_refine_ls_shift/su_mean         0.023
_refine_ls_structure_factor_coef Fsqd
_refine_ls_weighting_details
'w=1/[\s^2^(Fo^2^)+(0.2000P)^2^] where P=(Fo^2^+2Fc^2^)/3'
_refine_ls_weighting_scheme      calc
_refine_ls_wR_factor_gt          0.4262
_refine_ls_wR_factor_ref         0.4548
_reflns_Friedel_coverage         0.000
_reflns_number_gt                690
_reflns_number_total             905
_reflns_threshold_expression     'I > 2\s(I)'
_cod_data_source_file            HfMOF_All.cif
_cod_data_source_block           hfmof_23.2kbar
_cod_original_cell_volume        11897.3(18)
_cod_database_code               4131842
_chemical_oxdiff_formula         'C88 H72 Hf6 O32'
_chemical_oxdiff_usercomment     'HF MOF at 23.2 kbar'
_shelx_space_group_comment
;
The symmetry employed for this shelxl refinement is uniquely defined
by the following loop, which should always be used as a source of
symmetry information in preference to the above space-group names.
They are only intended as comments.
;
_reflns_odcompleteness_completeness 15.68
_reflns_odcompleteness_iscentric 1
_reflns_odcompleteness_theta     26.32
_olex2_refinement_description
;
1. Fixed Uiso
 At 1.2 times of:
  All C(H) groups
 At 1.5 times of:
  All C(H,H,H) groups
2. Restrained distances
 O13-C12
 1.41 with sigma of 0.01
 C12-O1
 1.41 with sigma of 0.01
 C6-C12 = C9-C3
 1.41 with sigma of 0.02
 C6-C12 = C9-C3
 1.41 with sigma of 0.01
 C9-C3 = C6-C12
 1.41 with sigma of 0.01
 Hf1-O13 = Hf2-O1
 2.11 with sigma of 0.02
 O1-C12 = O13-C12
 1.41 with sigma of 0.02
 C9-C15 = C9-C10
 1.41 with sigma of 0.02
 C10-C11 = C16-C17
 1.45 with sigma of 0.005
 C4-C5 = C7-C8
 1.39 with sigma of 0.01
 C6-C12 \\sim C9-C3
 with sigma of 0.01
 C9-C3 \\sim C6-C12
 with sigma of 0.01
 C11-C10 \\sim C16-C15 \\sim C17-C15
 with sigma of 0.01
 C9-C17 \\sim C15-C17 \\sim C9-C11 \\sim C11-C9D
 with sigma of 0.005
 C3-C7 \\sim C8-C6 \\sim C7-C5 \\sim C6-C4 \\sim C5-C3 \\sim C4-C8
 with sigma of 0.01
3. Restrained planarity
 C12, C6, C5, C4, C3, C9, C8, C7
 with sigma of 0.01
 C9, C3, C8, C7, C6, C12, C5, C4
 with sigma of 0.01
 C9, C3, C8, C4
 with sigma of 0.01
 C17, C15, C16, C10, C9, C11
 with sigma of 0.01
4. Rigid bond restraints
 C6, Hf2, Hf1, C8, C3, C5, C4, C7, C9, C10, C11, C12, C15, C16, C17, O1, O4,
 O13, O19, O20
 with sigma for 1-2 distances of 0.01 and sigma for 1-3 distances of 0.01
5. Uiso/Uaniso restraints and constraints
C6 \\sim Hf2 \\sim Hf1 \\sim C8 \\sim C3 \\sim C5 \\sim C4 \\sim C7 \\sim C9
\\sim C10 \\sim C11 \\sim C12 \\sim C15 \\sim C16 \\sim C17 \\sim O1 \\sim O4
\\sim O13 \\sim O19 \\sim O20: within 1.7A with sigma of 0.04 and sigma for
terminal atoms of 0.08
6. Same fragment restrains
{C16, C15, C15D, C9D, C10, C9} sigma for 1-2: 0.01, 1-3: 0.04
as
{C9, C16, C15, C15D, C9D, C10}
7. Others
 Fixed Sof: C16(0.5) C15(0.5) C15D(0.00001) C9D(0.00001) H11A(0.5) H11B(0.5)
 H11C(0.5)
 Fixed Uiso: C15D(0.05) C9D(0.05)
8.a Aromatic/amide H refined with riding coordinates:
 C4(H4), C5(H5), C7(H7), C8(H8)
8.b Fitted hexagon refined as free rotating group:
 C9(C16,C15,C15D,C9D,C10)
8.c Idealised Me refined as rotating group:
 C11(H11A,H11B,H11C), C17(H,HA,HB)
;
_shelx_res_file
;
    hfmof_23.0kbar.res created by SHELXL-2014/7

TITL HFMOF_23 in P4/mnc
REM P4/mnc (#128 in standard setting)
CELL 0.71073 19.081952 19.081952 32.674021 90 90 90
ZERR 2 0.001192 0.001192 0.002589 0 0 0
LATT 1
SYMM -X,-Y,+Z
SYMM -Y,+X,+Z
SYMM +Y,-X,+Z
SYMM 0.5-X,0.5+Y,0.5-Z
SYMM 0.5+X,0.5-Y,0.5-Z
SYMM 0.5+Y,0.5+X,0.5-Z
SYMM 0.5-Y,0.5-X,0.5-Z
SFAC C H Hf O
UNIT 176 136 12 64
DFIX 1.41 0.01 O13 C12
DFIX 1.41 0.01 C12 O1
DFIX 1.41 C6 C12 C9 C3
DFIX 1.41 0.01 C6 C12 C9 C3
DFIX 1.41 0.01 C9 C3 C6 C12
DFIX 2.11 Hf1 O13 Hf2 O1
DFIX 1.41 O1 C12 O13 C12
DFIX 1.41 C9 C15 C9 C10
DFIX 1.45 0.005 C10 C11 C16 C17
DFIX 1.39 0.01 C4 C5 C7 C8
SADI 0.01 C6 C12 C9 C3
SADI 0.01 C9 C3 C6 C12
SADI 0.01 C11 C10 C16 C15 C17 C15
SADI 0.005 C9 C17 C15 C17 C9 C11 C11 C9D
SADI 0.01 C3 C7 C8 C6 C7 C5 C6 C4 C5 C3 C4 C8
FLAT 0.01 C12 C6 C5 C4 C3 C9 C8 C7
FLAT 0.01 C9 C3 C8 C7 C6 C12 C5 C4
FLAT 0.01 C9 C3 C8 C4
FLAT 0.01 C17 C15 C16 C10 C9 C11
DELU C6 Hf2 Hf1 C8 C3 C5 C4 C7 C9 C10 C11 C12 C15 C16 C17 O1 O4 O13 O19 O20
SIMU 0.04 0.08 1.7 C6 Hf2 Hf1 C8 C3 C5 C4 C7 C9 C10 C11 C12 C15 C16 C17 O1 =
 O4 O13 O19 O20

L.S. 6
PLAN  9
MPLA 6 C3 C4 C5 C6 C7 C8
MPLA 4 C9 C10 C15 C16
BIND Hf1 Hf2
CONN 1 0 C17
FREE C17 C15D
FREE C17 C15
BIND C16 C17
BOND
MORE -1
BOND $H
CONF
fmap 2
acta 52
OMIT 1 3 7
OMIT 3 5 2
REM <olex2.extras>
REM <HklSrc "%.\\HFMOF_23.0KBAR.hkl">
REM </olex2.extras>

WGHT    0.200000
EXTI    0.000039
FVAR       0.10846
HF1   3   -0.042783    0.122901    0.000000    10.50000    0.03775    0.03313 =
         0.01639    0.00000    0.00000    0.00649
HF2   3    0.000000    0.000000    0.073957    10.25000    0.03107    0.03107 =
         0.00727    0.00000    0.00000    0.00000
O1    4   -0.023937    0.091863    0.107837    11.00000    0.01336
O4    4   -0.078685    0.026882    0.038337    11.00000    0.04931
O13   4   -0.060072    0.173802    0.057457    11.00000    0.03337
O19   4   -0.148806    0.163666    0.000000    10.50000    0.06950
O20   4    0.016998    0.226284    0.000000    10.50000    0.02908
C3    1   -0.069413    0.311947    0.193850    11.00000    0.05210
C4    1   -0.088664    0.326528    0.151316    11.00000    0.08200
SPEC 0.3
AFIX  43
H4    2   -0.104419    0.370845    0.143858    11.00000   -1.20000
AFIX   0
C5    1   -0.083263    0.273735    0.122113    11.00000    0.07817
AFIX  43
H5    2   -0.095687    0.283836    0.095230    11.00000   -1.20000
AFIX   0
C6    1   -0.059597    0.205121    0.131611    11.00000    0.06039
C7    1   -0.040330    0.190509    0.174171    11.00000    0.09136
AFIX  43
H7    2   -0.024580    0.146193    0.181633    11.00000   -1.20000
AFIX   0
C8    1   -0.045733    0.243284    0.203333    11.00000    0.08378
AFIX  43
H8    2   -0.033302    0.233187    0.230215    11.00000   -1.20000
AFIX  66
SAME 0.01 0.04 C16 C15 C15D C9D C10 C9
C9    1   -0.076771    0.368960    0.221027    11.00000    0.01268
C16   1   -0.025015    0.420215    0.221366    10.50000   -0.00100
C15   1   -0.026113    0.474298    0.250214    10.50000   -0.00100
C15D  1   -0.078947    0.473532    0.280253    10.00001   10.05000
C9D   1   -0.130704    0.422277    0.279914    10.00001   10.05000
C10   1   -0.129620    0.370382    0.250118    10.50000    0.02229
AFIX   0
C11   1   -0.180432    0.319568    0.250000    10.50000    0.07014
PART -1
AFIX 137
H11A  2   -0.220434    0.335956    0.234970    10.50000   -1.50000
H11B  2   -0.194017    0.309249    0.277640    10.50000   -1.50000
H11C  2   -0.162417    0.277926    0.237307    10.50000   -1.50000
AFIX   0
PART 0
C12   1   -0.056526    0.156379    0.099206    11.00000    0.03258
C17   1    0.027516    0.426431    0.197178    11.00000    0.13229
AFIX 137
H     2    0.068815    0.408563    0.210316    11.00000   -1.50000
HA    2    0.034271    0.474976    0.190551    11.00000   -1.50000
HB    2    0.018797    0.400409    0.172553    11.00000   -1.50000
AFIX   0
HKLF 4

REM  HFMOF_23 in P4/mnc
REM R1 =  0.1708 for     690 Fo > 4sig(Fo)  and  0.2067 for all     905 data
REM     75 parameters refined using    113 restraints

END

WGHT      0.2000      0.0000

REM Highest difference peak  2.483,  deepest hole -2.620,  1-sigma level  0.367
Q1    1   0.0086  0.0176  0.0628  11.00000  0.05    2.48
Q2    1  -0.1186  0.0623  0.0448  11.00000  0.05    2.11
Q3    1   0.0000  0.0000  0.2007  10.25000  0.05    1.84
Q4    1   0.0006  0.2782  0.3118  11.00000  0.05    1.45
Q5    1   0.1038  0.2184  0.0808  11.00000  0.05    1.41
Q6    1  -0.0455  0.2471  0.0496  11.00000  0.05    1.23
Q7    1  -0.0825  0.1621  0.0703  11.00000  0.05    1.19
Q8    1   0.0284  0.2799  0.0000  10.50000  0.05    1.07
Q9    1  -0.0037  0.1239  0.1304  11.00000  0.05    1.04
;
_shelx_res_checksum              5037
_shelx_hkl_file
;
   0   0  -3-40.3170 31.3714  11
   0   0   5-24.3740 75.2030  16
   0   0   6 37.1240 75.6989  16
   0   0   7-23.0797 126.525  16
   0   0   8 268.048 129.787  16
   0   0   9-65.8161 164.507  16
   0   0  10 1576.35 442.460  16
   0   0  11-1.85018 133.661  16
   0   0  12 2523.24 649.731  16
   1   0  -2-5.64972 26.1156   9
  -1   0   2 1.51718 10.7863  17
  -1   0   2-5.53596 16.8519   2
   0   1  -2 4.17400 17.1511   3
   1   0  -2-18.1658 20.2633   1
   0   1  -2-1.82529 5.60419  13
   1   0   2 0.70828 18.6286   6
   0  -1   2 3.56689 14.8085  16
   1   0  -2 4.04720 24.4478  11
  -1   0   3 4288.49 424.526  17
   1   0  -3 2537.77 274.414  18
   1   0  -3 2139.13 263.575  11
   0  -1   3 8775.87 544.477   6
   0   1  -3 8143.01 433.928  18
   0  -1   3 10416.8 622.866   2
   0  -1   3 10217.5 602.004  17
   0  -1   3 8433.40 613.882  16
   1   0   4-10.5514 27.9801   6
   0   1  -4-2.30112 11.1397  18
   0  -1   4-5.94502 25.0486  16
   1   0  -4 5.58163 50.5491  11
   0   1  -4 14.3412 35.3074  15
   1   0   4-19.1790 62.0943  16
   0   1  -4 53.2760 92.5221   7
   1   0  -4 1.44733 21.9705  18
   0   1  -4-1.04924 8.86982  11
   0   1  -4 31.8136 72.2434  20
   0  -1   4 3.25261 20.3639  17
   0  -1   4 2.88426 15.6481   2
  -1   0   4 10.1790 28.9473  17
   0  -1   4-6.50348 35.6135   6
   1   0  -5 121.834 70.9264  18
   0   1  -5 542.321 208.753   7
   1   0   5-36.0261 102.586   6
   0   1  -5 900.557 201.550  11
   1   0   5 90.0107 29.2655  16
   0   1  -5 951.214 278.304  20
   0   1  -5 972.553 259.956  10
   0  -1   5 1162.69 234.119   2
   0  -1   5 1115.19 226.801  17
   0   1  -5 394.971 167.726  15
   1   0  -5 105.274 64.4161  11
   0  -1   5 486.209 165.314   6
   0   1  -5 784.359 162.959  18
   0  -1   5 876.803 241.991  16
  -1   0   5 478.022 164.355  17
   1   0   6-17.4927 135.916   6
  -1   0   6-2.59013 45.6651  17
   0  -1   6 14.6202 53.0172   2
   0  -1   6-1.09056 47.8025   6
   1   0  -6-92.1381 71.4441  11
   0   1  -6 31.1190 87.7803  10
   0  -1   6 63.3102 91.8129  16
   0   1  -6 46.3863 96.6627  20
   0   1  -6 12.7911 79.4525   9
   1   0   6-22.7443 76.7198  16
   0   1  -6 10.4860 45.8025  11
   0  -1   6-8.83653 19.3289  17
   0   1  -6-5.78805 24.4648  18
   1   0  -7-10.6521 101.678  11
   0  -1   7 95.5815 83.8601   6
   0   1  -7 267.210 142.297  11
   0   1  -7 412.601 179.340  10
  -1   0   7-12.8748 131.281  16
   0  -1   7 631.863 201.590   2
   0   1  -7 289.478 115.164  18
   1   0  -7-11.0277 69.3738  18
   1   0   7 98.5309 57.4135  16
   0  -1   7 629.895 205.638  17
   0  -1   7 470.768 205.260  16
  -1   0   7 243.191 107.853  17
   0   1  -7 406.717 167.769   9
   0   1  -7 286.559 171.504  20
   0   1  -8-17.4925 52.1443  18
   0   1  -8-13.7828 63.6776   9
   0  -1   8 65.5756 111.156  16
   0  -1   8-16.4911 65.5398  17
  -1   0   8-28.3361 131.651  16
   0   1  -8-7.76302 26.9621  20
   1   0   8-45.8749 93.8995  16
   0  -1   8-11.0102 37.1645   6
   0   1  -8-5.24923 60.6460  11
   0   1  -8 25.6323 66.9254  10
   0  -1   8 20.3729 57.0628   2
   0  -1   9 26.9112 102.489   6
   0  -1   9 3128.67 504.630   2
   0   1  -9 884.410 263.861  11
   0   1  -9 467.886 249.507  20
  -1   0   9 243.943 112.253  16
   0  -1   9 2441.78 451.372  17
   1   0   9 637.120 278.008  16
   0   1  -9 1171.14 343.621   9
   0  -1   9 2322.71 527.532  16
   0   1  -9 690.334 191.518  18
   0   1  -9 794.225 269.690  10
   0  -1  10-16.5311 70.1263  17
   0  -1  10 29.1842 102.799   2
   0   1 -10 10.3570 16.2945  10
   0  -1  10-119.286 279.273   6
   0   1 -10-66.8410 77.3002  11
   0   1 -10-69.5305 92.0278   9
  -1   0  10-54.1784 180.416  16
   1   0  10 3.87328 102.814  16
   0   1 -10-19.0847 72.5222  18
   0   1 -10-360.908 239.843  20
   0  -1  10 51.3947 68.5142  16
   0   1 -11 810.357 294.046  10
   0  -1  11 5608.29 748.423   2
   0   1 -11 365.594 109.647  18
  -1   0  11 1220.74 406.390  16
   0  -1  11 3747.31 727.576  16
   1   0  11 1643.72 496.622  16
   0   1 -11 907.485 254.202  11
   0  -1  11 4111.41 629.519  17
   0   1 -11 987.177 369.372   9
   0  -1  12-2.85736 64.3501  16
   1   0  12 170.665 229.134  16
   0   1 -12-99.4100 158.792  10
   0   1 -12-193.783 159.479  11
   0   1 -12-113.187 212.597   9
   0  -1  12 26.0161 121.196   2
   0  -1  13 3121.84 712.659  16
   0   1 -13 139.670 211.892   9
   0  -1  13 4797.22 740.720   2
   0   1 -13 92.3043 144.611  11
   0   1 -13 207.479 185.719  10
   1   0  13 1962.92 577.871  16
   0  -1  14 322.914 332.368  16
   0  -1  14 270.867 283.513   2
   0  -1  15 4798.76 813.219   2
   0  -1  15 3374.36 815.793  16
   0  -1  16 487.629 276.192   2
   0  -1  16 660.136 348.339  16
   0  -1  17 2148.22 672.852  16
   0  -1  17 3515.50 734.058   2
   0  -1  18 527.469 365.798  16
   0  -1  18 229.508 273.817   2
   0  -1  19 959.051 503.945  16
   0  -1  19 1033.63 437.592   2
   0  -1  20 383.078 481.142  16
   1   1  -1-3.89632 13.0726   1
   1  -1   1-4.13912 14.1935   8
  -1   1  -1-0.18421 10.1463   3
  -1   1  -1 5.33893 24.4055  12
  -1  -1   2 12441.4 793.780  17
   1  -1   2 11686.6 514.080   8
   1   1  -2 8801.80 565.938   1
  -1   1  -2 11860.4 593.324  12
   1  -1   2 11449.9 670.722  16
  -1   1  -2 12493.5 603.112   3
   1   1  -2 12399.2 621.744  13
  -1  -1   2 11050.9 599.371  16
   1  -1   2 15828.5 759.511   6
   1   1  -2 10284.2 588.195  18
  -1  -1   2 13065.6 777.133   2
   1  -1   3 2.84942 22.7658  16
   1  -1   3 6.52142 22.0334  14
  -1  -1   3-3.32847 21.3198  16
  -1   1  -3 0.29371 15.1948   4
  -1  -1   3-11.9863 9.70363  17
   1   1  -3-7.04922 17.1950   1
   1  -1   3 4.41048 14.0058   6
  -1  -1   3-1.38035 10.2058   2
   1   1  -3 5.57068 25.9538  18
  -1   1  -3 6.86984 27.6616  19
   1  -1   3 1.94969 26.0417   8
   1   1  -4 717.873 153.235   1
   1   1  -4 147.465 68.3989  15
   1   1  -4 205.335 86.6210   7
  -1  -1   4 847.460 218.611  17
   1  -1   4 681.659 193.855   6
   1   1  -4 795.043 228.885  20
  -1   1  -4 327.614 111.071   4
  -1  -1   4 191.453 85.1689   6
   1  -1   4 771.698 147.429  14
  -1   1  -4 795.192 237.661  20
   1  -1   4 723.372 200.788  16
   1   1  -4 655.829 155.167  18
  -1  -1   4 608.696 182.219  16
   1  -1   4 938.259 170.042   2
  -1  -1   4 901.768 215.093   2
   1  -1   4 651.004 150.170   8
  -1   1  -4 582.543 136.390  19
  -1   1  -4 697.634 146.539  11
   1   1  -4 829.208 193.417  11
   1  -1   5-6.66869 57.8209  16
  -1   1  -5 67.6159 98.4682   9
  -1   1  -5-4.18866 7.94216  18
   1   1  -5 18.0333 45.1295  20
  -1  -1   5-2.93376 20.4665   5
  -1   1  -5-10.2683 51.9269  10
  -1  -1   5-6.70615 15.2885   2
  -1  -1   5-13.6314 60.4374  17
   1  -1   5 1.66905 32.7818  17
  -1   1  -5 19.8966 50.1743  20
  -1   1  -5 8.13011 28.7192  11
  -1   1  -5-15.7325 68.3720  19
   1   1  -5 6.02656 16.4026  18
  -1  -1   5 4.10472 13.6411   6
   1  -1   5-0.01185 31.6068   8
  -1   1  -5-11.7804 25.9662   7
   1   1  -5 15.1376 49.6613  11
  -1  -1   5 27.4965 47.7463  16
  -1   1  -5-14.1010 49.6877  15
   1   1  -5 18.1918 30.7393  10
   1   1  -5-8.69611 18.4403   1
   1  -1   5 8.85350 28.2834   2
   1  -1   5 16.2225 51.3034   6
   1  -1   5 0.53929 18.9173  14
   1  -1   6 356.487 168.476  16
  -1   1  -6 469.910 178.291   9
   1  -1   6 326.091 164.349   6
  -1  -1   6 327.274 158.550  16
   1  -1   6 204.233 88.3293   8
  -1   1  -6 171.539 112.531  15
   1   1  -6 507.940 212.795   9
   1   1  -6 393.260 146.734  11
   1   1  -6 296.346 189.343  20
   1  -1   6 451.632 145.929   2
  -1   1  -6 109.716 55.4802  18
  -1  -1   6 5.30001 38.4831   6
   1   1  -6 350.665 161.195  10
  -1   1  -6 313.979 143.595  10
   1  -1   6 28.1927 33.5670  14
  -1   1  -6 217.272 161.905   7
  -1   1  -6 189.975 88.3563  11
  -1   1  -6 262.105 134.427  20
  -1  -1   6 473.329 170.404  17
   1   1  -6 337.004 122.654  18
   1  -1   6 316.268 114.093  17
  -1  -1   6 462.296 169.469   2
   1   1  -6 302.458 105.629   1
  -1   1  -7-8.08726 23.8499  11
  -1  -1   7-22.0021 64.7904  17
  -1   1  -7-10.1467 48.5114  18
  -1   1  -7-21.1278 90.9382  20
   1   1  -7 0.18848 17.8033  11
   1   1  -7-1.67018 20.9978   1
   1   1  -7-36.5751 117.045   9
   1  -1   7 11.2243 32.4011  17
  -1   1  -7 0.38183 50.8893  10
   1  -1   7 12.9201 30.0339   2
   1   1  -7 13.3870 60.4509  20
  -1  -1   7 8.19161 48.9340   2
  -1   1  -7 8.31143 36.5098   9
   1  -1   7 30.6421 63.8085  16
  -1  -1   7 0.77743 46.9035  16
   1   1  -7 13.4169 34.3160  18
   1   1  -7-12.1507 63.9918  10
   1  -1   7-5.46370 40.7732   6
  -1   1  -8 337.860 155.133  10
  -1  -1   8 886.882 266.785   2
   1   1  -8 441.725 184.108  11
  -1   1  -8 414.861 201.794  20
  -1   1  -8 407.419 180.761   9
  -1  -1   8 884.779 282.576  17
   1   1  -8 462.074 230.568   9
  -1  -1   8 576.038 242.970  16
   1   1  -8 300.953 156.455  20
   1  -1   8 683.574 272.450  16
   1   1  -8 291.301 97.2083   1
   1  -1   8 861.105 229.663   2
   1  -1   8 346.198 130.416  17
   1   1  -8 449.172 166.615  18
   1   1  -8 286.590 145.755  10
  -1   1  -8 186.972 92.1058  11
   1  -1   8 315.214 170.549   6
  -1   1  -9-143.205 94.4025  11
   1   1  -9 15.1582 55.9749  18
  -1   1  -9-13.7020 32.9138  10
  -1  -1   9 24.2115 79.8095  17
   1  -1   9 32.0682 96.5631   6
   1  -1   9-5.47589 38.7806   2
  -1   1  -9 17.9721 50.4992   9
   1   1  -9-8.28071 65.2490   9
  -1  -1   9-36.0639 68.1490   2
   1   1  -9-49.2695 144.199  20
  -1   1  -9-27.7390 158.018  20
   1   1  -9 31.3641 71.8605  11
  -1  -1   9-43.9014 71.6851  16
   1   1  -9-3.93576 51.0742  10
   1  -1   9-25.0161 52.1064  16
  -1   1 -10 369.559 221.190  20
   1  -1  10 1345.50 419.527  16
  -1   1 -10 440.278 161.754   9
  -1  -1  10 1886.98 441.110  17
   1  -1  10 476.893 261.027   6
  -1  -1  10 1379.13 418.832  16
   1   1 -10 568.637 276.220   9
  -1  -1  10 1917.10 434.533   2
   1   1 -10 754.657 238.158  11
  -1   1 -10 416.220 215.251  10
   1  -1  10 1950.38 388.336   2
   1   1 -10 595.859 212.757  18
   1   1 -10-405.349 254.803  20
  -1   1 -10 99.0108 100.533  11
   1   1 -10 473.047 249.545  10
   1   1 -11 57.6045 107.620   9
   1   1 -11 77.9064 151.288  10
  -1   1 -11-100.207 203.854   9
  -1   1 -11 7.95888 118.117  10
   1   1 -11 1.63224 85.6799  11
  -1   1 -11-462.426 285.599  20
   1   1 -11-16.1773 60.9244  18
   1  -1  11 11.1813 84.2117  16
  -1  -1  11-0.78829 92.3642  16
   1  -1  11 32.5576 65.3491   2
  -1  -1  11 1.83449 72.3283  17
   1  -1  11-150.929 218.365   6
  -1  -1  11-32.6411 54.0398   2
   1   1 -12 614.073 235.537  11
   1   1 -12 367.579 103.325   9
  -1  -1  12 3573.86 650.894   2
   1   1 -12 222.555 91.9293  10
   1  -1  12 2838.02 672.107  16
   1   1 -12 480.198 170.783  18
  -1   1 -12 255.582 187.783   9
   1  -1  12 245.013 187.539   6
  -1   1 -12 247.873 82.9861  10
   1  -1  12 3499.08 585.136   2
  -1  -1  12 2252.83 587.863  16
  -1  -1  12 3813.13 677.439  17
  -1  -1  13 337.651 312.149  16
  -1  -1  13 104.322 181.868  17
   1  -1  13 38.4348 52.6874   2
   1   1 -13 585.168 233.720  11
   1   1 -13-270.222 215.156  10
   1  -1  13 73.7471 174.957  16
  -1   1 -13-289.693 373.588   9
  -1  -1  13 73.0293 197.667   2
   1   1 -13-177.663 278.415   9
  -1   1 -13-189.455 374.926  10
   1   1 -13-93.1025 169.336  18
   1  -1  14 2539.21 661.586  16
  -1   1 -14-113.446 408.884  10
  -1  -1  14 2208.46 645.299  16
  -1  -1  14 3131.47 655.408   2
   1  -1  14 3288.78 607.532   2
   1   1 -14-136.133 404.535   9
   1   1 -14 35.1309 125.961  11
   1  -1  15-16.3197 16.8859   2
  -1  -1  15 543.437 472.928  16
  -1  -1  15 453.119 345.294   2
   1   1 -15 26.9259 200.869  11
   1  -1  15 49.5230 178.482  16
   1  -1  16 1790.68 598.265  16
  -1  -1  16 2468.69 631.646   2
   1  -1  16 2676.50 599.021   2
  -1  -1  16 1767.96 608.767  16
   1  -1  17-15.0827 62.0101   2
  -1  -1  17 679.198 325.434   2
  -1  -1  17 971.876 444.894  16
   1  -1  17 44.4427 177.675  16
  -1  -1  18 1164.62 450.689   2
  -1  -1  18 731.493 412.870  16
   1  -1  18 874.787 456.723  16
   1  -1  18 1162.90 445.436   2
   1  -1  19 2.62440 127.852   2
  -1  -1  19 332.464 355.855  16
  -1  -1  19 104.230 185.754   2
   1  -1  19 81.0609 270.420  16
  -1  -1  20 623.949 443.341  16
   1  -1  20 299.743 372.147  16
  -2   0   0 8589.32 517.855  17
  -2   0   0 9202.95 583.368   5
  -2   0   0 9165.79 564.055   4
   2   0   0 8827.14 580.792   1
   2   0   0 9608.26 540.343   8
   2   0   0 9050.29 579.502  14
  -2   0   0 9232.34 597.918  19
   2   0   0 8702.81 431.384  18
  -2   0  -1 20.1345 44.6003  15
  -2   0  -1-14.7037 42.2149   4
   2   0  -1-9.15220 16.3275   1
  -2   0   1 4.10961 13.7381   2
  -2   0   1-1.56659 20.8600   5
  -2   0   1-0.96568 7.97925   4
   2   0   1-4.65767 10.4792  14
  -2   0  -1 41.0254 58.8130   7
   2   0   1-2.57059 19.4314   8
  -2   0   1-10.3740 17.0281  17
  -2   0  -1-3.29745 12.0487   5
   2   0  -1-5.67153 20.3182  18
  -2   0  -1 1.64605 35.7786  19
   2   0  -1 1.31567 6.07404   8
   2   0   1 5.31928 28.0725   6
   2   0  -1 3.19866 18.5274  14
   2   0   1 2.36216 19.6027   1
  -2   0   1-2.83550 20.2752  19
   2   0  -1-3.00237 22.1170  11
   0   2  -2 1269.41 247.046   3
  -2   0   2 2557.63 349.083  17
   2   0   2 2287.69 350.343  14
  -2   0  -2 1296.76 269.747  19
   2   0   2 1412.23 208.993  16
   2   0  -2 518.819 124.278   9
   2   0  -2 2182.19 275.785  11
   2   0  -2 2075.91 232.808   8
   2   0   2 1895.34 306.230   8
  -2   0   2 2897.02 308.975   5
  -2   0  -2 330.092 103.711  20
  -2   0  -2 1572.46 319.403  15
   2   0   2 2185.38 318.736   6
  -2   0   2 2929.56 293.609  19
  -2   0   2 2665.55 307.690   2
  -2   0  -2 1169.64 257.951   4
   2   0  -2 2502.12 285.092  18
   0   2  -2 519.623 183.759  13
   2   0  -2 3200.99 309.036  14
   2   0   2 1474.66 282.030   1
  -2   0  -2 1722.32 351.594   7
   2   0  -2 2774.36 333.972   1
   0   2  -3-3.97044 24.7550   3
   2   0   3-12.0888 57.8952   8
   0   2  -3 10.4348 41.6593  13
  -2   0   3-0.59627 10.4157  17
   2   0  -3 2.89900 11.7363  14
  -2   0  -3-172.194 123.242   7
   2   0  -3 12.3134 39.5543  11
   2   0   3 2.21082 28.9626  16
  -2   0   3-2.29174 14.8523  19
   2   0   3 4.83626 54.9998   6
   2   0  -3-4.10651 20.7810  18
  -2   0   3-6.96782 27.4025   2
   2   0  -3-0.36046 13.0434   1
   2   0   3-3.45606 9.21329  14
   2   0   3-20.9591 62.2926   1
   0  -2   3-15.4819 63.9671  16
   2   0  -3-16.2042 50.0296   9
   0   2  -3-6.18901 37.4237  12
   0  -2   3-1.72138 6.90453   6
   2   0  -4 646.760 176.093   1
   0  -2   4 1585.35 283.825   6
   0  -2   4 1013.70 289.537   2
   0  -2   4 1150.75 284.833  17
   0  -2   4 1108.05 286.299  16
   0   2  -4 1141.07 263.111  13
   2   0   4 421.312 171.828   6
   0   2  -4 1422.09 270.415   3
   2   0   4 376.694 149.822  16
   2   0  -4 402.942 141.465  11
   0   2  -4 978.095 215.307  18
   2   0  -4 714.482 142.646  14
   2   0  -4 565.320 160.750  18
  -2   0   4 997.910 255.055  17
   2   0   4 151.659 123.079  14
  -2   0   4 795.582 201.702   2
   0   2  -4 1311.69 236.637  12
   0   2  -5 2.65263 47.4248  12
   2   0  -5-0.42625 8.73931  18
   0  -2   5 8.02721 26.8597   6
   0   2  -5 15.1763 67.4010   3
   0  -2   5 4.56853 50.2564  17
   0   2  -5-17.5666 52.7145  18
   0  -2   5-0.30968 17.9537   8
   2   0   5-25.4411 101.866  14
   0  -2   5-14.5347 19.5606   2
  -2   0   5 2.50194 26.6208  17
   2   0   5-6.51328 5.26130   6
   0  -2   5-7.16675 33.8843  16
  -2   0   5-18.5081 63.2176   2
   2   0  -5 1.47390 27.6560  11
   2   0   5-7.29312 57.6899  16
   0  -2   6 581.782 113.997   8
   0   2  -6 611.471 167.747  18
   0  -2   6 547.115 225.080  16
   2   0   6 115.278 113.602   6
   0  -2   6 658.458 217.599   6
  -2   0   6 348.945 173.718  17
   2   0   6 140.436 108.347  16
  -2   0   6 270.026 108.996   2
   0  -2   6 691.648 218.011  17
   2   0  -6 150.275 87.9941  18
   2   0  -6 128.983 88.0603  11
   0  -2   6 704.005 233.281   2
   0  -2   7 2.64086 20.5502   2
  -2   0   7-20.9442 85.9164  17
   2   0  -7-1.58191 39.2347  18
   0  -2   7-2.57206 15.8549   8
   0   2  -7 159.770 190.249   7
   0   2  -7 18.9361 39.3088  11
   2   0  -7-7.08923 25.1352  11
   2   0   7-22.1458 89.3069  16
   0   2  -7 38.0297 101.606  15
   0  -2   7 35.2899 33.1498   6
   0  -2   7 20.8504 55.4376  17
   0   2  -7 9.99238 44.7172  18
   2   0   7-12.9096 104.243   6
   0  -2   7-3.32237 63.4919  16
   0   2  -7 103.951 138.145  20
   0   2  -8 79.7732 112.651  20
   0   2  -8 126.434 206.545  10
   2   0  -8-3.42025 53.4269  18
   0   2  -8 15.4852 22.7163  18
  -2   0   8 24.0068 71.6860  17
   0   2  -8 26.4720 34.4681  11
   2   0   8-51.3349 201.662   6
  -2   0   8-119.455 173.486  16
   0   2  -8 19.5762 27.3619   1
   0   2  -8 43.3913 116.127   7
   0  -2   8 58.6087 82.1689  17
   0  -2   8 28.4862 25.3406  16
   0   2  -8-121.226 124.291  15
   0  -2   8 19.3920 37.7174   8
   0  -2   8-8.27307 56.6571   6
   2   0  -8-3.82357 41.2457  11
   0  -2   8 31.2439 71.3565   2
   2   0   8 19.3902 4.63974  16
   0   2  -9-33.4530 64.2458   7
   0  -2   9 32.8024 165.879  17
   0   2  -9 20.8451 105.343  18
   2   0  -9-44.2762 120.975  18
   0  -2   9 5.39884 94.0408   2
   0   2  -9 299.298 254.570  20
   0  -2   9 5.66170 59.1537   8
   2   0   9 17.0537 82.3219  16
  -2   0   9-77.7567 180.229  16
   0   2  -9 1.56250 39.7123   1
   0   2  -9-74.7477 189.762  15
   0  -2   9 35.2383 159.835   6
  -2   0   9-42.3315 133.237  17
   0   2  -9 65.2943 164.448  11
   2   0   9-183.505 298.052   6
   2   0  -9-33.6113 139.094  11
   0   2  -9 98.4420 236.326  10
   0  -2   9 57.8084 148.294  16
   0   2  -9 483.245 423.264   9
   0  -2  10 2589.02 589.079  16
   2   0  10 861.341 357.491  16
   0   2 -10 1966.59 262.555   1
   0   2 -10 2125.16 577.852  20
   0  -2  10 3698.01 607.874   2
   0   2 -10 2161.87 514.544  10
   0   2 -10 2806.56 447.141  11
   2   0 -10 91.1574 152.561  11
   0  -2  10 3186.10 547.844  17
  -2   0  10 406.114 123.180  16
   0   2 -10 1872.20 344.295  18
  -2   0  10 1664.90 420.327  17
   0   2 -10 2425.75 574.773   9
   0  -2  10 1568.67 453.726   6
   0   2 -11 20.2763 66.9347   9
   0  -2  11 52.6865 57.0886   6
   0  -2  11-0.97380 9.00382   2
   0   2 -11 8.43766 34.6038   1
   2   0  11 62.4562 148.382  16
   0   2 -11-9.09932 52.9221  18
   0   2 -11 29.8095 74.8838  10
   0  -2  11-9.78811 52.2208  16
   0   2 -11 39.4750 165.952  20
  -2   0  11 3.84124 91.5287  16
   0  -2  11-87.4855 94.9155   8
  -2   0  11-173.708 219.330   2
   0   2 -11-8.76628 54.8358  11
   0  -2  11-31.9780 81.3220  17
   2   0  12 906.199 397.017  16
   0   2 -12 825.749 188.629   1
   0   2 -12 990.168 268.676  18
   0  -2  12 724.477 314.826   6
   0  -2  12 2721.30 567.013   2
   0  -2  12 634.319 161.598   8
   0   2 -12 1222.09 303.444  11
   0   2 -12 1321.47 428.652   9
   0  -2  12 1790.09 536.189  16
   0   2 -12 666.755 377.081  20
  -2   0  12 995.697 317.175   2
   0  -2  12 2188.92 474.288  17
   0   2 -12 980.732 386.402  10
   0  -2  13 23.4293 143.925   2
   0   2 -13 90.2035 182.060  20
   0  -2  13 33.8102 107.976  17
   0   2 -13 36.0819 74.7162  18
   0   2 -13-46.6904 32.9840   9
   2   0  13 98.3998 181.750  16
   0   2 -13 55.0986 111.338  11
   0   2 -13 18.4230 52.5650   1
   0  -2  13 241.910 234.021  16
   0  -2  13 148.346 162.751   6
   0   2 -13 59.3085 227.161  10
   0  -2  14 1819.48 469.096  17
   0   2 -14 400.475 313.346   9
   0   2 -14 271.575 126.757  18
   0  -2  14 1973.74 509.263   2
   0   2 -14 283.590 202.695  10
   0   2 -14 21.8590 252.498  20
   0   2 -14 383.454 171.710  11
   0   2 -14 404.558 142.129   1
   0  -2  14 1385.07 464.505  16
   2   0  14 768.571 421.592  16
   0  -2  14-48.9164 341.503   6
   0   2 -15-55.9385 91.2140  11
   0   2 -15-138.852 188.045  18
   0  -2  15 21.4448 100.945   2
   0   2 -15-544.286 367.762  20
   0   2 -15 90.0381 94.4069   1
   0   2 -15-19.8331 162.063   9
   0  -2  15-434.365 492.056   6
   0   2 -15 5.31382 42.1844  10
   0  -2  15-47.9333 72.2758  17
   0  -2  15 84.8401 165.174  16
   0  -2  16 563.922 320.453  16
   0   2 -16 41.5593 53.6021  11
   0   2 -16 91.8228 57.1015   1
   0  -2  16 865.230 370.875   2
   0   2 -16 131.289 142.190  10
   0   2 -16-38.0673 182.847   9
   0  -2  16 606.949 185.606  17
   0   2 -17-200.872 316.621  10
   0   2 -17 3.41219 76.7511   1
   0  -2  17-48.9550 117.530   2
   0   2 -17-256.474 192.117  11
   0   2 -17-225.647 355.014   9
   0  -2  17-78.3040 161.340  16
   0  -2  18 151.138 261.719  16
   0   2 -18-392.879 462.504  10
   0  -2  18 147.477 158.825   2
   0   2 -18-22.6258 108.852   1
   0  -2  19-29.1234 167.322   2
   0   2 -19 13.4032 43.7639   1
   0  -2  19 16.5971 109.712  16
   0  -2  20-65.7500 66.9114  16
   0  -2  20 33.3421 62.2242   2
   0  -2  21 281.871 303.843  16
   0  -2  21-120.816 254.835   2
  -2   1   0 79.1827 53.2879  12
   2   1   0 104.461 86.8762   1
   2  -1   0 157.861 73.9913   8
   2  -1   0 210.457 87.8513  14
  -2   1   0 219.340 87.5139  19
   2   1   0-8.09414 32.3814  14
   2  -1   1 4177.00 391.373  14
   2   1  -1 2863.36 316.621  13
  -2   1  -1 2796.02 305.927   3
   2  -1   1 3564.46 362.985   8
   2   1  -1 3200.50 441.283   1
  -2  -1   1 2729.94 435.562  17
   2  -1   1 3239.40 311.690   1
  -2   1  -1 3759.00 364.813  12
   2   1  -1 3075.56 381.037  18
  -2  -1   1 2722.69 411.133   2
  -2   1  -1 3535.22 320.837   5
   2   1  -1 1409.65 230.922   8
  -2   1   1 2511.18 307.463  19
   2  -1  -1 764.791 166.158   8
   2   1  -1 484.639 163.173  14
  -2   1  -1 3477.56 340.710   4
   2  -1   1 5039.35 463.012   6
  -2   1  -1 4145.36 387.953  19
   2  -1   2 64.0702 54.6555   6
   1   2  -2 22.9612 27.1989  13
  -1   2  -2 42.1457 46.3529  12
  -2   1  -2 54.8880 46.3609   3
  -2  -1   2 39.4208 39.3347   4
  -2  -1   2 24.3174 42.9718   5
  -1   2  -2 16.4890 29.0715   3
  -2  -1   2 44.7435 26.1970  19
   2  -1   2 41.7212 36.1975   8
  -2   1  -2 51.9379 38.9459   5
  -2  -1   2 33.1271 45.4410  17
   2  -1   2 67.7467 57.3672  14
   2   1  -2 25.3650 30.3116  18
   2  -1   2 42.0741 28.4694   1
   2   1  -2 48.1547 49.9650  13
  -2   1  -2 57.4033 45.0275  19
  -2  -1   2 48.2855 53.6424   2
   2   1  -2 26.0747 43.0008   1
  -2   1  -2 32.9740 27.0552   4
   2  -1   2 37.6593 47.2936  16
  -2   1  -2 28.6693 44.1875  12
   1  -2   2 2.18249 54.8651   6
   2   1  -2 7.61839 26.4064  14
   1   2  -3 462.658 109.806  12
  -1  -2   3 760.140 281.634  17
  -2  -1   3 1433.60 207.991   4
   2   1  -3 1743.76 283.841  18
   2  -1   3 2110.82 341.011   6
   1  -2   3 1682.34 310.201   6
   2  -1   3 1832.24 286.855   8
  -2   1  -3 1801.40 284.629   4
  -2   1  -3 1658.64 272.820  19
  -1   2  -3 883.770 227.134  13
  -2  -1   3 1657.46 251.174  16
  -2  -1   3 2055.04 345.402   2
  -1   2  -3 1685.93 277.376  12
   2   1  -3 950.374 186.500  14
   2   1  -3 1659.21 298.471   1
   1   2  -3 1484.66 298.507  13
   1  -2   3 973.006 263.326  16
  -1   2  -3 1786.18 307.631   3
  -2  -1   3 1969.45 238.225  19
   1  -2   3 864.164 173.298   8
  -1  -2   3 732.350 214.459  16
  -2   1  -3 1883.97 260.129   5
   1   2  -3 1555.14 258.367   3
   2  -1   3 1937.33 282.970  14
  -1  -2   3 679.610 154.750   6
  -2  -1   3 1679.21 283.611   5
  -2  -1   3 1817.68 356.416  17
   2  -1   3 1823.74 305.500  16
  -1   2  -3 806.195 153.494  19
  -2  -1   4 25.6403 12.6272  16
   1  -2   4 55.8378 58.8019   6
  -1  -2   4 45.2874 80.1377   2
   2   1  -4 46.1044 59.8085   1
  -2  -1   4 53.6827 45.4172   5
   2   1  -4 64.1431 81.8569  20
   2   1  -4 96.6551 76.6612  11
  -2  -1   4 67.5118 67.7552   2
   1  -2   4 23.5989 20.8115  14
  -1   2  -4 43.0244 36.8637  19
   2  -1   4 47.5446 46.3112   8
  -1   2  -4 62.7695 64.4553   3
   1   2  -4 43.8384 57.5107  13
   2  -1   4 60.3630 67.0247  16
  -1  -2   4 68.2868 99.6704  17
   1   2  -4 47.2253 39.4055  12
   1   2  -4 18.0336 39.9756   1
   1  -2   4 31.9692 42.2793  16
   1   2  -4 22.6543 15.4319  18
  -2  -1   4 30.3611 17.8094  19
  -2   1  -4 120.915 112.065  20
   2   1  -4 13.9860 17.4986  14
  -1   2  -4 46.1836 36.8058  12
  -2  -1   4 48.9822 74.2823  17
  -2   1  -4 47.5331 56.2950   5
   2   1  -4 27.4127 34.8918  18
   2  -1   4 43.3080 44.1486  14
  -2   1  -4 45.1830 62.9345  19
   1  -2   4 43.5644 48.6117   8
  -1   2  -4 60.7273 70.4930  13
  -2  -1   4 48.2684 36.0934   4
  -1  -2   4 24.2837 44.4509  16
   2  -1   4 29.8122 30.5406   6
  -2   1  -4 51.8741 62.7250   4
   1   2  -4 40.9325 40.2291   3
  -1  -2   4 36.1204 49.2463   6
   1  -2   4-2.78453 33.4682  17
   2   1  -5 129.979 93.9242  20
   1  -2   5 207.598 75.5282  14
   1  -2   5 208.379 88.0582   8
  -1   2  -5 209.239 74.2614  19
  -2   1  -5 102.832 78.3342  19
  -1  -2   5 184.740 120.343  16
   1   2  -5 196.601 108.356  18
   1   2  -5 105.246 73.7406   1
  -1   2  -5 201.447 122.944  13
   2   1  -5 157.750 112.862  11
  -2   1  -5 265.281 136.000   9
  -1  -2   5 234.573 141.966  17
  -2   1  -5 216.101 178.697   7
   2   1  -5 156.253 90.8602   1
  -2   1  -5 185.734 153.164  15
   2   1  -5 169.473 87.6981  18
   1  -2   5 226.650 116.989   2
  -1  -2   5 211.941 135.830   2
  -2   1  -5 202.880 138.393  20
  -1   2  -5 188.826 74.2550   4
   2  -1   5 205.089 73.1416   2
   2  -1   5 180.057 111.064   6
   2  -1   5 154.046 85.3141  14
  -1   2  -5 213.060 131.490   3
   1   2  -5 245.174 111.624   3
  -2   1  -5 46.4710 41.4531   4
   2  -1   5 153.686 99.4340   8
  -2  -1   5 130.863 93.4031  16
  -2   1  -5 55.8354 40.5693  11
   2   1  -5 179.648 65.9153  14
  -2  -1   5 214.961 122.284   2
  -2  -1   5 164.782 112.711  17
   1  -2   5 250.173 113.127  17
   1   2  -5 194.074 88.0703  12
   2  -1   5 170.121 130.910  16
  -1   2  -5 221.695 125.630  12
   2   1  -5 171.181 104.603  10
  -2  -1   5 66.0415 23.6409  19
   2   1  -5 351.892 197.794   9
  -2   1  -5 190.604 109.876  10
  -1  -2   5 175.655 90.4405   6
   1  -2   5 181.962 114.336  16
   1  -2   5 204.386 117.391   6
  -1   2  -5 180.433 76.5147  18
  -2  -1   5 213.935 91.6977   5
  -1  -2   6 80.6115 82.9827  17
   1  -2   6 71.0002 69.3275  17
  -1  -2   6 26.3112 31.7464   5
  -2  -1   6 29.0078 33.6039   5
  -2   1  -6 1.19980 24.2413  11
   1  -2   6 75.0017 100.290   6
   2   1  -6 88.9508 109.840   9
   1  -2   6 66.7319 52.7377   8
  -1   2  -6 60.0857 52.1377   4
   2  -1   6 68.2973 112.625   6
  -2   1  -6 56.3589 51.7143  15
  -2   1  -6 66.7993 90.2432   9
   2   1  -6 49.9125 121.507  10
  -2  -1   6 89.8204 80.7478   2
   2   1  -6 7.71141 15.2195  20
   2  -1   6 37.2773 73.5324  16
  -2  -1   6 73.3930 97.4419  16
  -1  -2   6 59.0539 55.6822   6
   2   1  -6 54.6084 53.8862  18
   1   2  -6 45.8924 44.6937   1
  -1  -2   6 76.2896 81.9653  16
   1  -2   6 118.093 88.4551   2
   1  -2   6 63.5163 79.0578  16
   2   1  -6 64.7463 40.9205  14
  -1  -2   6 17.2666 17.1173   2
  -2   1  -6 30.3564 66.6157  19
  -1   2  -6 61.2695 42.6847  19
   2  -1   6 38.0453 24.4390  14
  -1   2  -6 55.7603 51.0562  18
  -2   1  -6 25.0556 32.1077  20
   1   2  -6 43.7308 55.9860  18
   2  -1   6 42.2703 42.6692   2
   1  -2   6 75.6740 51.2071  14
  -2   1  -6 38.5764 71.5695   7
  -2  -1   6 84.1367 73.6891  17
   2   1  -6 65.1372 67.4026  11
   2   1  -6 36.2888 24.9892   1
   2  -1   6 24.4138 53.3430   8
  -2   1  -6 34.0778 50.2326  10
   2   1  -7 215.030 132.224  11
   2   1  -7 168.728 57.8462  10
   1   2  -7 226.469 156.470   7
   2  -1   7 247.656 111.297   2
  -2  -1   7 254.654 156.839  17
  -2   1  -7 144.664 91.6711   9
  -2  -1   7 304.240 161.154   2
  -1  -2   7 145.538 97.5415   6
   1   2  -7 291.036 168.482  11
   1   2  -7 241.358 165.317  15
   1  -2   7 344.885 113.834  14
  -2   1  -7 46.0891 87.5095  15
   1  -2   7 328.125 177.121   6
  -1   2  -7 289.926 96.3146  19
   1   2  -7 283.916 136.766  18
  -2   1  -7 97.3063 114.830   7
  -2  -1   7 202.575 79.5302   5
   1   2  -7 455.518 259.164  20
   2  -1   7 234.798 149.176  16
  -1  -2   7 339.357 184.304  17
   2   1  -7 248.662 73.4974  14
   1  -2   7 351.902 194.319  16
  -2   1  -7 100.438 101.701  20
   2   1  -7 220.991 115.515   1
  -1   2  -7 276.147 126.919  11
   2   1  -7 241.402 129.424  18
  -2   1  -7-1.68270 89.4786  11
   2  -1   7 158.390 116.527  14
  -1  -2   7 259.375 151.567  16
  -1  -2   7 354.365 161.482   2
  -1   2  -7 223.590 105.793  18
   1  -2   7 292.235 112.149   8
   2  -1   7 165.974 121.131   8
   1  -2   7 387.092 164.855   2
  -2   1  -7 146.951 105.592  10
  -2  -1   7 142.401 107.242  16
  -1  -2   7 304.659 99.2160   5
  -1   2  -7 497.721 274.764  15
   2   1  -7 231.881 165.004   9
   1  -2   7 419.050 147.800  17
   2  -1   7 200.854 142.945   6
   1   2  -7 234.681 101.853   1
   2   1  -8 19.2703 22.0556  14
  -1  -2   8 7.42373 35.9324  16
   2   1  -8 21.8872 56.1595  11
   2   1  -8 20.5702 33.8786  18
  -2   1  -8-13.6619 66.6580  10
  -1   2  -8 16.1065 56.9759  11
   1   2  -8 28.3954 53.6254  18
  -1   2  -8 50.0614 175.172  10
  -2  -1   8 15.7052 29.8941  16
   1  -2   8 37.6105 43.3713  16
  -1   2  -8 14.9350 30.2552  18
   1   2  -8-104.888 198.204  15
  -2   1  -8 2.95846 32.9890   9
  -2  -1   8 7.57718 36.3030  17
  -1   2  -8 106.696 181.245  20
   2  -1   8 5.27672 42.5651   2
  -1  -2   8 0.39302 85.9114   6
   1  -2   8 60.5305 84.0747  17
   1  -2   8 45.9295 69.8464   8
   2   1  -8-4.89560 37.5147  10
   2  -1   8 22.6086 36.7076  16
   1  -2   8 16.2964 35.4378   2
   2  -1   8-18.4976 96.0176  14
  -2  -1   8 19.1345 47.2596   2
   1  -2   8 10.6281 10.5917  14
  -1  -2   8 65.4580 89.1285  17
  -1   2  -8 34.0661 61.6669  15
   2  -1   8 43.3653 41.0352   6
   2   1  -8 49.1580 121.218   9
   1   2  -8 171.080 174.579  20
   2   1  -8-45.1067 128.189  20
  -1   2  -8 24.0692 40.8812  19
  -1  -2   8-4.97979 25.9861   5
  -1   2  -8 34.2339 147.767   7
   1   2  -8 54.3175 104.938  11
   2   1  -8 30.6710 50.6811   1
   1   2  -8-9.51852 37.5088   1
   2  -1   8-25.3280 122.522   8
   1   2  -8 112.867 162.859  10
  -2   1  -8 8.93466 63.5930  20
   1   2  -8-96.5381 172.607   7
  -1  -2   8 14.5894 58.2939   2
   1  -2   8 1.73200 26.1682   6
  -1   2  -9-31.9794 117.528  15
   2  -1   9 3.04835 40.9808   6
   1  -2   9 3.96212 45.2352   2
  -1  -2   9 29.7979 13.3780  16
   1   2  -9-0.01421 48.6691   1
   2   1  -9-12.4018 87.9452   9
  -1   2  -9 6.86052 30.4730  11
   1   2  -9-19.2330 89.5844  10
   2  -1   9-53.9807 116.572  16
  -2  -1   9 66.1955 115.575   2
  -1   2  -9 269.576 291.982   9
   2   1  -9-185.462 263.492  20
   2  -1   9 26.0143 27.0784   2
  -1   2  -9-192.789 168.379  20
  -2  -1   9 16.4291 51.2061  16
   1   2  -9 38.9029 86.8381  18
   2   1  -9 21.2440 71.8481   1
   2   1  -9-21.1439 47.2586  18
   1  -2   9-2.82172 60.8324   6
   1  -2   9-36.9781 96.6131  16
  -1  -2   9 71.4663 115.490   2
   1  -2   9 3.80567 24.7118  17
  -1  -2   9-21.2860 60.7724   6
  -2   1  -9 34.6481 65.8143  10
  -1   2  -9 5.73535 11.5096  18
   1  -2   9 28.9888 51.1984  14
  -1   2  -9 75.0299 154.986  10
   1   2  -9 49.9514 116.597  20
  -2   1  -9-142.358 149.594  20
  -1  -2   9 32.3414 44.5628   5
  -2  -1   9 76.4954 107.874  17
   1  -2   9-3.23082 33.6525   8
   2   1  -9-13.1935 59.8839  11
   1   2  -9 278.955 290.976   9
   2  -1   9-98.3716 182.383   8
  -1   2  -9 28.9700 73.2822  19
  -1   2  -9 55.4432 88.1418   7
   1   2  -9 5.57424 68.4312  11
   2   1  -9 66.0293 54.5973  10
  -2   1  -9-67.9716 121.365   9
   2   1  -9-37.4596 55.4730  14
  -1  -2   9-21.9179 53.8522   8
  -1  -2   9 39.0198 122.870  17
   1   2 -10 102.598 141.041  11
   1   2 -10 184.175 267.637   9
  -1  -2  10 63.8941 111.486  16
   1  -2  10 139.552 173.923   6
   1  -2  10 40.9679 67.3213   8
  -1   2 -10 128.178 182.671  10
  -1   2 -10 52.4128 65.0355  19
  -1   2 -10 164.269 203.995   9
   1   2 -10 41.2106 125.011  10
  -1   2 -10 93.6325 76.2116  11
  -2  -1  10 24.3070 37.8663  17
   2   1 -10-16.1018 55.0196   9
  -2   1 -10-148.617 237.495   9
   2   1 -10-74.6097 74.8458  10
   2  -1  10-10.1572 85.7776   2
  -1  -2  10 32.4266 109.803  17
   2   1 -10 26.8729 43.5694  18
   2   1 -10 38.9383 53.5362   1
  -1   2 -10 170.393 244.728  20
  -2  -1  10 46.6420 89.3495  16
   1   2 -10 55.2138 52.6350   1
   2  -1  10 28.6488 85.0826   6
   1   2 -10 39.3307 45.6975  18
   1  -2  10 64.8224 83.7901  17
  -1   2 -10-457.003 286.301  15
  -1  -2  10 37.5948 17.2111   5
   2   1 -10 12.9616 91.9690  11
  -1   2 -10-40.2542 237.013   7
  -1  -2  10 20.8140 57.3639   6
  -2  -1  10 49.8436 101.451   2
   1   2 -10 59.3182 115.653  20
  -2   1 -10-33.9488 99.5105  10
  -2   1 -10-123.395 140.421  20
   1  -2  10 74.7935 134.440   2
   1  -2  10 21.3756 37.9867  16
  -1  -2  10 52.3500 134.443   2
   2  -1  10-2.97619 65.3464  16
  -1   2 -10 5.12712 18.5133  18
   2   1 -11 300.165 143.675   1
   1  -2  11 1369.28 331.497  17
  -1   2 -11 346.280 82.0188   1
  -2   1 -11 71.7421 125.883  10
   2   1 -11 338.631 120.162   9
  -1   2 -11 838.169 216.864  11
   1   2 -11 990.071 386.909   9
   2   1 -11 484.641 225.236  11
  -2  -1  11 1184.72 377.001   2
  -1  -2  11 1670.51 453.916   2
   2  -1  11 1113.74 282.368   2
   1  -2  11 1309.65 455.621  16
   1   2 -11 491.798 311.072  20
  -2   1 -11-83.8971 286.311   9
   1  -2  11 1770.31 412.421   2
  -1   2 -11 790.809 327.425   9
   2  -1  11 535.504 267.594   6
  -1   2 -11 459.817 165.711  18
   2   1 -11-26.0522 175.049  10
  -1  -2  11 1517.73 408.824  17
  -2  -1  11 1221.33 399.780  17
   1   2 -11 832.040 325.303  10
   1   2 -11 840.165 260.012  18
  -1  -2  11 84.6489 168.228   6
  -1  -2  11 1085.26 177.906   5
   1   2 -11 834.170 213.005   1
  -2   1 -11-82.1302 262.511  20
   1  -2  11 993.027 369.826   6
   2  -1  11 1010.14 389.247  16
   2   1 -11 420.395 196.069  18
  -2  -1  11 703.060 308.899  16
  -1   2 -11 993.822 428.820  20
  -1   2 -11 771.973 319.559  10
  -1  -2  11 975.503 360.967  16
   1  -2  11 1154.70 261.002   8
   1   2 -11 1176.27 328.193  11
   2   1 -12 46.9407 84.0594  18
   2   1 -12-25.7390 138.057  10
   2  -1  12 104.035 219.377  16
  -1  -2  12-117.634 207.954   6
  -1  -2  12 8.84853 102.895   2
   1   2 -12-33.1152 85.2549  18
   2   1 -12 162.830 224.789   9
   1   2 -12 124.413 176.702  10
  -1   2 -12-35.7977 76.3937  18
  -1  -2  12 21.0701 131.367  16
  -1   2 -12 53.0273 39.4056  11
   2   1 -12-21.3589 106.159   1
   1   2 -12 7.46029 49.8812   1
   1  -2  12 107.569 158.701  16
  -2   1 -12-149.224 266.898  10
  -2  -1  12 75.8185 224.680  17
  -1  -2  12 80.1992 128.315  17
   1   2 -12-42.3543 39.4594  20
   1  -2  12-22.3040 15.5781   8
   2   1 -12 90.1573 193.434  11
  -1   2 -12-38.3996 91.9440  20
  -1   2 -12 26.9620 32.3014   9
  -1   2 -12-19.3862 77.7452  10
   1   2 -12 231.611 232.125   9
  -2  -1  12 65.4657 202.153   2
   1   2 -12 156.511 156.295  11
  -2  -1  12 116.595 253.047  16
   2  -1  12-36.7624 70.0850   2
   1  -2  12 10.1652 55.2987  17
   1  -2  12-18.1982 15.9214   6
   2  -1  12-20.2193 70.0459   6
   1  -2  12 1.25104 67.9301   2
   2  -1  13 1036.16 434.778  16
  -1   2 -13 452.801 181.863  11
  -2   1 -13-172.731 356.775  10
   2   1 -13 241.365 110.387  18
   1   2 -13 300.461 210.576  20
   2  -1  13 376.599 166.464   6
  -1  -2  13 1203.10 454.319  16
  -2  -1  13 909.882 368.043  16
  -1  -2  13 1555.57 462.867   2
   2   1 -13-209.296 340.868   9
   1   2 -13 665.807 242.682  18
   1  -2  13 1150.13 311.821  17
   1  -2  13 871.292 258.722   8
   2   1 -13 157.736 57.1894   1
   1   2 -13 740.598 267.011  11
   2   1 -13-305.888 382.533  10
   2  -1  13 1297.42 322.194   2
   1  -2  13 1663.41 423.091   2
   2   1 -13 245.559 168.984  11
   1   2 -13 546.603 252.231   9
  -1   2 -13 572.615 267.727   9
  -1   2 -13 858.673 396.718  20
  -2  -1  13 1441.26 450.672   2
   1  -2  13 1457.16 513.344  16
   1   2 -13 526.596 244.161  10
  -1  -2  13 1597.86 476.385  17
   1   2 -13 566.308 191.957   1
  -1   2 -13 16.2722 102.469  18
   1  -2  13 774.644 361.603   6
  -1   2 -13 611.617 323.413  10
  -2  -1  13 1728.01 489.329  17
   1  -2  14-39.5355 159.271   2
  -1   2 -14-67.9028 99.8375  11
   2   1 -14-73.8969 164.944   1
  -1  -2  14 51.6727 90.1275  17
   1   2 -14 335.010 249.608  10
   2  -1  14 139.591 134.077   2
   2   1 -14 74.7042 112.655  11
   1   2 -14 98.6469 126.565   1
  -1   2 -14-249.842 239.143  20
   1   2 -14-466.947 328.962  20
   1  -2  14-80.3469 113.636   8
  -1   2 -14 37.0630 90.4081  10
  -2  -1  14 183.601 237.630   2
  -2  -1  14 86.3293 242.256  16
  -1  -2  14 8.49620 140.476   2
   1  -2  14 11.4641 44.8977   6
   1  -2  14 90.5876 148.671  16
   2   1 -14-353.406 472.587   9
   1   2 -14 299.733 305.414   9
   2  -1  14-481.675 602.361   6
   2   1 -14-113.097 110.975  18
  -1   2 -14-129.692 288.970   9
   2  -1  14 179.336 211.785  16
   1   2 -14 137.889 165.810  18
   1   2 -14 263.025 179.145  11
  -2  -1  14 90.4114 70.8097  17
  -1  -2  14 129.962 225.438  16
   1   2 -15 58.5624 24.0217  18
  -1   2 -15 326.792 311.998  10
   1  -2  15 947.620 350.872   2
   1  -2  15 209.730 76.8051   8
  -1   2 -15-117.546 163.195  11
  -1   2 -15 138.256 63.5970   9
   1   2 -15-153.983 413.469  20
   1   2 -15 142.505 100.571   1
  -1  -2  15 585.533 309.108  16
   1   2 -15 221.390 185.326  11
  -1  -2  15 726.461 333.870   2
   1   2 -15-7.07336 209.834   9
   2  -1  15 872.638 300.834   2
  -2  -1  15 417.994 320.204  16
   2   1 -15-136.769 214.649  11
  -2  -1  15 508.252 147.521  17
  -1  -2  15 725.334 340.667  17
  -2  -1  15 760.609 349.331   2
   1  -2  15 31.8302 74.5318   6
   2  -1  15 492.216 297.603  16
  -1   2 -15-95.0706 400.731  20
   1  -2  15 513.989 305.921  16
   1   2 -15 162.310 235.331  10
   1  -2  16-165.968 188.224   8
   1   2 -16 105.423 88.2843   1
   2  -1  16-81.1393 168.954  16
   1   2 -16 226.526 174.533  11
   2  -1  16 77.3992 6.25142   2
   1  -2  16 69.5532 80.9778  16
  -1   2 -16-0.90437 105.824   9
   1   2 -16 216.059 233.325  10
  -1   2 -16-71.1459 244.869  10
   1  -2  16-60.1456 124.388   2
   1   2 -16-21.0373 142.043  18
  -2  -1  16 387.806 342.373  16
  -1  -2  16 79.7904 106.345  17
   1   2 -16 30.8772 161.699   9
  -1  -2  16 93.5489 165.084   2
  -2  -1  16 312.791 306.471   2
  -1  -2  16 207.401 224.442  16
   1  -2  16-325.139 466.508   6
  -1  -2  17-17.1213 262.030  17
   1   2 -17-98.2337 221.300  18
   2  -1  17 117.824 131.866   2
  -2  -1  17 93.3944 186.073   2
   1   2 -17-82.6370 281.239  10
  -1  -2  17 104.989 33.8514   2
  -2  -1  17 208.244 194.813  16
   1  -2  17 125.217 114.139   2
   1  -2  17 1.49500 112.903   8
  -1  -2  17 337.497 282.606  16
   1   2 -17-15.2980 103.627  11
   2  -1  17-49.6915 153.027  16
  -1   2 -17-371.958 464.605   9
  -1   2 -17-119.007 300.943  10
   1   2 -17-8.86016 60.6865   1
   1   2 -17-190.723 365.015   9
   1  -2  17-58.7581 153.017  16
   1  -2  18 219.191 266.967  16
   1   2 -18-328.080 284.028  11
  -1  -2  18 148.879 176.165  16
  -1  -2  18-27.4505 161.725   2
   1   2 -18-636.680 554.330  10
  -2  -1  18 152.847 359.432  16
   1  -2  18 12.3768 170.384   8
   1   2 -18 24.9029 74.4908   1
  -2  -1  18 56.8449 287.588   2
   2  -1  18 332.273 386.171  16
   1  -2  18 103.503 113.365   2
   2  -1  18 72.4776 149.144   2
  -2  -1  19 191.775 216.012   2
   1  -2  19 13.9853 82.2310   2
  -1  -2  19 132.835 158.584   2
   1  -2  19 138.309 292.188  16
   1   2 -19-29.9482 86.9105   1
  -1  -2  19-43.8826 117.519  16
   2  -1  19 189.163 311.697  16
   1  -2  19-74.2144 214.085   8
   2  -1  19 43.5320 169.690   2
  -2  -1  19 189.346 287.340  16
   1  -2  20-8.60824 170.218   2
  -1  -2  20 159.530 160.712   2
   1  -2  20 9.55992 219.637  16
   1   2 -20-72.7611 135.914   1
  -1  -2  20-91.4187 120.156  16
   2  -1  20 159.316 353.324  16
   1  -2  20-223.176 335.975   8
   1  -2  21-169.356 308.126   8
   1  -2  21 148.136 255.701  16
  -1  -2  21-77.9310 178.134   2
   1  -2  21 221.165 279.730   2
  -1  -2  21 303.958 264.769  16
  -2   2  -1-5.05738 43.8589  12
   2   2  -1-20.3215 141.014   1
   2  -2   2 404.982 143.398   8
   2  -2   2 526.191 186.849   6
   2   2  -2 452.948 174.301  13
   2  -2   2 275.938 96.6328  14
  -2   2  -2 457.182 166.491   3
  -2   2  -2 532.680 150.675  19
   2   2  -2 79.8757 89.1669   1
  -2   2  -2 588.891 181.979  12
  -2   2  -3-7.34690 39.6601  19
  -2   2  -3-1.52103 26.8224   3
   2  -2   3 3.00750 67.5963  16
  -2  -2   3-18.1619 78.8080  17
   2   2  -3-5.62897 40.5192  18
  -2   2  -3-19.6073 46.1901  13
   2  -2   3 9.54598 27.4246  14
   2   2  -3-12.2367 29.4526  13
   2  -2   3 3.28204 28.4463   8
   2   2  -3 2.16699 49.7629   1
   2  -2   3-3.20331 40.4554   6
   2   2  -3 3.93651 7.11961   3
  -2   2  -3-4.91976 20.2218  12
  -2  -2   3 25.7368 37.6268   2
   2  -2   4 103.129 93.1122  16
  -2   2  -4 121.762 72.8418   4
  -2  -2   4 174.362 131.893  17
   2  -2   4 131.493 74.4504  14
  -2   2  -4 128.320 74.6483  19
  -2   2  -4 151.584 90.6009   3
   2   2  -4 142.553 70.9076   3
  -2   2  -4 148.977 87.1127  12
  -2  -2   4 121.053 108.741   2
   2   2  -4 118.839 95.6392  18
   2  -2   4 114.470 85.5756   8
  -2   2  -4 116.801 46.6970   5
   2  -2   4 177.330 115.587   6
  -2  -2   4 75.4155 72.6793  16
   2   2  -4 120.211 103.299   1
   2   2  -4 157.137 100.866  13
  -2   2  -4 112.760 73.8438  13
  -2  -2   5 1.60278 33.0666  16
  -2  -2   5 7.35011 41.9780   5
   2   2  -5 5.15629 12.6464  12
  -2   2  -5-0.81520 12.6676  19
  -2   2  -5 39.8701 69.1829  12
   2   2  -5 3.88183 50.3094  18
  -2  -2   5 43.2897 29.1181  17
   2  -2   5-6.41007 57.1330   6
   2   2  -5-2.69169 20.6772   3
   2  -2   5 7.20188 44.3011  16
  -2   2  -5 17.0104 4.89929   5
  -2   2  -5 11.3724 68.4960  13
  -2   2  -5 3.12920 55.0471   4
   2   2  -5 28.6854 59.9659   1
  -2  -2   5 8.00138 33.1603   2
  -2  -2   5 1.06343 17.4892   6
   2  -2   5 5.96614 29.3457   8
  -2   2  -5 71.2466 87.1199   3
   2  -2   5-2.15155 30.1201  14
  -2  -2   6 4660.28 660.088   2
   2  -2   6 4354.12 537.759   2
  -2   2  -6 3572.73 462.656   4
   2  -2   6 4220.15 637.011  16
  -2   2  -6 4449.38 416.373  11
   2   2  -6 3569.34 482.915   1
   2   2  -6 3395.37 460.028  15
  -2   2  -6 3958.56 296.588  18
  -2   2  -6 4093.76 454.135  19
   2  -2   6 4970.53 408.815  17
  -2  -2   6 4035.65 560.023  16
  -2  -2   6 4874.74 704.975  17
   2  -2   6 5134.05 496.457  14
  -2   2  -6 3168.18 347.493   5
   2   2  -6 4248.55 535.033  18
   2  -2   6 5443.50 692.826   6
   2   2  -6 3791.01 524.008   7
   2  -2   6 4670.89 493.507   8
  -2  -2   6 3436.55 434.528   5
  -2  -2   7 12.0888 41.1290   5
   2  -2   7-14.7223 67.5860   6
   2   2  -7-111.321 166.769  15
  -2   2  -7 5.04384 16.0078  18
  -2  -2   7-6.68436 52.1993   6
   2  -2   7-30.8639 44.3492  16
   2   2  -7 2.54558 26.1266   1
  -2  -2   7 10.8524 66.6359  16
   2   2  -7 10.1077 47.9362  18
   2  -2   7 18.9875 37.7746  14
  -2  -2   7-4.53306 32.7654  17
  -2  -2   7 0.50884 80.8937   2
   2   2  -7 83.5475 176.613  20
  -2   2  -7 4.14364 51.4904  19
   2  -2   7 36.7047 63.8897   2
   2   2  -7 22.0618 104.369  11
   2  -2   7 3.85116 20.4393   8
  -2   2  -7-0.32876 39.7051   4
   2  -2   7 23.4910 33.9129  17
  -2   2  -7-2.35782 30.0885  11
   2  -2   8 252.256 131.060   8
   2   2  -8 330.262 224.731  20
   2   2  -8 371.316 188.213  11
  -2   2  -8 195.370 101.835  19
   2   2  -8 178.286 100.652   1
  -2  -2   8 22.6243 39.1839   6
   2   2  -8 225.050 125.740  18
  -2   2  -8 245.684 114.897  11
  -2  -2   8 231.328 156.868  16
   2  -2   8 293.552 135.156  14
  -2  -2   8 419.360 223.098   2
  -2   2  -8 263.677 222.647  20
   2  -2   8 399.384 182.435   2
   2  -2   8 226.267 97.1931  17
  -2   2  -8 140.558 61.7360  18
   2  -2   8 258.464 195.008  16
  -2  -2   8 297.504 114.783   5
  -2  -2   8 316.184 196.204  17
  -2   2  -8 441.788 335.562   7
  -2   2  -8 278.224 247.838  15
   2  -2   8 239.447 163.249   6
  -2   2  -8 419.823 271.591  10
   2   2  -8 437.823 291.177  10
  -2   2  -9 20.6256 114.984   7
  -2   2  -9 67.4726 154.157  10
  -2  -2   9 87.0150 103.761   2
   2   2  -9 129.168 157.472  10
  -2   2  -9-15.9997 46.6642  18
  -2   2  -9-46.8747 127.261  15
  -2   2  -9-77.3479 107.013  20
   2  -2   9-1.92093 52.7526  17
  -2  -2   9-32.2897 65.8779  16
   2   2  -9 108.954 186.333  20
   2  -2   9 33.2386 79.5242  14
   2  -2   9 18.2359 70.0773   8
  -2   2  -9-24.2206 66.0359  11
  -2  -2   9-2.32996 16.4113   5
   2   2  -9 54.0154 72.6894   1
   2  -2   9-11.9940 28.2949  16
   2   2  -9 30.0104 18.0672  18
  -2   2  -9 273.401 228.549   9
   2  -2   9-41.3798 81.6779   6
  -2  -2   9 20.2946 68.9324   6
   2   2  -9 335.199 317.574   9
  -2  -2   9 27.4098 55.4315  17
   2   2  -9 2.84664 109.138  11
  -2   2  -9 44.2288 45.9724  19
   2  -2   9 12.6206 54.1701   2
   2  -2  10 351.031 161.465   2
  -2   2 -10 29.8189 50.9235  18
  -2   2 -10 98.6828 60.2040  11
   2  -2  10 215.568 135.408   8
   2   2 -10 257.529 212.891  20
  -2   2 -10 92.9914 125.883  15
   2  -2  10 223.037 108.480  17
   2   2 -10 266.719 148.768   1
  -2   2 -10 293.017 197.854  20
   2   2 -10 357.649 257.754  10
  -2   2 -10 91.2766 96.1237  19
  -2   2 -10 203.049 147.215  10
   2   2 -10 210.326 143.216  18
   2   2 -10 262.581 164.222  11
  -2   2 -10 164.481 94.3586   7
  -2  -2  10 314.772 202.417   2
  -2  -2  10-91.9516 193.265   6
   2  -2  10 131.949 96.8538  14
   2  -2  10 174.523 144.447  16
   2  -2  10 210.105 133.790   6
  -2  -2  10 329.679 210.557  17
   2   2 -10 376.925 295.735   9
  -2  -2  10 355.672 130.335   5
  -2  -2  10 236.668 200.158  16
  -2   2 -10 328.176 214.738   9
  -2   2 -11-692.906 402.931   7
   2   2 -11 7.55232 30.0112  18
   2   2 -11-56.5187 101.622  11
  -2   2 -11 35.3106 48.5953  19
   2   2 -11 25.0224 72.7160   1
   2  -2  11 4.38438 95.8058   6
  -2   2 -11 13.0968 85.1927  10
  -2   2 -11 27.9230 24.8685  11
  -2   2 -11-81.1963 205.384  20
   2  -2  11-104.493 195.420  14
  -2  -2  11 75.7615 93.0554  17
   2  -2  11 55.5025 66.7155   2
  -2   2 -11-308.905 424.761  15
  -2   2 -11 21.4629 112.107   9
   2  -2  11 30.7293 72.3412   8
  -2  -2  11 7.19903 55.9652   5
  -2  -2  11-25.7346 80.0184   2
   2   2 -11-158.952 180.796   9
   2  -2  11-27.0051 99.1182  16
   2   2 -11-47.1392 125.429  10
  -2  -2  11 96.4114 137.410  16
   2   2 -11 84.4787 181.541  20
   2  -2  11-60.3076 118.064  17
  -2  -2  12 589.492 163.661   5
   2  -2  12 897.101 293.302   2
  -2   2 -12 231.298 214.495   9
   2   2 -12 342.630 160.651   1
   2   2 -12 386.189 199.576  18
   2   2 -12 83.2197 98.9467  20
   2  -2  12 775.379 375.017  16
   2   2 -12 486.286 266.939   9
  -2  -2  12 686.539 308.023  17
   2   2 -12 154.577 101.943  10
  -2  -2  12 498.275 277.246  16
   2  -2  12 563.404 285.510   6
  -2   2 -12 134.503 164.621  10
  -2   2 -12 136.034 91.8105  11
  -2   2 -12 75.2857 35.2797  19
  -2  -2  12 782.777 327.346   2
   2  -2  12 646.422 225.129   8
  -2   2 -12 198.724 160.223  20
   2   2 -12 484.961 231.817  11
   2   2 -13 55.7300 152.859  11
   2   2 -13 26.1448 116.340  18
  -2   2 -13-220.203 204.236  19
   2   2 -13 96.6416 237.316   9
   2  -2  13-12.4674 82.1624   8
  -2   2 -13-208.823 227.378  20
   2  -2  13 56.6450 105.110   2
  -2  -2  13 24.2296 128.604  16
   2   2 -13-29.0931 27.7179   1
   2   2 -13-190.901 352.013  20
   2  -2  13 42.4398 56.8119  16
   2  -2  13-55.8331 152.638   6
   2   2 -13-180.787 236.764  10
  -2   2 -13-134.264 133.898  10
  -2   2 -13-136.249 132.089  11
  -2  -2  13 33.0567 99.1203   2
  -2  -2  13-42.3919 81.5088   5
  -2  -2  13-9.85571 83.9549  17
  -2   2 -13-172.616 241.957   9
  -2  -2  14 223.726 85.4466   5
   2   2 -14 30.0594 85.8896  10
   2  -2  14 480.981 334.270   6
   2   2 -14 82.5798 49.1519   9
  -2   2 -14-601.235 370.616  20
   2  -2  14 439.967 198.156   2
  -2   2 -14-363.435 248.087  11
   2   2 -14 132.540 111.814  18
  -2  -2  14 239.682 162.436  17
  -2  -2  14 283.121 244.780  16
   2   2 -14 113.662 115.665  11
  -2  -2  14 289.012 166.852   2
  -2   2 -14 66.3370 109.105  10
   2  -2  14 563.469 234.249   8
   2   2 -14-675.154 397.673  20
   2   2 -14 93.1053 57.1679   1
   2  -2  14 461.004 346.862  16
  -2   2 -14 52.8545 129.437   9
  -2  -2  15 5.02836 18.8708  17
   2   2 -15 38.6545 35.3844   9
  -2   2 -15-77.3058 149.281  10
   2  -2  15-68.8014 130.645   2
  -2   2 -15-104.347 241.510   9
  -2   2 -15-420.029 410.181  20
   2   2 -15 150.253 253.624  10
   2   2 -15 49.2280 129.341  18
   2   2 -15 106.128 151.681  11
   2  -2  15 99.4224 157.326   6
  -2  -2  15-99.1000 95.1491   2
   2   2 -15-11.3657 52.2950   1
   2  -2  15 61.9457 203.006  16
   2  -2  15 30.7056 1.95363   8
  -2  -2  15 106.259 258.191  16
  -2  -2  16 70.0571 127.364  17
  -2  -2  16-21.8242 106.606   2
  -2   2 -16-218.631 345.198   9
   2   2 -16-121.131 141.349   9
   2  -2  16-54.1162 73.5402   8
   2   2 -16-0.52925 38.0450  11
   2   2 -16 105.588 184.665  10
  -2   2 -16 26.8109 172.407  10
   2  -2  16-115.436 190.891   6
  -2  -2  16 77.5651 211.120  16
   2   2 -16-27.0849 51.9579   1
   2  -2  16 70.6302 149.423  16
   2   2 -16-1.42878 69.4716  18
   2  -2  16 70.2569 45.5501   2
   2   2 -17-779.935 429.632  10
   2  -2  17 124.550 253.830  16
   2   2 -17-81.6271 104.413   1
   2   2 -17-45.3605 136.538  18
  -2   2 -17-403.606 509.250   9
   2   2 -17-22.3138 109.092  11
  -2  -2  17-38.8236 128.978  16
   2   2 -17-269.510 394.992   9
   2  -2  17 62.0219 110.956   2
  -2  -2  17-6.35642 121.117  17
   2  -2  17-619.853 401.201   6
   2  -2  17 93.2787 119.255   8
  -2   2 -17-103.424 332.331  10
  -2  -2  17 47.9743 137.979   2
   2   2 -18 39.7053 86.5661   1
   2  -2  18 51.2956 96.2778   8
   2   2 -18 40.9596 108.851  11
   2  -2  18 177.426 219.605  16
  -2   2 -18-315.699 520.003  10
  -2  -2  18 156.520 141.656   2
   2  -2  18 343.135 223.740   2
  -2  -2  18 260.596 168.175  17
  -2  -2  18 283.611 251.662  16
   2  -2  19-55.6460 111.617   2
  -2  -2  19-145.394 202.044   2
   2   2 -19 16.5840 110.242   1
   2  -2  19 24.8058 124.084  16
   2  -2  19-21.7760 96.7830   8
  -2  -2  19-58.7211 83.5290  16
   2   2 -19-130.840 239.548  11
  -2  -2  19-311.707 455.892  17
  -2  -2  20 590.526 343.578   2
   2  -2  20 779.576 362.359   2
  -2  -2  20 500.707 336.013  16
   2  -2  20 896.854 509.197  16
   2   2 -20-10.0043 53.6768   1
   2  -2  20 473.760 266.949   8
   2   2 -21 50.3986 51.9478   1
  -2  -2  21-23.9796 197.327   2
   2  -2  21 44.8716 116.828   8
  -2  -2  21 187.947 240.234  16
   2  -2  21-2.38411 196.169   2
   2  -2  21 323.031 384.948  16
   3   0   0-3.51888 22.2042   1
  -3   0   0 14.2749 50.0800  12
   3   0   0 0.12013 41.8995  11
  -3   0   0 3.75124 57.8933  19
   3   0   0 14.4409 35.3480   6
   3   0   0 16.2530 63.9768   8
  -3   0   0-0.88679 35.2163  17
  -3   0   0-8.73232 43.1417   5
   3   0   0-3.90830 22.8540  14
  -3   0   0 18.4464 42.9173   2
   3   0   0-0.78095 25.6810  18
  -3   0   0 0.25055 17.1252   4
   3   0   1 1228.64 259.816   8
   3   0  -1 1190.10 209.590  18
  -3   0   1 807.029 146.262  12
   3   0   1 1299.83 242.800   6
   3   0  -1 1280.43 232.295   8
  -3   0  -1 1014.39 258.931   5
  -3   0   1 1028.22 237.072  17
  -3   0  -1 1015.12 265.670   4
   3   0  -1 1321.94 274.546   1
   3   0  -1 1245.19 210.765  11
   3   0   1 1436.31 292.567   1
   3   0   1 1212.70 276.213  14
  -3   0  -1 1031.17 212.892  17
   3   0  -1 1461.94 272.899  14
   3   0  -1 1713.35 221.244   6
  -3   0   1 1319.47 262.073  19
  -3   0  -1 933.678 248.212  19
  -3   0   1 1299.35 263.953   5
  -3   0   1 1395.37 236.899   2
  -3   0   1 1240.32 249.285   4
   3   0   1 1249.38 188.870  18
  -3   0  -2-1.07589 11.7017  19
  -3   0   2 4.51769 25.4860   2
  -3   0  -2 10.0171 35.9559  17
  -3   0  -2 2.74357 33.3767  15
  -3   0  -2 3.27804 50.4881   4
   3   0  -2-13.9849 26.5688  11
   3   0   2-4.54644 10.0652  16
   3   0  -2-5.84676 32.8703   8
   3   0   2 2.74451 22.8628   6
   3   0   2 14.2340 30.4805   1
  -3   0   2-1.39612 27.9515  17
  -3   0  -2-15.0411 43.5560   5
   3   0  -2-58.5172 62.4987   9
   3   0   2 6.49863 46.8218   8
   3   0   2 23.0312 60.1059  14
  -3   0  -2 2.64725 48.9368   7
   3   0  -2 3.37306 28.7072  14
   3   0   2-12.9311 41.2429  18
   3   0  -2 3.50894 33.2367  18
  -3   0   2 21.3071 42.3655  19
  -3   0  -2-26.0070 63.3681  20
   3   0  -2-13.0169 43.2690   1
  -3   0   2 9.30843 17.9639   5
  -3   0   2 10.4154 28.3170   4
   0   3  -3-5.26748 51.8006   3
  -3   0   3 3.00901 15.6670  17
  -3   0   3 23.8046 34.0211  19
  -3   0  -3-11.2067 57.6358  15
   3   0  -3 9.88065 39.5594  11
   3   0   3 7.74708 28.6154  16
  -3   0  -3-9.03432 90.6085   7
   0   3  -3-15.2126 56.2240  13
  -3   0   3 24.2924 12.5352   5
  -3   0  -3 12.0756 39.5699  19
   3   0  -3 33.7789 42.3222  18
   3   0   3 19.2889 28.1277   6
   3   0   3 17.4805 33.4158  14
   3   0  -3-29.6613 83.9270   9
   3   0  -3 14.0753 23.9663   8
  -3   0  -3-13.6245 88.5673   4
   3   0   3-6.74947 53.1745   8
   3   0  -3 31.8489 44.0487  14
   3   0   3-12.0806 60.4990   1
   3   0  -3 29.6067 53.0840   1
  -3   0   3 12.8587 11.0475   2
   3   0   4 12.9094 77.5222  14
   3   0  -4-3.77742 31.5427  18
   0   3  -4 7.28490 61.4947  13
   3   0  -4 7.30644 9.57610  14
   0   3  -4 3.47215 29.8888   3
   3   0  -4-40.3796 119.939   9
   0  -3   4-3.15438 25.9865   6
  -3   0   4 0.49173 17.2821  19
  -3   0   4-0.17086 28.2331  17
   3   0   4 12.7657 44.8061  16
   0   3  -4-6.48716 38.3479  12
   3   0  -4 1.08106 40.6686   1
   3   0   4-5.77684 44.9117   6
   3   0   4-10.1687 9.64830   8
  -3   0   4 23.5701 62.6568   2
   3   0  -4-0.85614 34.7620  11
   3   0   4 10.4633 9.39383   1
  -3   0   4-21.2871 71.8729   5
   3   0  -5 59.8754 59.3994  18
   3   0  -5 82.5336 86.6651   1
   0  -3   5 103.448 61.5026  16
   3   0  -5 93.0932 66.0879  14
   0  -3   5 113.516 91.3424   6
   3   0  -5 49.3908 81.6797  11
   3   0   5 32.0772 29.6119  14
   0   3  -5 190.553 119.860   3
  -3   0   5 80.2933 72.3429   2
   0   3  -5 116.924 74.7559  12
  -3   0   5 123.570 100.442  17
   3   0   5 31.4342 39.5832   6
   0   3  -5 144.270 112.882  13
   3   0   5 42.3575 38.1911  16
   0  -3   5 41.5165 82.4877  17
   3   0   5 36.9846 102.753   8
   0   3  -6 38.7013 74.7986   3
   3   0   6-20.5971 85.5385  14
   0   3  -6-16.0096 57.2433  13
   3   0  -6 5.19916 15.4019  14
   3   0   6 33.4668 69.3151  16
  -3   0   6-43.3549 80.0337   2
   0   3  -6 12.8264 36.1073  12
   0  -3   6 6.45919 58.3387   6
   3   0   6 28.7499 102.048   6
   3   0  -6-12.5104 66.3553  11
   0  -3   6 32.3851 83.4612  17
  -3   0   6 2.10896 17.7296  17
   3   0  -6-0.52535 36.3051  18
   0   3  -6-2.30747 51.2771  18
   0  -3   6-2.79730 63.8259   2
   0  -3   6-20.6376 30.3113  16
   3   0  -6-18.6218 64.9689   1
   0   3  -7 2601.62 403.802  12
  -3   0   7 83.7261 104.137  16
   0  -3   7 1258.49 198.738   8
   0  -3   7 2823.29 534.168  17
   3   0  -7 860.862 190.017  14
   0  -3   7 2530.63 553.325   2
   3   0  -7 481.950 189.012  11
   3   0   7 1095.74 341.431  16
   0   3  -7 2795.50 465.241   3
   3   0  -7 828.871 247.489  18
  -3   0   7 1869.33 439.137  17
  -3   0   7 1748.86 383.372   2
   0  -3   7 3042.40 501.199   6
   3   0   7 1104.69 377.985   6
   0   3  -7 2363.84 396.394  18
   0   3  -7 2290.91 449.735  13
   3   0   7 81.9754 115.273  14
   3   0  -7 897.137 253.241   1
   0  -3   7 2125.81 487.694  16
   3   0  -8-79.2514 128.330   1
   0  -3   8 6.24088 13.8249   8
   0   3  -8-0.64163 74.7437  12
   0   3  -8 36.9674 67.0657  18
   0  -3   8 15.1724 99.5907  16
   3   0   8 20.4449 37.5101  16
   3   0  -8-24.4374 23.0001  11
   3   0   8 44.0768 91.7135   6
   3   0  -8 24.3170 59.6857  18
  -3   0   8-45.2328 134.685   2
   0   3  -8 122.995 136.167   3
   0  -3   8 10.7196 88.2223  17
   0  -3   8 18.2864 78.1409   6
   0   3  -8-34.6363 82.2756   1
   0  -3   8-22.1714 9.37676   2
  -3   0   8-34.0591 88.2331  17
   0  -3   9 133.018 125.190  17
  -3   0   9-28.7399 122.154   2
   3   0   9 29.5522 90.5789  16
   3   0  -9-47.1414 120.015  11
   0   3  -9 85.2608 106.807  18
   0  -3   9 110.833 59.5234   8
   0  -3   9 135.495 133.988   2
   0   3  -9 9.90884 62.6988   1
   3   0  -9-12.6729 89.0358  18
  -3   0   9 64.0964 81.5090  17
   0  -3   9 80.1391 75.7103  16
   3   0  -9-106.684 159.373   1
   0  -3   9 94.7354 31.6576   6
   0   3  -9 260.686 180.821  11
   3   0   9-39.8943 164.045   6
  -3   0   9-121.649 191.784  16
   3   0  10 10.1872 112.057  16
   0  -3  10-23.4922 43.0442  16
   3   0 -10-75.5123 213.004  11
   0   3 -10 111.180 98.4832  11
   0  -3  10 51.1041 111.998   2
  -3   0  10-72.7079 173.737  16
   0  -3  10 23.0227 61.0970   6
   0   3 -10 103.254 223.163   7
   0   3 -10 17.1681 39.3425  18
  -3   0  10-23.0431 123.464  17
   0  -3  10-30.1077 41.8290   8
   0   3 -10 195.910 255.959  15
   3   0  10-50.0558 248.328   6
   3   0 -10-39.0123 133.023  18
   0   3 -10 71.4071 200.884  20
   0  -3  10 28.5758 39.4912  17
  -3   0  10-65.4536 124.876   2
   0   3 -10 3.57038 40.7379   1
   0   3 -11 67.6761 117.262  15
   0   3 -11 207.950 285.554  20
   3   0  11-28.0469 7.09358  16
  -3   0  11-104.108 226.815  17
   3   0 -11-78.7924 165.259  18
   0  -3  11 29.4134 74.9937   6
   0   3 -11-16.3892 31.5802  18
  -3   0  11-25.4393 135.517  16
   0  -3  11-59.2817 104.221  17
   0   3 -11 43.0138 63.0085   1
   3   0 -11-112.134 226.760  11
   0  -3  11 4.40379 88.3655   2
  -3   0  11-28.1303 159.745   2
   0   3 -11 109.207 113.513  11
   0  -3  11-31.0573 76.7787  16
   0   3 -11 114.087 204.007  10
   0   3 -11-6.58042 162.778   7
   0  -3  11 11.0507 38.5230   8
   3   0  11-305.942 387.816   6
   0  -3  12-9.99109 124.567  16
   0  -3  12 103.975 71.3728   8
   3   0  12-4.75158 49.5169  16
   0   3 -12-12.2047 42.4569   1
   0   3 -12 3.37741 129.768  20
   0  -3  12 42.2793 130.597  17
  -3   0  12-82.9313 173.546   2
   0  -3  12-17.2847 88.7900   2
   0   3 -12 126.717 216.539  10
   0   3 -12-347.250 266.326  15
   0   3 -12 492.639 429.529   9
   0   3 -12 13.4768 84.7442  11
   0  -3  12-84.8553 90.6580   6
   0   3 -12-124.080 238.426   7
   0   3 -12-3.96245 14.4796  19
   0   3 -12-9.39193 10.8515  18
   3   0  13 108.877 157.532  16
   0  -3  13 500.634 255.551   2
   0   3 -13 469.631 341.224  20
   0   3 -13 894.944 419.776   9
   0  -3  13 559.875 303.206  16
   0   3 -13 502.402 206.484  11
  -3   0  13 256.322 74.3730   2
   0   3 -13 218.669 96.8678   1
   0  -3  13 150.834 134.566   6
   0   3 -13 293.366 139.439  18
   0  -3  13 511.743 142.978   8
   0  -3  13 605.030 209.537  17
   0   3 -13 315.973 88.0285  19
   0   3 -13 442.122 316.777  10
   0   3 -14-58.9720 159.382   9
   0  -3  14 151.668 271.237   2
   0   3 -14-151.813 99.5266  10
   0  -3  14 570.153 183.907   8
   0  -3  14 0.63960 207.539  16
   0  -3  14 399.606 501.089   6
   0   3 -14 16.9689 16.7202  18
   0   3 -14-44.7655 68.0264   1
   0   3 -14-32.2497 76.1298  11
   0   3 -14-301.083 290.250  20
   3   0  14 50.5901 192.029  16
   0  -3  14-68.5153 115.942  17
   0   3 -14-26.8595 35.0658  19
   0   3 -15 182.454 133.225  18
   3   0  15 256.379 283.618  16
   0   3 -15 302.568 270.861  10
   0   3 -15 188.096 156.638  11
   0  -3  15 240.004 195.678  16
   0   3 -15 15.8761 36.1691  19
   0  -3  15 229.638 150.379  17
   0  -3  15 342.034 259.015   2
   0  -3  15 352.411 139.341   8
   0   3 -15 76.4276 60.8858   1
   0   3 -15 305.164 230.475   9
   0   3 -15 190.889 256.236  20
   0  -3  15 216.852 202.841   6
   0  -3  16 59.1255 93.2084   8
   0  -3  16 8.08207 145.794  16
   0  -3  16-46.1684 112.720  17
   0  -3  16-4.07609 15.1622   5
   0  -3  16 46.0345 78.5663   2
   0   3 -16-103.460 145.435  11
   0   3 -16-179.659 270.352   9
   0  -3  16-35.7068 70.8911   6
   0   3 -16 40.9118 87.9326   1
   0   3 -16 41.1645 56.4179  19
   0   3 -16-28.7948 82.3146  18
   0   3 -16 29.5317 57.9127  20
   0   3 -16-36.5286 144.493  10
   0   3 -17 135.105 106.317  18
   0   3 -17 171.745 195.497   9
   0  -3  17 332.990 168.118   8
   0   3 -17 62.0277 79.0590  19
   0  -3  17 113.126 64.5749   5
   0   3 -17-42.2686 150.302  10
   0  -3  17 395.480 286.967   2
   0   3 -17-148.306 355.365  20
   0  -3  17-87.2603 262.724   6
   0   3 -17 100.518 104.424   1
   0   3 -17-240.130 217.853  11
   0  -3  17 180.372 140.516  17
   0  -3  17 215.751 204.769  16
   0   3 -18 167.208 97.1183   1
   0  -3  18-423.563 574.958   6
   0   3 -18 66.7971 67.2449  19
   0  -3  18 86.2748 123.457   8
   0  -3  18 113.851 68.3170   5
   0  -3  18 242.896 221.481   2
   0  -3  18 13.0829 256.532  16
   0   3 -18 171.458 166.279  11
   0   3 -18 156.934 192.457   9
   0   3 -18-713.360 470.257  20
   0   3 -18 1.07833 148.198  18
   0   3 -18 226.549 194.612  10
   0  -3  18 44.5066 90.7024  17
   0  -3  19 694.561 364.245  16
   0  -3  19 1007.25 436.673   2
   0   3 -19 217.154 192.262  11
   0   3 -19 99.7978 125.773   9
   0   3 -19-533.569 637.808  20
   0  -3  19 529.445 206.928   8
   0  -3  19 496.198 168.315  17
   0   3 -19-125.644 289.872  10
   0   3 -19-159.078 285.615  18
   0   3 -20-182.966 374.996  10
   0  -3  20 61.5447 49.8258   8
   0  -3  20 136.729 215.577   2
   0  -3  20 13.4279 116.437  16
   0   3 -20-161.466 167.109  11
   0   3 -20-19.1374 210.684   9
   0   3 -21-617.296 604.431   9
   0  -3  21 373.571 293.411  16
   0   3 -21-197.882 448.716  10
   0  -3  21 936.873 438.641   2
   3  -1   0 75.3325 34.5227  18
   3   1   0 380.574 156.445   8
  -3   1   0 689.722 177.989   4
  -3  -1   0 188.013 117.172  19
   3   1   0 360.092 169.553  14
  -3   1   0 748.431 202.320  19
   3  -1   0 640.491 180.463   8
  -3   1   0 430.960 143.335  12
  -3   1   0 64.1650 24.7235  17
   3   1   0 574.053 221.843   1
   3  -1   0 765.298 197.049   6
   3  -1   0 757.828 196.391  14
  -3   1   0 716.222 179.797   5
   3   1   0 500.999 161.870  18
  -3  -1   0 109.943 56.1960   4
   3  -1   0 673.781 190.924   1
  -3  -1   0 326.903 183.918  17
   3   1  -1 442.697 193.174   1
   3  -1   1 429.059 148.767   8
  -3  -1   1 444.855 178.845   2
   3   1  -1 376.841 120.619  13
   3   1  -1 347.295 134.844   8
   3  -1  -1 21.9275 36.7696  18
   3  -1  -1 391.158 141.288  14
  -3   1  -1 472.771 162.972  19
   3  -1   1 596.596 168.341   6
   3   1  -1 269.224 137.517  14
  -3   1  -1 424.654 147.959   4
  -3   1  -1 268.399 104.878   3
   3  -1  -1 326.381 128.134   8
   3   1   1 174.217 134.620  14
   3   1   1 234.275 159.317   1
  -3   1  -1 11.7056 31.7449  17
   3  -1   1 470.087 146.498   1
  -3  -1   1 214.947 112.598   4
  -3   1  -1 456.711 146.842   5
   3   1  -1 436.382 163.930  18
  -3   1  -1 464.309 145.657  12
  -3  -1   1 359.713 164.873  17
  -3  -1   1 244.288 133.505  19
   3  -1   1 461.227 158.411  14
   3  -1  -1 278.541 122.798   1
  -3  -1   1 298.163 149.481   5
  -3   1   1 439.767 152.058  19
   3  -1   2 141.189 88.6721  16
   3  -1   2 255.206 113.674   1
   3   1   2 32.0835 56.0127  14
   3   1  -2 100.833 80.6445  14
  -3   1  -2 209.938 94.8364   3
  -3   1  -2 182.438 92.3629   5
   3   1  -2 201.298 134.866   1
  -3   1   2 10.1221 60.1500  17
  -3   1  -2 249.715 127.410  19
   3   1  -2 226.523 100.584  13
   3  -1  -2 42.7384 18.4928   1
   3  -1   2 226.546 116.260  14
  -3  -1   2 163.390 94.5380   4
  -3  -1   2 191.615 139.563  17
   3  -1   2 269.906 127.199   6
  -3  -1   2 178.667 130.907   5
   3   1  -2 156.921 95.2126  18
  -3   1  -2 172.545 99.4839  12
   3  -1   2 184.245 94.3768   8
  -3   1  -2 185.389 106.051   4
  -3  -1   2 154.196 102.651  19
   3  -1  -2 18.9355 52.5163   8
   3   1  -2 177.466 78.3724   8
   3  -1  -2 117.544 74.4285  14
   3   1   2 6.47993 57.5090   1
  -3  -1   2 235.681 134.308   2
  -3   1   2 136.917 83.6412  19
  -3  -1   3 64.6801 88.4102  17
   3  -1   3 129.035 90.3948   8
   3   1  -3 84.1519 52.4247   8
   3  -1   3 106.126 74.0978   1
   3   1  -3 78.9211 88.1666   1
  -3   1  -3 92.0993 83.4298   5
  -3  -1   3 78.6096 45.1338  16
   3   1   3-22.3242 118.864  14
   3  -1   3 100.071 76.8211   6
  -3  -1   3 50.1646 55.5947   4
   3  -1   3 75.4348 52.0056  16
   3   1  -3 133.661 86.6857  20
  -3  -1   3 76.1457 85.2370   5
   3   1  -3 56.8842 72.4570  14
   1   3  -3 8.82626 34.6664  13
   3  -1   3 87.5563 79.7440  14
   3   1  -3 80.9048 56.3936  18
  -3   1  -3 56.3445 79.5771  19
  -1   3  -3 37.8014 50.8342   3
  -3  -1   3 105.130 72.9846   2
  -3  -1   3 79.4835 62.3274  19
  -3   1  -3 72.8615 53.4471   4
   3  -1  -3 17.7678 32.9679  14
  -1   3  -3 33.0104 31.4605  12
   3   1  -4 231.066 125.438  20
   1   3  -4 249.922 128.596   3
  -3   1  -4 269.743 142.061  19
  -1   3  -4 147.172 107.370  13
   3  -1   4 384.155 164.813   6
   3   1  -4 359.141 168.817  11
   3  -1   4 360.567 137.917   1
  -3   1  -4 217.375 121.410   4
  -1   3  -4 271.055 127.556  12
  -3  -1   4 326.192 121.722  19
  -3  -1   4 294.091 150.496   2
   3  -1   4 377.292 149.804   8
   3  -1   4 345.436 158.957  16
  -3  -1   4 315.281 146.036   5
   3   1  -4 234.153 114.156  14
  -3  -1   4 316.739 115.357   4
   3   1  -4 291.692 136.872  18
   1  -3   4 202.073 126.477   6
   3   1  -4 344.806 143.101  10
  -3  -1   4 239.504 148.800  17
  -3  -1   4 288.425 111.049  16
  -1   3  -4 337.042 148.885   3
   3   1  -4 232.095 123.660   1
   3  -1   4 380.281 159.011  14
  -3   1  -4 230.605 127.809   5
   1   3  -4 275.266 151.475  13
  -3   1  -4 418.445 189.567  20
   3   1  -4 271.980 89.7919   8
  -3  -1   5 385.697 190.044  17
   3   1  -5 432.976 184.196  11
   3   1  -5 81.7614 27.1105   8
  -3   1  -5 449.287 227.001  15
   1   3  -5 498.893 182.885   3
  -1   3  -5 370.170 178.493  13
   1  -3   5 426.095 178.991   6
  -1  -3   5 197.229 134.148  16
   3   1  -5 534.629 247.648   9
   3   1  -5 394.556 153.455  18
   3   1  -5 407.223 175.749   1
   3  -1   5 396.327 167.791  16
  -1   3  -5 467.683 177.794  12
  -1  -3   5 275.487 187.469  17
  -3   1  -5 306.154 152.926  19
   1   3  -5 369.208 127.798  12
  -3  -1   5 319.172 131.871  16
  -3   1  -5 606.124 299.425   7
   3   1  -5 362.993 162.819  10
  -3   1  -5 294.567 158.701  20
  -3  -1   5 496.189 170.770   5
   1   3  -5 228.567 114.321  18
  -1  -3   5 347.189 140.962   6
  -3  -1   5 487.588 202.713   2
  -3   1  -5 250.038 134.197   4
   3  -1   5 594.396 233.546   6
  -3   1  -5 339.180 147.236  10
   3   1  -5 190.943 105.044  20
  -3   1  -5 357.246 128.157   9
   3  -1   5 172.025 98.3153   1
   1   3  -5 445.541 196.395  13
   3   1  -5 342.562 127.431  14
   1  -3   5 256.906 170.987  16
   3  -1   5 468.473 187.838   8
  -3  -1   5 412.729 122.976   4
   3  -1   5 481.994 187.136  14
  -3  -1   5 386.344 120.673  19
   1  -3   5 151.573 71.0214   8
  -1   3  -5 541.978 202.688   3
   1  -3   6 881.654 316.435  16
  -1  -3   6 914.581 328.750  17
  -1   3  -6 1154.53 282.410  12
   3  -1   6 1106.42 308.532  14
  -1   3  -6 833.443 221.810  18
   3   1  -6 994.188 262.127   1
  -1  -3   6 1147.30 274.753   6
  -3  -1   6 1156.06 255.001   5
  -1  -3   6 841.453 292.274  16
  -3   1  -6 676.670 265.822  20
  -1   3  -6 886.622 280.439  13
   1  -3   6 1303.36 336.401   6
   1   3  -6 980.170 269.998  18
   3   1  -6 1148.24 314.133  11
   3   1  -6 1058.39 303.278   9
  -3   1  -6 990.162 406.025   7
  -3   1  -6 721.707 311.582  15
   3   1  -6 269.620 143.162  20
  -1   3  -6 1243.91 311.986   3
   1   3  -6-24.2841 98.8787   1
  -3   1  -6 587.607 207.934  10
   3  -1   6 1066.95 314.524  16
   3   1  -6 976.142 255.857  18
   1  -3   6 755.733 178.181   8
   3  -1   6 1156.22 342.657   6
  -1   3  -6 989.301 170.675   4
  -3   1  -6 543.180 216.968  19
   1   3  -6 1120.68 228.287  12
   3  -1   6 1014.02 289.900   8
   3   1  -6 622.471 210.606  10
  -3  -1   6 1285.78 357.498  17
  -3  -1   6 610.472 156.632  19
  -3  -1   6 923.314 171.191   4
  -3  -1   6 1147.70 303.008   2
  -3   1  -6 184.943 63.5793   4
  -3  -1   6 817.025 234.362  16
   1  -3   6 598.156 142.375  14
   1   3  -6 1266.23 286.521   3
   3   1  -6 923.526 193.806  14
   1  -3   6 900.204 288.473  17
   1   3  -6 1141.32 318.905  13
   3  -1   6 1061.30 169.667   2
  -1  -3   6 893.167 328.463   2
  -3   1  -6 463.478 155.442   9
   3   1  -7 297.722 102.272  14
  -3   1  -7 137.115 93.3897  19
  -1   3  -7 419.280 123.562   4
   1  -3   7 279.626 185.632   2
  -1   3  -7 251.911 86.0918  19
  -3   1  -7 181.237 179.223  15
  -1  -3   7 438.360 215.838  17
  -1  -3   7 365.644 197.987  16
   1   3  -7 374.439 158.830   3
   1   3  -7 345.081 129.542  12
  -1   3  -7 338.905 140.708  12
   3   1  -7 4.22503 131.226  20
  -3   1  -7 180.339 105.027  20
   1   3  -7 446.544 209.999  13
  -1   3  -7 307.153 124.176  18
  -1  -3   7 342.153 216.888   2
   3   1  -7 301.052 150.080  18
   1  -3   7 297.417 118.266   8
  -1   3  -7 340.203 166.144  13
   3   1  -7 263.117 127.663   9
  -3   1  -7 38.9809 63.4386   9
   3  -1   7 302.259 100.195   2
  -1  -3   7 373.733 153.677   6
  -3  -1   7 419.308 206.514  17
   3   1  -7 300.402 148.030   1
  -1   3  -7 352.330 162.399   3
  -3  -1   7 434.923 207.831   2
   3  -1   7 325.810 185.377  14
  -3  -1   7 269.944 145.402  16
   1  -3   7 355.770 114.557  14
   3  -1   7 287.872 179.253   8
   3  -1   7 373.673 213.912   6
   3  -1   7 337.144 193.760  16
   1   3  -7 371.384 170.504  18
   1   3  -7 7.71909 41.0243   1
   1  -3   7 475.353 202.677   6
  -3   1  -7 188.925 72.4923  10
   3   1  -7 276.272 149.653  11
   1  -3   7 257.553 161.875  16
   3   1  -7 121.628 80.4253  10
  -3   1  -7 94.7343 69.1081   7
   1  -3   7 454.445 190.805  17
  -3  -1   7 337.062 144.959   5
  -1   3  -8 1198.32 360.057  13
  -1  -3   8 1538.11 467.887   2
   3  -1   8 824.950 281.391   8
   3   1  -8 1092.97 298.042  18
   1  -3   8 1741.08 425.671   6
  -1   3  -8 1209.07 196.391  19
  -3   1  -8 194.645 67.9844   7
   3   1  -8 451.480 229.961  10
   1   3  -8 1466.45 296.141  12
   1   3  -8 1359.17 316.430  18
   1  -3   8 1873.49 396.779  17
   1   3  -8 452.298 173.032   1
   1  -3   8 1618.92 243.570  14
   1   3  -8 1600.69 362.614   3
  -3   1  -8 174.391 131.682  15
   1  -3   8 1513.84 429.869   2
  -1   3  -8 1451.99 371.812   3
  -1  -3   8 1727.88 442.837  17
  -3   1  -8 407.258 159.476  10
   3   1  -8 867.942 247.265   1
  -3  -1   8 1528.42 423.326  17
   3  -1   8 1253.74 232.401   2
  -3   1  -8-18.9782 112.759  19
   1  -3   8 1275.44 399.813  16
  -3  -1   8 1029.10 306.494  16
   1  -3   8 1374.68 249.085   8
   3   1  -8 554.207 256.236   9
  -1  -3   8 1392.49 407.549  16
   3  -1   8 1305.05 401.045   6
  -1  -3   8 1349.95 338.789   6
  -1   3  -8 1538.57 365.536  12
   3   1  -8 1119.40 202.710  14
  -3  -1   8 1444.65 373.652   2
   3   1  -8 917.861 274.801  11
  -3   1  -8 402.721 221.948  20
   3  -1   8 1031.25 332.115  16
  -3  -1   8 1201.95 266.466   5
  -1   3  -8 1359.46 249.334   4
  -1   3  -8 1421.63 281.978  18
  -3   1  -8 438.947 169.744   9
   3  -1   8 894.090 325.973  14
  -3   1  -9-115.671 183.682   9
   1   3  -9 539.182 251.213  11
  -1   3  -9 75.3224 29.7114   4
   3   1  -9 145.822 134.437   9
  -1   3  -9 241.908 117.477  18
   1  -3   9 369.561 162.925  17
   1  -3   9 302.800 121.719   8
  -1   3  -9 374.345 179.160  11
  -1  -3   9 217.356 143.853   6
   3  -1   9 272.752 197.607   6
  -1  -3   9 371.135 239.929   2
   3  -1   9 91.8369 36.6102  14
   1   3  -9 609.337 392.898   7
   3   1  -9 138.169 129.210  11
  -1   3  -9 322.060 105.856  19
  -3  -1   9 148.677 135.319  16
   1  -3   9 366.326 185.427   6
  -3  -1   9 321.595 193.884   2
   1  -3   9 323.716 198.028  16
  -1  -3   9 391.255 221.036  17
  -3  -1   9 347.644 224.150  17
   1  -3   9 348.510 129.962  14
   1   3  -9 115.568 90.4648   1
  -3  -1   9 178.297 64.2244   5
   3  -1   9 180.115 105.687   8
   3  -1   9 226.847 88.7106   2
   1   3  -9 223.452 131.805  18
   3  -1   9 199.578 161.690  16
   1  -3   9 387.704 216.620   2
  -3   1  -9 42.1694 64.3303  10
   3   1  -9 158.553 111.609  18
  -3   1  -9 36.8271 56.2556  20
   3   1  -9 243.210 98.7274  14
   1   3  -9 390.051 294.176  15
  -1  -3   9 302.897 227.343  16
   3   1  -9 215.459 140.916   1
   3   1  -9 33.4171 68.0451  10
   1  -3  10 160.578 127.272   6
  -1  -3  10 96.8705 132.778  17
  -1  -3  10 81.9895 126.632   6
   3  -1  10 140.044 179.528  16
   1   3 -10 378.512 326.070  20
  -1   3 -10 106.482 67.5305  18
   1   3 -10 187.277 142.284  11
  -1   3 -10 149.086 267.613  15
   1   3 -10 114.976 90.9745   1
   3   1 -10 26.2933 84.2470  11
   3   1 -10 30.4774 28.0186  14
   1  -3  10 145.696 131.955  17
  -1   3 -10 519.295 372.823  20
   1   3 -10 28.4359 145.932  15
   1  -3  10 92.5712 58.2976   8
   3   1 -10 31.7304 48.5652   1
   1   3 -10 147.638 193.466   7
   3  -1  10 89.2715 101.716   6
  -3   1 -10-238.263 195.756  20
   3   1 -10 44.9109 96.8717   9
   1   3 -10 71.3211 71.8329  18
   1  -3  10 116.554 80.5836  14
   3   1 -10 22.1889 54.6173  18
  -1  -3  10 117.491 49.0642   8
   3  -1  10-84.5215 231.059  14
  -1   3 -10 227.719 336.874   7
  -3  -1  10 153.661 143.040   2
   1  -3  10 115.846 125.393  16
   3   1 -10-38.1337 109.364  10
  -3  -1  10 59.2028 92.2802  16
  -1   3 -10 276.131 125.533  11
  -1   3 -10 143.261 63.7192  19
   3  -1  10 4.96429 77.3654   8
   1  -3  10 152.391 156.156   2
   3  -1  10 39.5734 62.7178   2
  -3   1 -10-41.2162 135.319  10
  -1  -3  10 152.230 136.303   2
  -1  -3  10 124.739 160.278  16
  -3  -1  10 111.606 127.673  17
  -1  -3  11 34.7810 33.6888   8
   1  -3  11 14.8716 30.3762  17
  -1   3 -11 117.603 191.977  20
   3  -1  11-30.1439 124.521  16
  -1  -3  11 55.5634 56.5682   5
   1   3 -11 6.10238 22.0752   1
   1  -3  11 35.6601 86.4886   2
  -1   3 -11 52.2382 50.3098  18
  -1  -3  11 8.46792 87.5356   6
   3   1 -11 6.24414 17.2046  14
   3   1 -11-13.0357 44.4903  18
  -1   3 -11-36.1233 61.4680  15
   1   3 -11-1.07851 92.6001  11
  -1  -3  11-0.04125 57.6432  16
   1  -3  11 93.8620 168.949  16
   1   3 -11 95.9679 193.713  20
  -3   1 -11-75.6185 224.295  10
  -1   3 -11-4.59850 31.2887  19
   3   1 -11-200.392 285.825  10
   1  -3  11-10.7572 52.5081  14
  -3  -1  11 78.5922 115.289   2
   1   3 -11-385.041 270.602   7
  -3   1 -11-118.638 289.386  20
  -1  -3  11 5.46559 48.2090  17
   3  -1  11 45.7839 118.086   6
   3  -1  11-43.1747 156.637   8
  -1  -3  11 83.7718 87.2818   2
   3   1 -11 3.52934 36.0315   1
   3   1 -11 0.67703 59.3192  11
  -3  -1  11 47.3838 109.555  17
  -1   3 -11 75.9975 137.730   7
   3   1 -11-5.05787 83.2455   9
   1  -3  11 73.1448 58.0777   8
   3  -1  11 12.3312 79.3731   2
  -1   3 -11 4.13112 18.9452  11
   1   3 -11 11.9376 40.1931  18
   1   3 -11 150.968 229.261  10
  -1   3 -11 225.182 253.517  10
   1  -3  11-4.40964 78.2551   6
  -3  -1  11 20.2822 81.6093  16
   1   3 -11-402.861 262.971  15
   1  -3  12-21.0886 82.8192  17
   3   1 -12-5.56517 69.1294  18
  -1  -3  12 14.8097 57.1155   2
   1   3 -12 129.382 176.061  10
   3  -1  12-109.261 206.811   8
  -1  -3  12 73.3562 48.2418   8
   1   3 -12-14.1463 128.650  20
   1  -3  12 96.5817 158.794   2
   1  -3  12 71.9149 47.1769   8
   1  -3  12 109.069 134.060  16
   1   3 -12 83.8212 107.421   1
  -3  -1  12 33.4219 75.4236   2
   3   1 -12-206.433 333.169  10
   1  -3  12-160.730 170.685  14
  -1  -3  12 47.2744 54.2860   5
   1  -3  12 125.775 202.820   6
   3  -1  12 97.2028 105.294   6
  -1   3 -12 55.5711 169.504  20
  -3   1 -12-172.261 319.843  10
  -1   3 -12 38.1991 95.7354   7
   3   1 -12-1.10308 25.3967  14
  -1  -3  12 134.628 193.167  17
  -1   3 -12 76.2505 74.6476  19
  -1  -3  12 151.551 203.897  16
  -1   3 -12 619.047 403.912   9
   3   1 -12-144.483 245.116   9
   1   3 -12 53.7051 80.3342  18
   3   1 -12 32.1163 40.3405   1
   3  -1  12-0.45163 82.0978   2
  -1   3 -12 106.513 114.392  11
   3   1 -12 13.4906 62.6361  11
  -1  -3  12-40.0754 96.0726   6
  -1   3 -12 16.9722 89.9296  15
  -1   3 -12 73.5286 69.8305  18
   1   3 -12 566.648 409.131   9
  -3  -1  12 7.68736 79.1181  17
   3  -1  12 94.8948 157.188  16
  -1   3 -12 62.0200 182.886  10
  -3  -1  12 68.4987 128.359  16
   1   3 -12 266.027 189.438  11
   3   1 -13 65.2946 174.098  11
  -1  -3  13-14.6700 58.2766  16
   3   1 -13-10.7424 29.8644  18
   1   3 -13 62.0350 146.949  10
   1   3 -13-14.1623 36.7822  18
   3  -1  13-81.8406 148.644   2
  -1  -3  13-17.0804 16.6804   8
  -1   3 -13-51.9648 76.6693  19
   1  -3  13-115.418 104.667   8
  -3  -1  13 25.3200 127.818   2
   1  -3  13-83.8581 97.2360   6
  -1   3 -13 9.48724 6.52798  18
   3  -1  13-64.8404 194.579   6
   3  -1  13-330.781 318.377   8
  -1  -3  13 2.05361 87.5614  17
  -1   3 -13 73.8061 184.871   9
   3  -1  13 18.8239 124.905  16
   1   3 -13 20.4232 83.4787  11
  -1  -3  13-19.4272 196.648   6
  -3  -1  13 70.4999 102.853  17
   1  -3  13-97.0085 136.303  17
   1   3 -13 23.7179 159.956  20
  -1   3 -13-46.4957 45.7775  11
  -1  -3  13-53.7727 37.7553   2
  -1  -3  13-27.7431 39.0447   5
   1  -3  13-22.6387 168.621  16
  -3  -1  13 38.4855 52.5084  16
   1   3 -13 338.248 323.572   9
   1   3 -13-22.7866 22.3823   1
  -1   3 -13 109.551 206.246  10
  -1   3 -13-51.4386 106.059  20
   3   1 -13-440.628 431.505   9
   3   1 -13-46.7934 93.4365   1
   1  -3  13 51.7340 82.0342   2
   3  -1  14 258.159 255.339  16
   3  -1  14 202.716 83.6367   2
   1   3 -14 379.505 232.219   9
   1   3 -14 334.562 174.249  11
  -1   3 -14 67.3994 27.0839  18
  -1   3 -14 191.323 298.122  10
   3  -1  14 11.2856 325.910   6
  -3  -1  14 220.479 173.194   2
   3   1 -14 94.7753 97.4410   1
  -1  -3  14 188.726 313.415   6
   3   1 -14-55.9882 150.988  18
  -1  -3  14 443.775 132.290   8
  -3  -1  14 220.837 198.978  17
   1   3 -14 190.194 150.995  18
   1  -3  14 570.500 283.574   2
  -1   3 -14 103.045 154.162   9
   1  -3  14 299.720 245.713   6
   1   3 -14 121.883 301.548  20
   3   1 -14 40.3128 76.5446  11
   1  -3  14 480.020 181.847   8
  -1   3 -14 202.009 152.079  11
   1  -3  14 466.936 237.436  17
  -1  -3  14 397.560 277.118   2
  -1   3 -14 60.8549 36.1945   1
  -1  -3  14 305.335 253.449  16
   3  -1  14-368.944 404.250   8
  -1  -3  14 305.046 121.138   5
  -1   3 -14-43.4802 74.9536  19
  -3  -1  14 203.753 224.826  16
   1  -3  14 221.522 245.681  16
   1   3 -14 83.3855 70.1600   1
  -1  -3  14 337.729 237.037  17
   1   3 -14 179.206 225.048  10
  -1   3 -14 0.69847 171.137  20
  -1   3 -15 184.519 130.379  11
   1   3 -15 103.993 111.376  18
   3  -1  15 226.648 139.457   2
   3   1 -15-67.7910 182.843  18
  -1   3 -15 184.497 354.755  20
  -1  -3  15 399.013 205.390  17
   3  -1  15-384.324 379.912   6
   1  -3  15 482.776 249.791   2
   1   3 -15 165.243 135.819  11
  -1  -3  15 261.764 232.845  16
  -3  -1  15 583.346 332.622   2
   1  -3  15 431.789 294.513  16
  -1   3 -15 120.156 93.8842  18
  -1  -3  15 262.886 209.216   2
  -1  -3  15-2.92647 100.691   6
  -1   3 -15 206.769 260.045  10
  -1   3 -15 119.310 65.5926   1
  -1   3 -15 302.424 294.096   9
   1  -3  15 385.124 204.916  17
   3   1 -15-17.5259 139.228  11
   1   3 -15 506.979 412.178  10
   3  -1  15-369.831 403.518   8
   3  -1  15 245.250 229.084  16
   1  -3  15-78.9215 164.275   6
   1   3 -15 42.2955 123.073  20
   1   3 -15 166.702 248.891   9
  -3  -1  15 348.368 240.485  17
   1   3 -15 112.599 88.4664   1
   1  -3  15 365.687 149.105   8
  -1   3 -15 137.406 107.098  19
   3   1 -15 123.099 150.661   1
  -1  -3  15 290.431 112.726   5
  -3  -1  15 258.225 222.867  16
  -1  -3  15 428.116 137.665   8
  -1  -3  16 42.5055 40.7337   8
  -3  -1  16-66.5273 71.9206   2
   1   3 -16-53.9669 271.444  10
  -1   3 -16-12.4218 166.180   9
   1  -3  16 46.3258 170.543   2
  -1   3 -16-0.19321 68.8142  18
   1  -3  16-219.521 228.835   6
  -1  -3  16 68.5298 163.259   2
  -1   3 -16 100.365 109.915  11
  -1  -3  16-71.6837 48.4065  16
   1  -3  16 127.950 128.414   8
   1   3 -16 165.709 267.185  20
  -1  -3  16-235.352 404.918   6
   3   1 -16 24.2790 115.288   1
   3  -1  16-21.9116 32.2351  16
  -1  -3  16 31.7142 66.3470  17
   1  -3  16 20.3463 126.723  16
  -1  -3  16-68.6204 74.7796   5
   3  -1  16 90.2661 130.543   2
  -3  -1  16 49.5147 118.835  16
   1   3 -16-22.8243 123.529   9
  -1   3 -16 147.687 99.0348  19
   1   3 -16 21.6038 89.5893  18
   3   1 -16-353.678 235.610  11
  -1   3 -16 115.059 169.352  10
   1  -3  16 3.62303 73.0940  17
  -1   3 -16 73.4338 196.309  20
   1   3 -16-79.7248 99.1179  11
  -1   3 -16 47.0048 58.4374   1
   1   3 -16-13.5928 17.6669   1
  -3  -1  16-364.806 259.308  17
   3  -1  16-584.249 472.273   8
   1  -3  17 95.2908 82.6180  17
   1  -3  17 422.149 315.090   2
  -3  -1  17 62.5453 164.820  16
   1   3 -17-13.9256 206.445  20
  -1  -3  17 246.688 105.955   5
   1  -3  17 175.564 150.434  16
   3  -1  17-537.698 502.442   8
  -1   3 -17 136.967 185.029   9
   1   3 -17 110.547 159.780  11
   1   3 -17 125.351 85.2926  18
   1  -3  17 178.856 182.305   6
  -1  -3  17 212.653 206.990  16
   1   3 -17 171.344 287.852   9
  -1  -3  17 270.556 140.380   8
   3  -1  17 239.354 311.552  16
  -1   3 -17 53.6886 76.4643  11
  -1   3 -17 283.849 309.940  20
  -1   3 -17 69.6669 72.5715   1
  -1  -3  17 410.404 302.480   2
  -1   3 -17 130.841 199.531  10
   1   3 -17-58.8700 243.269  10
   1   3 -17 72.2695 100.736   1
   1  -3  17 186.636 170.593   8
   1   3 -17 27.7134 30.5761  19
  -1   3 -17 118.045 108.347  19
   3  -1  17 133.832 107.831   2
  -3  -1  17 244.888 227.023   2
  -1  -3  17 258.685 177.117  17
   3  -1  18 738.900 323.437   2
  -1  -3  18 772.184 380.006   2
   1  -3  18 106.925 150.812   6
   1  -3  18 947.461 413.835   2
   1   3 -18 114.800 249.998  10
   1   3 -18 86.6483 61.0066  18
   1  -3  18 332.137 12.7161  17
  -1  -3  18 619.469 190.321   8
  -1   3 -18-15.5665 145.883   9
   1   3 -18-15.1823 143.316  11
   3  -1  18 769.747 472.958  16
  -1  -3  18 764.149 195.908   5
  -1  -3  18 351.049 151.254  16
   1   3 -18-126.740 249.643   9
  -3  -1  18 480.692 366.383  16
  -1   3 -18-25.8676 259.726  20
   1  -3  18 638.409 259.026   8
  -1   3 -18 123.878 128.438  11
   1  -3  18 309.094 294.314  16
   1   3 -18-508.151 666.981  20
  -1   3 -18 175.378 103.774   1
  -1   3 -18-26.8575 239.966  10
  -1   3 -18 99.7820 89.7304  19
  -1  -3  18 874.684 342.347  17
   3  -1  18-377.917 500.853   8
   1   3 -18 179.293 123.424   1
  -3  -1  18 645.431 347.161   2
   3  -1  19-332.280 543.036   8
   1   3 -19 187.261 148.537   1
  -1   3 -19-538.304 419.921  20
   3  -1  19 57.0943 40.8509  16
  -3  -1  19 163.606 201.755  16
  -1  -3  19 140.184 203.198  17
  -3  -1  19 175.138 245.377   2
   1  -3  19 167.024 223.580   8
  -1   3 -19-143.348 187.926  11
   3  -1  19 93.0223 165.519   2
   1   3 -19 22.4870 167.241  10
   1  -3  19 286.422 310.180   2
  -1   3 -19 26.3947 92.8407  10
  -1  -3  19 163.290 127.672  16
  -1   3 -19 49.2739 191.151   9
   1   3 -19-6.91202 128.017  18
   1   3 -19 223.068 211.346   9
   1  -3  19 209.074 385.139  16
  -1  -3  19 172.018 122.912   5
   1   3 -19-0.99713 61.9798  11
  -1  -3  19 133.718 111.336   8
   1  -3  19-892.134 506.617   6
  -1  -3  19 393.450 292.260   2
   1  -3  20 792.223 346.585   8
   1   3 -20 250.612 228.633  10
  -1  -3  20 885.206 423.973  16
   1  -3  20 814.833 468.350  16
   3  -1  20 1021.75 652.745  16
   1  -3  20-689.640 815.107   6
   1   3 -20 344.674 231.957  11
  -1  -3  20 863.597 320.610  17
   1   3 -20 172.851 124.015   9
  -1  -3  20 1297.70 565.731   2
   1  -3  20 1140.10 434.768   2
  -1   3 -20-202.577 418.263  10
  -1   3 -20-178.364 387.503   9
   1  -3  21 95.5212 179.124   8
  -1  -3  21-234.501 347.160  16
   1   3 -21-707.713 642.253   9
   1  -3  21 135.784 206.635   2
  -1   3 -21-696.192 707.952   9
   1  -3  21-17.9925 235.017  16
  -1  -3  21 137.803 213.641   2
  -1   3 -21-247.875 481.154  10
   3  -1  21 111.425 369.271  16
   1   3 -21-182.882 287.264  11
  -3   2   0 1.44680 23.5776  19
   3  -2   0-4.49231 59.7735   8
   3  -2   0-6.45393 50.0971  14
   3   2   0-7.11448 89.4524   1
   3  -2   1-9.72581 65.3854   6
  -3   2  -1 47.6236 49.8280  19
   3  -2   1 34.6209 50.3101   8
   3   2  -1-7.29704 23.0100   1
   3  -2   1 12.7299 15.9534  14
  -3   2  -1 35.0035 63.6265  12
   3   2  -2 655.410 211.337  13
   3  -2   2 458.992 135.155   1
   3  -2   2 760.915 209.633   8
   3  -2   2 928.804 264.574   6
   3   2  -2 595.998 210.877  18
   3   2  -2 530.187 231.710   1
  -3   2  -2 747.962 198.651  19
  -3  -2   2 261.670 186.379  17
  -3   2  -2 825.021 219.781  12
  -3   2  -2 504.371 184.378   3
   3  -2   2 709.748 200.632  14
   3   2  -3 95.0635 45.3327   8
   3  -2   3 93.4900 86.5676  16
   3   2  -3-32.3807 110.960  14
   2  -3   3 14.4168 81.3770   8
  -2   3  -3 216.223 137.646   3
  -2   3  -3 236.223 130.713  12
   3   2  -3 159.929 126.906   1
  -3  -2   3 178.495 146.638   2
   3   2  -3 279.796 133.263  13
  -3  -2   3 251.028 205.438  17
   3  -2   3 218.229 91.3662   1
  -3   2  -3-110.210 86.3563  13
   2  -3   3 76.7309 50.9958   6
   3   2  -3 211.051 130.087  18
  -3   2  -3 291.300 127.716   4
  -3   2  -3 225.679 131.568   3
  -3   2  -3 210.785 90.9299   5
  -3   2  -3 306.930 132.364  12
   3  -2   3 369.682 165.859   6
   3  -2   3 245.020 119.796   8
  -3  -2   3 46.8164 34.7372  19
   2   3  -3 136.434 91.5960  13
   3  -2   3 268.353 122.722  14
  -3   2  -3 257.645 126.400  19
   3  -2   4 48.7346 69.1321  16
   3   2  -4-23.0418 18.8467  14
  -2   3  -4 21.3224 46.8476  19
   3  -2   4 72.3701 63.7276  14
  -3   2  -4 79.2898 74.2335   3
   3   2  -4 85.9955 55.7026   3
  -2   3  -4 71.7413 64.7092  12
  -3  -2   4 50.2626 73.1105  19
   3  -2   4 78.4495 75.6701   6
   3   2  -4 105.478 109.241  13
  -3   2  -4 96.3424 94.0695  12
   3  -2   4 71.9753 52.0865   1
  -3  -2   4 106.104 105.796   2
   2  -3   4 21.4783 20.7433   8
  -3   2  -4 94.5896 75.0780  19
  -2   3  -4 49.1038 49.2556   3
   2   3  -4 48.9590 69.2041  13
  -3   2  -4 101.168 80.1273   4
   2   3  -4 42.4149 39.7126   3
  -3  -2   4 49.4382 50.6730  17
   3   2  -4 65.7193 49.7734   8
   3   2  -4 63.0938 84.4168   1
   2  -3   4 56.2351 70.4086   6
   3  -2   4 66.6341 45.2195   8
  -3   2  -4 40.2991 46.7372  13
  -3  -2   4 53.6983 52.1757  16
   2   3  -4-8.69180 158.959  18
   2   3  -4-25.8713 111.885   1
   3   2  -4 60.2396 74.6480  18
  -2   3  -4 4.88468 16.8500  13
  -2  -3   4 46.0337 79.5819  17
  -3   2  -4 113.515 73.0475   5
  -3  -2   4 30.3517 43.9284   5
  -2  -3   5 594.734 175.485   6
  -3   2  -5 680.765 198.888  13
  -2  -3   5 484.764 192.582  16
  -3  -2   5 1089.00 366.181  17
   2  -3   5 1074.80 320.548   6
   3   2  -5 1160.67 212.019   3
   2   3  -5 875.339 284.509  18
  -2   3  -5 730.077 191.226  19
   3   2  -5 1081.36 299.269  18
  -3   2  -5 1058.41 229.152   5
  -2   3  -5 1119.15 300.592   3
  -2   3  -5 1049.88 274.941  12
  -3   2  -5 1039.05 268.678   4
  -3   2  -5 959.639 294.772  12
   3  -2   5 1471.35 364.219   6
   3  -2   5 1183.74 200.654   1
   2  -3   5 581.305 243.531  16
  -2  -3   5 554.812 274.939   2
  -3  -2   5 938.148 211.434  19
   3  -2   5 1133.86 329.907  16
   2   3  -5 1098.48 254.515   3
   2   3  -5 127.463 103.391   1
  -3  -2   5 827.811 230.603  16
   3   2  -5 797.680 263.022   1
  -3  -2   5 1026.67 351.648   2
   3   2  -5 1131.21 157.558   8
   3  -2   5 1119.48 275.172   8
  -2   3  -5 433.261 196.249  13
  -3   2  -5 889.962 254.499   3
  -2  -3   5 618.572 292.136  17
   3  -2   5 1129.54 267.063  14
  -3  -2   5 733.255 240.162   5
   2  -3   5 667.982 190.558  14
  -3   2  -5 1138.18 267.206  19
  -3  -2   5 367.743 128.194   4
   2   3  -5 1110.83 307.572  13
   2  -3   5 726.693 194.310   8
   3   2  -6 583.154 217.413  18
   2   3  -6 468.432 131.144  12
  -3   2  -6 432.372 165.744   5
   3  -2   6 588.209 150.259   1
  -3  -2   6 510.075 262.636  17
   2  -3   6 447.509 155.105   8
  -2  -3   6 485.061 232.183  17
  -2   3  -6 418.265 197.550  13
  -3  -2   6 539.460 200.117  16
   3   2  -6-3.85410 60.6370  14
  -3   2  -6 569.704 123.947  11
  -2   3  -6 583.122 214.235  12
   3   2  -6 408.181 183.157   1
  -3   2  -6 536.748 211.948   4
   2  -3   6 537.631 168.061  14
   3  -2   6 619.197 203.827  14
   2  -3   6 613.972 237.129   6
  -3  -2   6 385.119 130.325   4
  -2   3  -6 502.562 156.134  19
   3  -2   6 620.796 204.212   8
   2  -3   6 404.027 174.382  17
   2   3  -6 176.006 139.973   1
  -2   3  -6 549.794 161.548   4
  -2   3  -6 312.428 94.0773  18
  -3   2  -6 498.900 171.053  19
  -3  -2   6 512.304 235.204   2
  -3  -2   6 466.252 192.633   5
   3  -2   6 804.782 288.835   6
   2  -3   6 402.971 204.867  16
   3  -2   6 490.186 229.615  16
  -2   3  -6 518.588 211.009   3
  -2  -3   6 504.911 274.827   2
   3  -2   6 353.661 145.177   2
   2   3  -6 634.046 197.635   3
   2   3  -6 555.502 225.548  18
  -3  -2   6 625.101 148.943  19
   2   3  -6 609.635 228.954  13
  -2  -3   6 392.443 197.531  16
  -2  -3   6 473.036 159.360   6
   3   2  -7 4849.16 630.529  18
  -3  -2   7 4584.62 580.727   5
   3  -2   7 5296.66 625.260   8
  -2  -3   7 4511.78 788.340   2
  -2   3  -7 5526.18 542.192   4
   2   3  -7 4615.01 638.372  18
   3   2  -7 4223.96 595.672   1
   2  -3   7 6296.36 814.564   6
  -3  -2   7 5579.80 785.308   2
   2   3  -7 2729.88 493.242   1
  -2  -3   7 4689.14 794.498  17
  -3  -2   7 5738.15 832.857  17
   2  -3   7 5230.71 511.837  14
   3  -2   7 5496.48 777.963  16
  -2   3  -7 4535.96 424.377  18
   2  -3   7 6134.88 626.118  17
  -2   3  -7 3732.96 574.740  13
  -2   3  -7 4922.02 643.129  12
   3   2  -7 4951.12 772.591  20
  -3   2  -7 3864.24 357.428  11
  -2   3  -7 4650.57 643.337   3
  -3  -2   7 4759.27 634.334  16
  -3  -2   7 3988.42 360.968  19
  -3  -2   7 4038.30 389.668   4
   3  -2   7 5672.16 651.964  14
  -3   2  -7 3159.56 525.719   4
  -2  -3   7 3994.55 498.639   6
   2  -3   7 4443.78 517.212   8
   3  -2   7 6237.13 820.846   6
   2   3  -7 5642.35 614.860   3
  -2   3  -7 5296.21 360.490   5
   3  -2   7 5661.55 584.975   2
  -2  -3   7 4354.53 668.252  16
   2   3  -7 5077.79 701.095  13
   2   3  -7 4799.62 452.922  12
   2  -3   7 4468.23 745.277  16
   3   2  -7 5514.59 732.461  11
  -2   3  -7 4639.71 468.749  19
  -3   2  -7 5479.44 814.450  20
  -3   2  -7 3846.07 543.366  19
  -3   2  -8 44.8046 139.519  20
  -2  -3   8-24.4627 74.8208  17
   3  -2   8 2.85268 62.1763  14
  -2   3  -8 61.5028 164.046  12
   2  -3   8 11.1205 67.2464  17
  -3   2  -8-4.90885 72.9286  19
   3  -2   8 2.44248 88.5779   6
   2  -3   8-34.6425 66.0840   6
   2  -3   8 16.2215 39.9801   8
   2   3  -8 27.6056 98.6568   3
  -2   3  -8 18.9697 83.5019   3
   3   2  -8 7.70933 59.1216  11
   3   2  -8 100.054 200.638  10
   2  -3   8 64.8886 115.049   2
  -3   2  -8 69.5268 159.188  10
  -2  -3   8-28.1161 69.4926   6
   3  -2   8 23.0868 31.1554   2
   2   3  -8-28.2486 34.3882  18
   3   2  -8-66.4677 115.632  20
   3  -2   8 54.0637 139.688  16
  -2   3  -8 78.6161 112.273  13
  -3   2  -8 200.427 251.278   7
  -3   2  -8-11.0391 111.016   4
  -2  -3   8-19.0352 77.7356  16
  -2   3  -8 43.6037 72.6295  19
   3   2  -8 1.16187 9.62246  18
   3  -2   8 51.7965 102.685   8
  -3  -2   8 10.5543 17.6340   4
   2  -3   8 43.8834 11.2556  14
  -3  -2   8 29.1363 72.8476   5
  -2   3  -8 65.8693 85.5000   4
  -3  -2   8-42.1187 104.902  16
  -3  -2   8 54.0759 105.919   2
   2  -3   8 59.2459 161.668  16
   2   3  -8 9.07968 57.7862  12
  -3   2  -8 138.186 273.786  15
  -3  -2   8 71.4066 104.170  17
  -3   2  -8 8.39967 31.9507  11
  -2  -3   8 28.0914 115.099   2
  -2   3  -8 29.7965 35.3599  18
   2   3  -8-33.6443 28.0954   1
   3   2  -8 35.8095 64.9449  14
   3   2  -8 6.14538 33.4661   1
  -2  -3   9 424.609 200.588   6
  -3  -2   9 653.845 271.572  16
   2   3  -9 540.186 206.534   1
  -2  -3   9 984.229 382.599  17
   2   3  -9 784.915 330.369   7
  -2   3  -9 749.049 198.476  19
   3  -2   9 761.296 325.013  16
  -3   2  -9 585.925 318.987  15
   2  -3   9 935.505 333.481   6
  -2   3  -9 1027.62 249.481  11
   3   2  -9 174.444 88.3811  14
  -2   3  -9 620.716 210.600   4
   2   3  -9 1024.96 357.090  11
  -3   2  -9 739.610 285.746  10
   3   2  -9 792.926 277.934  18
  -3   2  -9 237.202 106.717  11
   3   2  -9 1389.22 485.755   9
  -2  -3   9 342.401 144.321   5
   3  -2   9 821.606 290.130  14
   2  -3   9 1051.82 242.214  14
   2  -3   9 803.124 225.033   8
   3   2  -9 823.288 301.077  11
  -3  -2   9 857.828 240.576   5
   3   2  -9 514.495 294.741  20
   2   3  -9 906.072 245.749  12
   2  -3   9 940.804 245.687  17
  -3   2  -9 658.934 317.947   7
  -3   2  -9 422.138 161.992  19
  -2  -3   9 818.386 373.784   2
  -3   2  -9 618.997 260.873  20
  -3  -2   9 881.866 345.525  17
   3  -2   9 1055.19 274.579   2
   2   3  -9 865.890 290.053  18
  -3   2  -9 847.696 301.657   9
   3  -2   9 841.140 352.173   6
  -3  -2   9 751.693 150.930   4
  -2  -3   9 717.298 298.539  16
   2   3  -9 742.363 298.617  15
   3   2  -9 697.863 279.999  10
   3  -2   9 718.386 246.007   8
  -2   3  -9 744.417 176.744  18
   2  -3   9 839.831 338.759  16
   2  -3   9 813.811 308.331   2
  -3  -2   9 967.802 347.013   2
   3   2  -9 655.909 243.003   1
   3  -2  10 458.855 258.550  16
   2   3 -10 745.437 273.409  11
   3   2 -10 415.092 252.115   9
   3   2 -10 376.592 179.486   1
   3  -2  10 539.137 226.928   8
  -3   2 -10 332.745 284.168   7
   2  -3  10 616.618 252.361   2
  -2  -3  10 523.288 264.788   2
   2   3 -10 84.3586 110.419  15
  -2  -3  10 657.865 328.333  17
  -2   3 -10-27.6283 168.623   4
  -3  -2  10 531.591 270.087   2
   3  -2  10 321.293 183.544  14
  -3   2 -10 281.027 157.289   9
   3   2 -10 243.629 172.488  10
   3   2 -10 506.830 219.594  18
   2  -3  10 676.626 201.449  17
  -2  -3  10 346.939 154.189   5
   3  -2  10 578.387 220.629   2
  -3   2 -10 530.787 307.052  20
  -2   3 -10 733.219 399.638  20
  -2   3 -10 709.976 415.146  15
  -3   2 -10 269.196 205.107  10
  -3  -2  10 421.824 105.265   4
   2  -3  10 609.233 174.030   8
  -3   2 -10 219.838 170.136  15
   2   3 -10 105.150 119.324   7
   3  -2  10 542.156 304.777   6
   3   2 -10 484.449 245.151  11
  -3   2 -10 197.823 129.194  19
  -3  -2  10 463.115 236.717  16
   2   3 -10 501.918 226.093  18
  -3  -2  10 477.378 171.577   5
   2  -3  10 623.879 319.191   6
   2  -3  10 492.922 262.135  16
  -2  -3  10 198.179 132.497   6
  -2   3 -10 702.141 190.090  11
  -3  -2  10 550.732 302.345  17
  -3   2 -10 51.9062 38.7983  11
   3   2 -10 256.061 248.200  20
   2   3 -10 359.128 184.022   1
   2  -3  10 652.088 198.620  14
  -2  -3  10 436.150 240.137  16
  -2   3 -10 576.714 158.372  19
   3   2 -10 117.529 65.4504  14
   2   3 -10 722.579 389.611  20
  -2   3 -10 451.461 146.064  18
   2  -3  11 185.843 246.337   2
  -3   2 -11 92.0375 110.876  19
   3   2 -11 42.6369 92.1702  20
   3  -2  11 80.4117 94.4883   8
   3  -2  11 175.094 133.797   2
  -3   2 -11 48.3874 230.474   7
  -2   3 -11 137.942 336.147  20
   2  -3  11 255.860 334.400  16
  -3  -2  11 117.689 88.4733   5
  -3  -2  11 194.200 224.910  17
  -2   3 -11 144.467 331.527  10
  -3   2 -11 236.901 267.967  20
  -3   2 -11 17.1974 20.5601   9
  -2   3 -11 9.07729 225.983  15
   3   2 -11 83.1494 109.297   1
   2  -3  11 94.2127 89.8007  17
   3   2 -11 7.98738 80.9930  11
   3   2 -11 108.611 61.5419  10
   3  -2  11 86.7442 149.688   6
  -2  -3  11 34.7747 78.5155  17
  -2   3 -11 94.6531 96.2140  19
   3   2 -11 48.0850 41.2657  14
   3  -2  11 184.985 158.316  16
  -3   2 -11-132.134 290.450  15
  -2   3 -11 105.711 94.9518  11
  -3   2 -11 40.8030 113.193  10
  -3  -2  11 104.235 167.169   2
   2   3 -11 231.967 320.528  10
  -2  -3  11 4.64366 68.9106   6
  -2   3 -11 194.552 367.921   7
  -2   3 -11 34.5397 47.1695  18
   2  -3  11 147.670 139.746   8
   2  -3  11 156.860 279.362   6
  -2  -3  11 137.675 138.607  16
  -2  -3  11 86.5480 60.0193   5
   2   3 -11 130.111 143.415  11
   3   2 -11 80.1297 164.413   9
  -3   2 -11-227.666 118.845  11
   2   3 -11 74.8736 76.2244  18
   3  -2  11 10.2614 69.4421  14
  -2  -3  11 77.6046 168.453   2
  -3  -2  11 105.636 171.220  16
   2   3 -11 9.48388 72.3402   1
   2  -3  11 156.495 108.162  14
   3   2 -11 75.8345 92.2170  18
   2   3 -11 9.61467 78.3179  20
  -2  -3  12 79.7678 73.9858   5
  -2  -3  12 22.8409 57.1911  17
   2  -3  12 82.3429 183.754  16
   3  -2  12 80.3967 102.339   2
   3   2 -12 117.196 178.172  11
   2   3 -12 76.6573 166.763  11
  -2   3 -12 77.4428 217.271   7
   3   2 -12 92.3177 108.986   1
  -2  -3  12 58.2438 59.1547   2
  -2   3 -12 249.487 127.069  19
   3  -2  12 58.1535 76.6618   8
  -2   3 -12 85.0611 82.3897  11
  -3   2 -12-96.4514 178.093  10
  -3  -2  12 77.8887 128.087   2
   2   3 -12 87.5793 95.6761   1
   2   3 -12-16.3850 82.4318  20
   3   2 -12 3.35872 19.1874  14
  -2   3 -12 709.454 486.243   9
  -3   2 -12-22.0868 113.973  20
  -2   3 -12 282.095 270.931  15
   3   2 -12-31.1402 81.6960  18
  -3   2 -12 87.9294 117.468  19
   3   2 -12-28.3467 56.5892   9
   3   2 -12 1.85104 55.6120  10
   2  -3  12 178.287 127.583   2
  -2  -3  12 17.8869 41.6370   6
  -3   2 -12 13.6081 165.927   9
   2   3 -12 46.6880 205.998  10
  -3  -2  12 112.108 152.914  16
  -2   3 -12 18.6282 24.7804  18
   3  -2  12-5.59446 87.9065  16
   3  -2  12 122.482 164.721   6
  -2   3 -12 69.4322 170.871  20
  -3  -2  12 29.4408 66.6957   5
   2  -3  12 46.1978 51.0800  17
   3  -2  12-37.7250 204.160  14
   2  -3  12 125.340 158.228   6
   2   3 -12 886.413 462.529   9
   2  -3  12 130.551 127.579  14
  -2  -3  12 7.69154 37.9430  16
  -2   3 -12 165.476 300.031  10
   2  -3  12 136.091 91.5065   8
  -3  -2  12 172.137 190.815  17
   2   3 -12 48.6210 75.5313  18
   3   2 -12-47.1953 207.841  20
  -2   3 -13-709.304 571.260  15
  -2   3 -13 402.088 298.064  19
   2  -3  13 854.640 750.668   6
   3   2 -13 71.5226 66.9110  18
  -3  -2  13 174.932 188.561   2
  -2   3 -13 590.332 585.506  20
   3   2 -13 29.0093 41.0425  14
   3  -2  13-11.9374 124.786  16
   3  -2  13-2.14806 197.650   6
   2   3 -13 620.036 468.958   9
  -3  -2  13 32.0873 146.966  16
  -2  -3  13 48.8518 265.382   6
  -2   3 -13 486.630 695.328   9
   3   2 -13-573.096 353.510  20
  -3   2 -13 38.0384 184.057  10
   2   3 -13 153.109 268.803  10
   2   3 -13 126.481 141.413  11
  -3  -2  13 91.0485 135.117  17
  -2  -3  13 66.7576 88.4649   5
   2  -3  13-56.5895 295.678   8
   3  -2  13 41.0577 186.793   8
   2  -3  13 346.032 435.741   2
  -3   2 -13-121.979 286.896  20
   3   2 -13 55.6313 41.4656   1
   3   2 -13 118.374 215.314  10
   3   2 -13 45.2854 198.874  11
  -2   3 -13 236.429 240.198  18
   2   3 -13 124.801 158.964   1
  -2  -3  13 146.556 251.434  16
   3   2 -13 125.353 124.926   9
  -2   3 -13 176.937 220.197   7
  -3  -2  13 102.747 102.807   5
  -3   2 -13-234.339 219.765   9
   2   3 -13 161.894 356.100  20
  -2  -3  13 263.012 340.065  17
   2   3 -13 179.946 211.092  18
  -2  -3  13 87.0755 227.327   2
   3  -2  13 21.2647 98.7309   2
   2  -3  13 614.198 536.874  16
  -3   2 -13-143.383 145.916  19
  -2   3 -13 645.684 633.706  10
  -3   2 -14-248.319 309.991   9
  -3  -2  14-47.5670 145.480  17
  -2   3 -14-20.8513 172.773  20
   2  -3  14 74.9985 98.1645   2
   2   3 -14 101.993 210.967  20
   2   3 -14 27.6396 36.2263  18
   2  -3  14-40.9987 89.8857  17
  -2   3 -14 78.9903 105.508   9
   2   3 -14 89.7771 256.357  10
   3  -2  14-12.9353 99.2828   8
  -2   3 -14 7.89112 158.371  10
   2  -3  14-34.4666 158.802  16
  -2  -3  14 37.0932 13.2301  17
   3   2 -14 25.2998 24.5055  14
  -2  -3  14-22.0290 88.8548  16
   3   2 -14-80.1582 139.623  18
   2   3 -14-56.6094 77.7594   9
  -2  -3  14 24.1842 49.8166   5
  -2   3 -14 25.6535 89.5894  19
  -3  -2  14-86.7265 169.741  16
   3  -2  14 65.9022 112.079   2
  -3  -2  14 106.937 95.1780   5
   3   2 -14-230.140 225.155   9
   3  -2  14-94.6065 104.735  16
  -3   2 -14 53.0360 193.905  10
  -3   2 -14-196.363 211.840  20
   3   2 -14 90.8876 127.173  11
  -2  -3  14-76.4796 123.266   2
   3   2 -14-28.5494 126.835  10
  -3  -2  14 166.924 222.167   2
   3   2 -14 64.6169 125.943   1
   2   3 -14-125.053 163.888  11
   2  -3  14-83.5685 150.093   6
   2   3 -14 42.2083 54.7149   1
  -2   3 -14-32.3104 81.1800  18
  -2  -3  14-257.633 342.920   6
  -3   2 -14-51.9693 79.4207  19
  -2  -3  14-1.63317 14.8188   8
  -2   3 -14-32.4366 84.3228  11
   3  -2  14-155.599 209.422   6
   2  -3  14 34.8218 39.1017   8
   3  -2  15 91.7329 163.813  16
  -2   3 -15 120.553 274.176  20
  -2   3 -15 89.1183 74.8731   9
  -3  -2  15 117.257 209.886  16
   3   2 -15 11.8333 31.0463  14
   3   2 -15-64.8665 72.7983  11
   2  -3  15-60.8316 130.636  17
  -3   2 -15-159.737 159.506  19
   3  -2  15-39.3965 149.210   6
   3   2 -15 61.4608 67.9775   1
  -3   2 -15-251.170 331.713   9
  -3   2 -15-374.788 429.777  20
  -2  -3  15-65.3906 194.500   2
  -2  -3  15-55.5208 125.558  17
   2   3 -15 127.271 215.685  10
  -3  -2  15-14.3355 69.4920   5
  -2   3 -15 12.4928 136.530  10
  -2   3 -15-88.7776 85.5223  11
   3   2 -15-28.9352 86.7199  18
   2   3 -15 15.4485 215.079  20
  -2   3 -15-27.8600 44.1174  19
   2  -3  15 136.056 246.789   6
   3  -2  15 112.596 139.914   8
   2  -3  15 27.0213 112.364  16
   2   3 -15-18.4184 60.8989   1
  -2  -3  15-78.8582 120.246  16
   3   2 -15 55.1312 185.886  10
   2   3 -15 65.2945 108.125  11
   2  -3  15 10.3330 53.9011   8
   2   3 -15 10.1839 67.1446  18
  -3   2 -15-47.2964 212.057  10
  -3  -2  15 2.85371 56.0914   2
   2   3 -15 164.053 268.026   9
  -3  -2  15-40.6030 117.481  17
   2  -3  15-115.871 102.806   2
   3  -2  15-39.0595 81.2522   2
  -2  -3  15 20.5863 88.3769   5
  -2  -3  15 1.90653 10.3995   8
   3   2 -15 77.2400 183.331   9
  -2  -3  15-402.767 482.830   6
  -2   3 -16 113.955 220.840  10
   3  -2  16 656.098 425.530  16
   2  -3  16 676.726 307.068   2
  -2   3 -16 160.168 193.355   9
   3   2 -16 6.21007 137.367  10
   3   2 -16 175.014 155.291  18
   2   3 -16 163.115 108.774   1
  -3  -2  16 583.886 295.657  17
   2   3 -16 128.770 119.229  11
   2   3 -16 80.0967 18.3652  10
   2   3 -16-31.3958 194.275   9
  -2  -3  16 730.817 373.717  17
   2   3 -16 162.338 253.150  20
   2  -3  16 629.656 234.869   8
  -2  -3  16 423.296 266.933  16
   3  -2  16 161.619 206.963   6
  -2   3 -16 77.1176 91.0204  11
   3  -2  16 745.019 313.683   2
  -3  -2  16 565.615 199.236   5
  -3   2 -16-293.206 424.973   9
   2  -3  16 126.617 169.337  17
   3  -2  16 337.588 181.391   8
  -2   3 -16 30.1761 49.0316  19
   2  -3  16 218.699 220.344   6
   3   2 -16 74.7100 49.1691  14
   2   3 -16 234.368 172.546  18
  -2  -3  16 560.821 379.059   2
  -2  -3  16 450.975 138.689   8
   3   2 -16-91.1917 263.450   9
   2  -3  16 580.698 357.757  16
  -2  -3  16 597.087 196.650   5
  -3  -2  16 474.714 337.743  16
  -3   2 -16-132.947 184.687  10
   3   2 -16 158.018 128.664   1
   3   2 -16 190.469 179.407  11
  -2   3 -16 357.613 207.098  20
  -3  -2  16 430.192 275.543   2
  -3   2 -16-242.511 227.425  19
   3  -2  17 525.391 256.042   8
   3   2 -17-389.909 407.466   9
   2   3 -17 443.302 291.838  11
   2  -3  17 834.115 415.706  16
  -2   3 -17 178.455 170.477  10
   2  -3  17 708.994 243.504   8
   2  -3  17 1056.93 397.532   2
   3  -2  17 444.499 337.588  16
   2   3 -17-121.865 382.552  20
   3  -2  17 333.953 179.277   6
  -3   2 -17-193.247 411.532  10
  -3  -2  17 834.950 412.154  17
  -3  -2  17 661.770 214.886   5
  -2  -3  17 593.234 172.671   8
  -2  -3  17 662.829 345.539  17
  -2   3 -17 86.3821 82.3119  11
   2  -3  17 609.499 405.117   6
  -3  -2  17 602.930 357.780   2
   3   2 -17 176.717 127.672   1
   2   3 -17 140.674 250.932  10
   3   2 -17 92.5083 116.722  18
  -2   3 -17 22.7863 193.889  20
   2   3 -17 188.884 159.375   1
  -2  -3  17 790.350 381.920   2
   3  -2  17 869.374 314.364   2
   2   3 -17 286.852 212.674  18
  -2  -3  17 768.583 215.319   5
  -3  -2  17 735.710 382.095  16
  -2  -3  17 547.667 366.577  16
  -3   2 -17-122.978 133.277  19
   3   2 -17-411.987 481.823  10
   3   2 -17 5.60048 23.9267  11
   2   3 -17 97.8443 68.2514   9
  -2   3 -17 95.0837 141.724   9
  -2   3 -18-62.6832 80.8473   9
   2   3 -18 82.9245 123.432   1
  -2  -3  18 64.8275 67.6383   5
  -2  -3  18 171.955 275.159  16
   3   2 -18-760.451 717.321  10
   3   2 -18-54.5636 162.177  18
  -2  -3  18 347.556 301.284   2
  -3  -2  18 32.9522 106.672   5
   3  -2  18 131.292 266.883   8
   3  -2  18 112.284 260.143  16
   3   2 -18-70.3355 16.1768  11
  -3   2 -18-74.2147 98.2175  19
   2   3 -18 61.8987 161.036  11
  -3  -2  18 98.0200 103.927  17
   2   3 -18-156.402 127.511  10
   2   3 -18-534.819 535.472  20
  -2   3 -18 72.5271 64.4650  19
   2  -3  18 110.994 211.078   8
   2   3 -18-30.0118 62.8359   9
  -3  -2  18 81.3564 23.1175   2
  -2  -3  18 59.8101 54.2583   8
   2  -3  18 165.237 150.015   6
   2   3 -18 194.612 195.063  18
   3   2 -18 27.4192 46.0296   1
   3  -2  18 115.934 186.542   2
  -2  -3  18 70.4811 108.171  17
  -2   3 -18-0.35017 113.932  10
   3  -2  18-795.690 474.826   6
  -3  -2  18 111.920 211.606  16
  -2   3 -18-134.289 32.9468  20
   2  -3  18 241.506 349.237   2
   2  -3  18 30.8686 159.685  16
  -2   3 -18-346.487 253.616  11
  -3  -2  19 2157.89 686.240   2
   3   2 -19 87.1276 150.083  11
   2   3 -19 370.589 312.446  10
  -2  -3  19 2183.99 709.559   2
   2   3 -19 434.707 251.971  18
  -2  -3  19 1914.45 339.564   5
   3  -2  19 214.557 507.166   6
   2  -3  19 2245.09 671.254   2
   3  -2  19 1737.55 692.336  16
  -2   3 -19 95.4816 134.465   9
   2  -3  19 977.450 480.285   6
  -3  -2  19 1473.83 556.590  16
  -3  -2  19 1671.65 351.321   5
  -2  -3  19 1451.48 613.888  16
   2  -3  19 2032.17 483.625   8
   2  -3  19 1826.93 671.319  16
   3  -2  19 1419.70 505.030   8
  -3   2 -19-691.183 329.417  19
   2   3 -19 668.889 353.929  11
   2   3 -19 370.281 187.528   1
   2   3 -19 159.659 141.035   9
   3  -2  19 2450.32 613.733   2
  -2   3 -19-741.160 491.253  20
   3   2 -19 323.917 213.335   1
  -2   3 -19 54.6316 73.6398  19
  -3  -2  19 2164.12 683.125  17
  -2   3 -19 257.470 276.063  10
  -2  -3  19 1958.02 614.885  17
   2   3 -20-1.70090 94.0176   1
  -2   3 -20-175.947 339.036  10
  -3  -2  20-316.781 481.124  17
   2   3 -20-162.031 392.467  10
   2  -3  20 182.085 215.164   8
   2   3 -20-93.9985 396.578   9
  -3  -2  20 198.621 224.642   2
   3  -2  20 6.74512 51.1850   8
   2  -3  20 12.3998 114.721  16
   2   3 -20 67.9407 168.863  11
  -3  -2  20 140.115 51.5913   5
  -2  -3  20 170.134 187.129  17
   2  -3  20 290.636 304.729   2
   2   3 -20 19.1716 89.1854  18
  -2  -3  20 6.89136 145.331  16
   3  -2  20 129.226 176.728   2
  -2  -3  20 94.3757 204.868   2
   3  -2  20 94.2141 121.985  16
   3   2 -20 108.106 147.139   1
  -3   2 -20-258.084 291.623  19
  -3  -2  20-129.051 232.690  16
  -2   3 -20-534.806 551.732   9
   3  -3   2-19.8558 105.227   6
   3   3  -2-86.5251 190.013   1
  -3   3  -2 40.7243 21.6849  12
   3  -3   3 10.1914 48.9744   8
   3   3  -3 14.9526 129.514   1
  -3  -3   3-47.7938 93.1330  17
   3  -3   3 4.09335 24.1320   6
  -3   3  -3 3.67569 17.4036  19
  -3   3  -3-11.6527 51.9236  12
   3   3  -3-29.5522 79.1464  13
   3  -3   3-12.6257 78.2161  14
  -3   3  -3-15.3596 56.1436   3
   3   3  -4 2490.72 471.919  13
   3   3  -4 941.887 343.723   1
   3  -3   4 2014.64 449.608   6
  -3   3  -4 2160.74 426.635   3
   3   3  -4 1819.32 438.984  18
  -3  -3   4 686.807 343.773  17
   3  -3   4 1568.63 319.444  14
  -3   3  -4 2133.89 369.361  19
  -3   3  -4 2419.11 433.012  12
   3  -3   4 1695.68 346.435   8
  -3   3  -5 36.3042 56.6325   3
   3   3  -5-11.8405 58.1424   1
  -3   3  -5 28.8784 43.2948  13
   3  -3   5-4.30243 32.6200   8
  -3   3  -5-32.9777 78.4140   5
  -3  -3   5-43.8323 100.842  17
   3  -3   5 7.42649 55.7524  14
  -3  -3   5 1.08728 28.9973   6
  -3   3  -5 1.83931 21.1369   4
   3  -3   5-47.3644 162.349  16
   3  -3   5 11.0054 48.4562   6
   3   3  -5-19.4217 70.4583  18
  -3  -3   5 74.1380 119.831   2
  -3   3  -5 10.2210 52.0063  12
  -3   3  -5-3.35624 49.4199  19
   3   3  -5-7.33606 37.8064   3
   3   3  -5 8.29371 57.9928  13
   3   3  -6 931.703 320.453   1
   3   3  -6 1668.63 315.258   3
   3   3  -6 1460.66 377.945  18
  -3   3  -6 1589.22 262.403   5
  -3   3  -6 665.529 241.201  13
   3   3  -6 1869.99 405.893  13
  -3  -3   6 1007.88 315.882  16
  -3   3  -6 1564.33 370.885  12
   3  -3   6 1901.96 447.014   6
  -3   3  -6 1427.15 304.760  19
   3  -3   6 1381.69 311.453   8
  -3  -3   6 892.784 214.315  19
  -3  -3   6 1273.66 431.757  17
  -3  -3   6 1208.65 223.290   6
   3  -3   6 1612.87 321.213  14
   3  -3   6 1184.80 385.060  16
  -3   3  -6 1804.09 345.009   4
   3  -3   6 1379.88 202.607   1
  -3   3  -6 1540.44 373.222   3
  -3  -3   6 1219.77 429.986   2
  -3   3  -7 19.1689 70.1831  12
  -3   3  -7 24.3277 30.0830   5
   3  -3   7-10.9223 60.8344   6
   3  -3   7-1.53386 48.0402  17
   3  -3   7 8.63638 22.8019   1
   3   3  -7 9.69878 77.6288   1
  -3  -3   7 33.7339 10.9801  16
  -3   3  -7 13.6831 59.3868   4
   3  -3   7 30.3305 53.7897   8
  -3   3  -7 55.8832 113.233  13
  -3  -3   7 44.6279 69.0399  19
   3   3  -7 23.1480 47.0150  18
  -3   3  -7-7.95493 25.5172  18
   3   3  -7-1.81550 75.3408  13
   3  -3   7-0.39095 34.1434  14
   3   3  -7-8.40764 35.7696  12
   3  -3   7 6.76015 27.5654  16
  -3  -3   7 20.2019 55.8127   6
  -3   3  -7 13.5529 50.0835  19
  -3  -3   7 15.7561 45.5775   2
   3   3  -7-0.01755 38.6359   3
  -3   3  -7-28.8783 50.0803   3
  -3  -3   7 12.2045 63.6641  17
   3   3  -8 5912.55 774.792  18
  -3   3  -8 4605.48 698.126  12
   3   3  -8 4779.12 626.412  15
   3   3  -8 5618.19 452.813  12
   3  -3   8 5535.17 882.672  16
   3  -3   8 5601.42 651.113   8
   3  -3   8 6592.13 680.488  14
  -3   3  -8 5315.40 597.607  19
  -3  -3   8 5609.05 931.470  17
   3  -3   8 7239.33 536.466  17
  -3   3  -8 5262.59 375.107  18
  -3   3  -8 3313.86 557.199  13
  -3  -3   8 2471.35 494.791   5
  -3  -3   8 4770.56 732.242  16
  -3  -3   8 5506.59 920.040   2
  -3   3  -8 4537.74 686.771   3
  -3   3  -8 5075.05 643.350   4
  -3  -3   8 5131.09 391.599  19
   3  -3   8 6865.12 918.162   6
   3   3  -8 6024.21 640.661   3
  -3   3  -8 4709.88 500.968   5
  -3  -3   8 1867.58 327.986   6
   3   3  -8 3929.47 636.035   1
   3   3  -8 5399.89 703.520   7
  -3   3  -9 55.7481 111.803  19
   3  -3   9 36.6378 100.565   6
  -3   3  -9-43.9152 89.7561   4
  -3   3  -9 155.580 177.842  13
   3   3  -9 25.9113 91.7389   1
   3   3  -9 69.5518 179.115  11
   3   3  -9 18.2445 62.1507  18
   3   3  -9 0.45441 29.0699  12
  -3  -3   9 71.5185 142.238  17
   3  -3   9-45.8284 16.5343   8
  -3   3  -9-18.0197 53.8028  11
   3  -3   9-34.8556 68.3257  16
  -3  -3   9-3.22405 41.6743   6
  -3  -3   9-8.23120 30.1842  19
  -3  -3   9-21.7772 48.0874  16
   3  -3   9 29.3651 59.3943  14
   3   3  -9 276.220 299.102  20
  -3  -3   9 12.7592 119.850   2
   3   3  -9 70.0058 122.490   3
   3   3  -9-195.285 260.779   7
   3  -3   9-8.72102 76.5019   2
  -3  -3   9 89.7956 116.135   5
   3  -3   9 34.8333 53.1553  17
  -3   3  -9 22.1654 35.2144  18
  -3   3 -10 230.826 95.0305  18
  -3   3 -10 690.102 439.213  15
   3  -3  10 311.663 225.506   6
  -3  -3  10 235.583 121.799   5
   3   3 -10 336.569 239.966  11
  -3   3 -10 78.1066 59.2585   4
   3   3 -10 184.427 159.923   1
   3   3 -10 355.449 307.903  20
   3  -3  10 338.780 172.548   8
  -3   3 -10 402.275 170.874  19
  -3  -3  10 326.161 260.343  17
  -3  -3  10 420.537 269.065   2
   3   3 -10 368.233 202.948  18
  -3  -3  10-25.4832 89.2915   6
   3  -3  10 370.754 175.462  14
   3  -3  10 410.752 140.278  17
   3  -3  10 337.092 232.180  16
  -3  -3  10 258.525 191.251  16
  -3   3 -10 283.726 126.629  11
   3  -3  10 439.753 224.976   2
  -3   3 -10 508.984 325.368  20
  -3   3 -11 7.60389 170.564  20
   3  -3  11-48.0346 86.2630   6
   3   3 -11 12.8988 33.9748  20
   3  -3  11-0.79656 88.1061   2
   3   3 -11 22.2177 90.8345   1
  -3   3 -11 83.4808 215.878  10
  -3   3 -11-7.73458 56.7792  19
  -3   3 -11 3.46027 1.12170  11
   3  -3  11-0.23900 136.301  16
  -3  -3  11 26.4862 145.594   6
  -3   3 -11-19.9407 2.36450  18
  -3  -3  11-9.24721 12.7001  16
   3  -3  11-43.7719 51.8296  17
  -3  -3  11-25.7609 86.6219   2
   3   3 -11 152.377 260.528  10
   3  -3  11-11.2457 48.2510   8
  -3   3 -11 320.548 355.256   7
   3   3 -11 113.340 195.024  11
   3   3 -11-16.6817 23.6277  18
  -3  -3  11 40.7135 101.614   5
  -3   3 -11 188.773 293.461  15
  -3  -3  11-5.26605 29.3486  17
   3  -3  11 18.1478 71.5194  14
  -3   3 -12 154.608 274.357  10
  -3  -3  12 188.323 165.416   2
   3  -3  12 322.185 295.656   6
  -3   3 -12 802.031 477.076   9
   3   3 -12 225.747 177.605  11
   3   3 -12 175.437 130.204  18
   3  -3  12 125.473 146.488  16
   3  -3  12 126.306 139.991  14
  -3   3 -12 155.949 256.219   7
  -3  -3  12 335.717 264.953  17
   3   3 -12-4.36166 108.274   1
  -3   3 -12 7.44028 166.714  15
  -3   3 -12 187.921 154.328  11
  -3   3 -12 319.653 154.542  19
   3  -3  12 164.021 96.6832  17
   3   3 -12-20.3883 61.8594  20
  -3   3 -12 153.423 260.861  20
  -3   3 -12-36.5231 96.6328  18
  -3  -3  12 221.204 180.013  16
   3  -3  12 159.390 124.524   8
  -3  -3  12 109.287 88.4721   5
   3   3 -12 62.1968 74.9203  10
   3   3 -12 746.403 492.759   9
   3  -3  12 195.466 133.890   2
   3   3 -13 5.81080 102.399  18
  -3  -3  13 594.232 393.851  17
  -3   3 -13 813.892 531.270  20
   3  -3  13 1108.06 584.589  16
   3   3 -13-99.5980 151.634  11
   3   3 -13 303.126 301.886  10
   3   3 -13-20.7384 77.6573  20
  -3  -3  13-24.4026 110.976   2
  -3   3 -13 1318.09 340.866  19
   3   3 -13-79.3716 58.8758   1
  -3   3 -13 769.998 555.270   7
  -3   3 -13 1394.05 654.892   9
   3   3 -13 543.571 426.348   9
   3  -3  13 36.1467 149.119  17
  -3   3 -13 843.812 268.193  11
  -3  -3  13 266.334 273.025  16
  -3   3 -13 727.538 549.866  10
  -3   3 -13-58.7423 149.709  15
  -3  -3  13-23.0895 67.2725   5
   3  -3  13 911.862 487.961   2
   3  -3  14 254.636 215.906   2
  -3   3 -14 56.7597 93.6336  19
   3   3 -14 173.160 204.411  11
  -3   3 -14-341.749 446.384  15
   3   3 -14 101.098 232.724   9
   3  -3  14 139.361 194.980   6
  -3  -3  14 137.255 169.951   2
   3   3 -14 147.139 125.859  18
   3  -3  14 152.710 201.733  16
  -3   3 -14 53.0261 68.2680   9
  -3  -3  14 127.301 172.218  16
   3   3 -14 114.299 132.015   1
   3  -3  14 48.3721 90.2000  14
  -3   3 -14 127.318 209.867  10
  -3  -3  14 189.750 168.973  17
   3   3 -14 25.3878 215.392  20
   3   3 -14 279.591 303.286  10
   3  -3  14 163.836 132.912   8
  -3   3 -14-24.7704 68.0747  11
  -3  -3  14 116.793 59.7240   5
  -3   3 -14-195.503 392.496   7
  -3   3 -14-7.38828 48.8691  20
   3   3 -15 114.207 141.777  11
  -3  -3  15 5.81959 9.27524   5
  -3  -3  15-106.473 162.155   2
  -3  -3  15-80.1755 135.382  17
   3  -3  15 67.7246 127.583   8
   3   3 -15 3.56891 195.612  10
  -3   3 -15 32.1637 164.548  20
   3   3 -15-94.3664 110.065  18
  -3   3 -15 172.548 153.203  19
  -3  -3  15 25.7789 114.914  16
  -3   3 -15 66.4063 174.622   9
  -3   3 -15-67.2091 23.5224  10
   3  -3  15 62.1646 154.694   2
   3   3 -15 18.5676 156.736  20
   3  -3  15 111.117 155.488  16
   3   3 -15-3.18916 68.0143   1
  -3   3 -15-82.3511 109.469  11
   3  -3  15 51.2870 157.315   6
   3   3 -15 2.76321 198.286   9
   3  -3  16 660.032 326.898   2
  -3   3 -16 46.0773 20.6021  19
  -3   3 -16-200.034 197.134  11
  -3  -3  16 380.098 173.824   5
   3   3 -16 172.865 144.054  18
   3   3 -16 124.451 194.699  10
   3   3 -16-78.5710 351.401  20
  -3   3 -16 145.994 186.699  10
  -3  -3  16 470.039 286.580   2
   3  -3  16 415.937 327.955   6
   3   3 -16 156.344 182.507   9
   3  -3  16 401.096 331.167  16
  -3   3 -16 219.839 128.265   9
   3   3 -16 309.751 273.814  11
   3   3 -16 175.416 141.227   1
  -3  -3  16 360.214 262.123  17
   3  -3  16 620.469 283.859   8
  -3  -3  16 337.699 266.738  16
  -3   3 -16 67.6522 110.133  20
   3  -3  17-41.0193 90.1404   2
  -3   3 -17 5.43595 35.7865  19
   3   3 -17 15.0040 148.246   9
   3   3 -17 67.7036 152.075  11
   3  -3  17-4.05838 62.5879   8
  -3   3 -17 52.6483 40.0713  10
   3   3 -17 58.1488 60.9937   1
   3  -3  17-34.3650 143.431  16
  -3  -3  17 86.6812 191.637  17
  -3   3 -17 2.55235 74.2154  20
  -3   3 -17-79.2001 245.245   9
   3   3 -17-43.6964 105.106  18
  -3  -3  17 23.8095 35.4565   8
  -3  -3  17 111.058 151.456   5
   3   3 -17 36.5554 125.922  10
  -3  -3  17 121.855 264.593  16
  -3  -3  17 15.1445 128.104   2
   3  -3  17 115.416 103.682   6
   3  -3  18 1643.48 704.624   6
   3   3 -18 272.182 172.696  10
   3   3 -18 653.813 388.789   9
   3   3 -18 752.063 343.126  11
  -3   3 -18-368.465 335.218  20
  -3  -3  18 2053.48 410.931   5
  -3   3 -18 337.137 301.523  10
  -3  -3  18 2412.40 693.883  17
  -3  -3  18 1946.78 660.712   2
   3  -3  18 1455.15 620.188  16
   3   3 -18 715.893 342.742  18
   3  -3  18 1728.40 476.142   8
  -3   3 -18 91.2665 190.405   9
   3  -3  18 2433.36 635.861   2
   3   3 -18 392.467 200.840   1
  -3  -3  18 1489.30 567.286  16
  -3   3 -18-72.1398 68.8258  19
  -3  -3  19-67.5026 96.7959  17
  -3   3 -19-547.628 421.334  20
   3   3 -19-12.5797 17.5713  18
   3  -3  19 131.327 229.632   6
   3   3 -19-252.232 371.287  10
   3   3 -19 24.9598 117.508   9
   3  -3  19-12.8432 107.027  16
   3  -3  19 112.830 206.340   2
  -3   3 -19-304.981 443.323   9
   3   3 -19-3.13230 43.4655  11
  -3  -3  19 52.7230 131.085   5
  -3  -3  19 48.3118 159.252   2
  -3   3 -19 154.946 245.622  10
  -3  -3  19-88.1957 204.918  16
   3  -3  19 35.5466 173.240   8
  -3   3 -19 66.0620 125.711  19
   3   3 -19-13.8987 90.8027   1
   3  -3  20 4034.43 873.301   2
   3   3 -20 515.422 312.872  18
  -3  -3  20 2856.23 832.199  17
  -3  -3  20 3689.08 973.084   2
   3   3 -20 381.943 227.303   1
   3   3 -20 117.319 162.550   9
   3  -3  20 2983.36 931.697  16
  -3  -3  20 2297.39 761.566  16
   3   3 -20 826.754 402.402  11
   3  -3  20 2939.01 624.857   8
  -3   3 -20-66.9281 114.100  19
   3   3 -20-74.9244 314.006  10
  -3   3 -20-407.206 572.516   9
   3  -3  20 1754.67 685.725   6
  -3   3 -20 11.7197 298.872  10
   4   0   0 691.864 210.724   8
  -4   0   0 490.445 154.245  12
   4   0   0 714.209 230.883   1
   4   0   0 682.901 172.757  18
  -4   0   0 514.557 177.093  17
  -4   0   0 626.600 226.107   5
  -4   0   0 706.686 177.835   2
   4   0   0 690.220 164.426  11
   4   0   0 814.528 191.742   6
  -4   0   0 519.157 201.414  19
   4   0   0 671.729 226.606  14
  -4   0   0 560.069 197.302   4
  -4   0  -1-12.2673 38.4527   5
   4   0   1 28.3362 58.2286   1
  -4   0   1 17.4010 36.9926   5
   4   0  -1-4.40218 22.6778  18
   4   0   1 14.1349 59.9180   8
   4   0  -1-6.11513 13.7264  11
   4   0  -1 30.6735 50.7278   8
  -4   0  -1-18.8668 59.7483  19
  -4   0  -1 20.8286 33.6360   4
  -4   0  -1-8.23406 36.2465   2
  -4   0  -1-2.42665 45.0014  17
  -4   0   1 32.7017 9.64462  19
  -4   0   1-6.53132 24.6231  12
   4   0   1 6.46234 19.5627   6
  -4   0   1 21.5206 38.0672   2
   4   0   1 3.24061 28.5595  14
  -4   0   1 47.7275 74.6182   4
   4   0  -1 12.9943 27.3968   6
   4   0   1 13.8979 33.6194  18
   4   0  -1-6.13638 25.5615  14
  -4   0   1 14.5764 26.1764  17
   4   0  -1 0.75499 38.6941   1
   4   0   2 44.6992 67.2923   6
  -4   0   2-1.32118 66.9277  17
  -4   0  -2 17.6670 20.6111  17
  -4   0   2 46.2853 50.1859   2
  -4   0   2-5.93444 42.6542  12
   4   0  -2 46.9636 67.6636  18
   4   0  -2 31.4690 71.9914   1
  -4   0  -2 40.4252 61.1145   5
  -4   0  -2-15.2449 61.1301  19
   4   0   2 48.0355 65.9031  14
  -4   0  -2 22.3878 18.5206   4
  -4   0  -2 77.9397 101.255  15
   4   0  -2-109.505 103.942   9
   4   0  -2 26.3902 28.7081   6
  -4   0   2 34.0749 47.7639   5
   4   0  -2 38.8941 56.9324   8
   4   0   2 53.6883 52.9674  16
   4   0   2 27.6462 35.2503  18
  -4   0  -2 56.1179 93.2960   7
   4   0  -2 88.2602 83.3575  14
   4   0  -2 42.6239 2.07618  11
  -4   0   2 35.5196 54.5606   4
   4   0   2 74.9043 89.0557   8
  -4   0   2 29.0601 55.1231  19
   4   0   2 25.0562 28.2787   1
   4   0  -3 3.24133 30.7162  14
   4   0   3 16.2582 70.2730   6
   4   0  -3-5.18828 48.1351   1
   4   0  -3 3.45349 48.8814  11
  -4   0  -3-11.5364 71.4645  19
  -4   0  -3-12.2413 43.5185  17
  -4   0   3-14.3584 48.4911   2
   4   0   3-16.9762 33.3626  16
  -4   0  -3 17.7274 3.95209   5
  -4   0  -3-25.6413 86.6676   7
   4   0  -3 5.17819 16.9908   8
   4   0  -3-3.99992 30.7494  18
  -4   0  -3-27.6359 87.7522   4
  -4   0   3 5.85501 32.1283   5
   4   0   3-10.0372 67.4480  18
  -4   0  -3 10.7273 41.9361  15
   4   0   3-28.0177 64.3529   8
  -4   0   3 20.9660 76.5067  17
  -4   0   3 11.1722 21.2648  19
   4   0   3-20.3978 69.5508   1
   4   0   3-27.2817 61.0862  14
  -4   0   3 3.15140 2.15346   4
  -4   0  -4 395.579 181.032   4
  -4   0   4 2117.98 359.951  19
   4   0  -4 1651.98 364.291   1
  -4   0   4 1973.47 370.678   5
   4   0   4 1633.69 391.315   8
  -4   0  -4 667.463 272.048  19
   0   4  -4 562.204 261.512  13
  -4   0   4 1752.15 399.716  17
  -4   0  -4 467.666 268.203   7
   4   0  -4 2033.04 351.416  14
  -4   0  -4 465.823 214.596  15
   4   0  -4 960.016 238.097   8
  -4   0   4 1762.97 304.664   4
  -4   0   4 2082.12 389.448   2
   4   0   4 1068.67 337.025   1
   4   0   4 1455.43 303.971  16
   4   0   4 1627.24 392.808   6
   4   0  -4 1582.05 320.268  18
   4   0   4 1982.85 462.036  14
   4   0  -4 1187.93 282.994  11
   4   0   5-8.68657 58.8790  16
  -4   0  -5-69.6272 119.170  19
   4   0  -5 34.5194 77.5165  18
   4   0  -5-33.7989 69.4186  11
  -4   0   5 9.60362 23.2356  19
   4   0   5-41.7294 109.142  14
   4   0   5-13.3028 72.6746   8
   4   0  -5 7.49970 30.4467   1
   0   4  -5-15.1141 78.0804  13
   4   0   5-55.1673 103.864   6
   0  -4   5-39.1818 106.548   6
   0   4  -5-21.6695 86.7921  12
   4   0   5-17.0969 62.6230   1
  -4   0   5 0.25801 22.9367   2
  -4   0   5-23.2088 100.220  17
   4   0  -5-3.53505 32.1114  14
   0   4  -5-4.50242 34.8200   3
  -4   0   5 5.14424 32.9286   5
   0   4  -6 608.802 205.637  12
  -4   0   6 542.126 214.111   2
   4   0  -6 525.912 170.451  14
   0  -4   6 316.267 170.032   6
  -4   0   6 565.911 259.625  17
   4   0  -6 395.919 183.467   1
   4   0   6 357.836 193.926   8
   0   4  -6 522.379 247.757  13
   4   0  -6 362.834 175.256  18
   4   0   6 407.737 203.531   6
   4   0  -6 276.745 161.366  11
   4   0   6 486.577 256.839  14
  -4   0   6-34.0446 117.584  16
   4   0   6 383.674 175.336  16
  -4   0   6 460.918 156.603   5
   0   4  -6 796.669 270.483   3
   4   0  -7 5.02074 42.7191   1
   4   0   7-38.2730 143.295   8
   0  -4   7 33.0233 95.1635   6
   4   0  -7-24.7355 53.8148  14
   0   4  -7-20.3090 85.8862  18
   0   4  -7 15.2718 37.5678  13
   4   0  -7 7.56718 26.9004  11
   0   4  -7-38.3891 77.9762  12
  -4   0   7 33.9152 84.2559  17
   4   0  -7 21.0422 63.5834  18
   0  -4   7 58.1204 163.560  17
   0  -4   7-51.4791 149.232  16
  -4   0   7-11.1123 45.6093   2
   4   0   7-32.3832 110.522   6
   4   0   7 24.4013 15.8879  16
  -4   0   7-110.859 157.711  16
   4   0   7 48.8136 102.652  14
   0   4  -7-18.5085 82.7301   3
   4   0  -8 1707.59 398.251  18
   4   0  -8 2127.55 447.258   1
   4   0   8 1320.76 460.286  14
   0  -4   8 3840.30 743.825  16
   4   0  -8 1051.61 314.563  11
   0  -4   8 4880.20 708.694   6
   4   0   8 2806.25 644.148   6
  -4   0   8 510.530 195.971  16
  -4   0   8 4124.95 740.775  17
   0   4  -8 4689.87 642.254  18
  -4   0   8 4103.49 646.312   2
   0   4  -8 5005.63 622.889  12
   0   4  -8 5115.37 780.187  13
   4   0   8 2337.16 528.490  16
   4   0   8 1692.57 451.685   8
   0   4  -8 5624.14 741.081   3
   4   0  -8 2554.29 389.243  14
   0  -4   8 4247.32 725.336  17
   0   4  -9-30.7228 81.6206  13
   0   4  -9 16.7352 33.3462   4
   4   0  -9 29.9123 78.7809  18
   0  -4   9 8.39087 91.7942   6
  -4   0   9-32.8394 100.056  17
   4   0  -9-3.53115 35.7618   1
   4   0   9-157.238 313.556  14
   0   4  -9-0.99704 73.1143  12
   0  -4   9-61.9464 104.277  17
   0   4  -9-5.19669 25.0697   3
  -4   0   9-57.5886 152.709  16
   4   0   9-56.8125 70.7516  16
   4   0  -9 6.12780 26.7452  14
   4   0  -9 14.1127 38.1287  11
   0  -4   9 95.2424 126.071  16
   0  -4   9-40.6878 68.1427   2
   0   4  -9-10.7594 67.5702  18
   4   0   9 44.4526 40.2366   6
  -4   0   9 11.8335 20.7162   2
  -4   0  10-5.87234 111.582  16
  -4   0  10 78.1344 87.2949  17
   0   4 -10 89.2897 137.646   3
   0  -4  10 56.7396 88.0759   2
   0  -4  10 4.67337 13.2845   8
  -4   0  10 67.2629 33.6419   2
   0   4 -10 100.416 96.1623  18
   0  -4  10 82.5572 149.892  16
   4   0  10 92.1306 154.050  16
   0   4 -10 55.7040 51.9734  13
   4   0 -10-7.08083 101.448  11
   4   0  10-57.4618 204.810   6
   4   0 -10 24.5586 22.6950  18
   0  -4  10 140.592 162.803   6
   0  -4  10 104.803 55.6699  14
   0  -4  10 100.810 119.472  17
   4   0 -10 3.83128 41.0599   1
   0   4 -10 72.3541 88.8730  12
  -4   0  11 20.8489 36.1747  17
   0   4 -11 19.4600 75.8884  12
   0  -4  11-2.32952 6.08796  14
   4   0  11-205.975 293.577   6
   0  -4  11-53.8384 121.412  17
   4   0 -11-86.7970 149.417  18
   4   0 -11-62.6713 119.467   1
   0  -4  11-54.0603 63.0096   2
   0   4 -11 419.664 243.799  11
   0  -4  11 4.92805 27.0972  16
   4   0  11-58.7322 60.1026  16
   0  -4  11-14.6067 37.2959   8
   0   4 -11 66.4899 128.311  13
   0   4 -11 53.5372 91.9230  18
   4   0 -11-36.0426 149.977  11
   0  -4  11-87.7210 110.889   6
  -4   0  11-29.8572 114.781  16
   0   4 -11 8.54798 90.7625   3
  -4   0  11 19.7668 54.4403   2
   0   4 -12 327.322 232.509  12
   0  -4  12-88.9091 184.773   2
   0  -4  12 69.5620 128.557   6
   0   4 -12 214.016 321.593   7
   0  -4  12 66.6857 200.475  16
   4   0  12-0.31046 156.905  16
   0  -4  12-31.6543 46.9523   8
   0   4 -12 179.228 312.839  20
  -4   0  12-40.2861 63.1284   2
   0   4 -12 178.671 152.434  11
   0  -4  12 128.006 152.359  17
   4   0  12-170.671 408.265   6
   0   4 -12 106.866 89.3837  18
   0   4 -12 25.0288 108.551   3
   4   0 -12-117.517 260.307  11
  -4   0  12-63.0927 183.977  17
   0   4 -12-118.321 205.103   1
   0   4 -12 170.829 310.335  15
   0   4 -13 513.565 304.008   1
  -4   0  13-191.918 334.817  17
   0   4 -13 572.336 310.208   7
  -4   0  13 22.3223 74.6855   2
   4   0  13-62.4153 78.1708  16
   0   4 -13 106.055 398.320  15
   0   4 -14-331.503 285.075  15
   0   4 -14 4.82883 104.005   7
   0  -4  14 52.4383 85.4568  16
   0   4 -14 32.8241 45.1443   1
   0   4 -14 501.504 430.773  10
   0  -4  14 140.079 78.2264   8
   0   4 -14 155.089 137.039  18
   0   4 -14 49.4060 242.644  20
   0  -4  14 450.640 261.378  17
   0  -4  14 22.6394 94.7744   2
   0   4 -14 277.611 184.372  11
   0  -4  14 21.8972 85.8505   6
  -4   0  14 225.788 221.137   2
   4   0  14 177.275 259.081  16
   0   4 -15 200.822 390.636  20
   0  -4  15 20.9625 56.5889   8
   0   4 -15 575.889 528.491   9
   0  -4  15 70.8381 129.197  17
   0   4 -15-47.4253 26.6968  11
   0   4 -15-22.8997 51.5497   1
   0   4 -15-107.323 140.861  18
   4   0  15 242.071 255.356  16
   0  -4  15 18.1291 95.8929  16
   0  -4  15 14.1428 145.485   6
   0  -4  15 104.187 181.496   2
   0   4 -15-19.3783 25.0817  19
   0   4 -15-247.396 474.769   7
   0   4 -15-156.568 223.265  10
   0   4 -16 368.694 365.763   9
   0   4 -16 54.3169 112.955  18
   0   4 -16 52.9463 104.237  11
   0  -4  16 108.699 257.411   2
   0   4 -16 5.83049 31.6499   1
   0  -4  16 212.169 260.639  16
   0   4 -16 259.045 445.980  20
   0  -4  16-80.8682 103.985   6
   0  -4  16 117.030 114.725   8
   0   4 -16-19.7671 19.2067  19
   0   4 -16 204.656 390.946  10
   0  -4  16 59.8085 70.9674  17
   0   4 -17-80.7859 141.624  11
   0   4 -17 3.95190 18.9817  19
   0   4 -17-37.6274 240.249  10
   0  -4  17 234.701 257.193  16
   0   4 -17 150.168 134.477  18
   0   4 -17 106.795 174.239   9
   0  -4  17-2.96109 77.5604   2
   0  -4  17-45.3302 147.308  17
   0  -4  17 88.5360 84.2710   8
   0   4 -17 19.1561 102.407   1
   0   4 -17-37.6421 298.732  20
   0  -4  17 116.130 195.099   6
   0   4 -18 1003.34 548.035  10
   0   4 -18 828.044 340.048  11
   0   4 -18 756.908 513.460   9
   0  -4  18 1467.33 491.956  17
   0  -4  18 1204.55 521.765   2
   0   4 -18 483.126 234.279  18
   0   4 -18 909.557 547.311  20
   0  -4  18 1474.56 631.556  16
   0  -4  18 580.354 385.384   6
   0  -4  18 1311.70 289.036   8
   0   4 -19 181.423 418.497  20
   0   4 -19 653.477 407.031  10
   0  -4  19-258.198 325.216   6
   0   4 -19 212.028 144.854  18
   0  -4  19 322.489 294.216  16
   0   4 -19 290.083 219.000  11
   0  -4  19 312.463 272.996   2
   0  -4  19 260.959 248.999  17
   0  -4  19 354.593 192.276   8
   0   4 -19 651.137 466.538   9
   0  -4  20 1616.35 533.438  17
   0   4 -20 301.000 412.304   9
   0   4 -20 70.4056 246.694  20
   0  -4  20 2147.07 752.238   2
   0  -4  20-121.409 308.020   6
   0   4 -20 851.435 359.744  11
   0   4 -20 120.731 254.793  10
   0  -4  20 1299.86 600.359  16
   0   4 -20 328.018 179.546  18
   4   1   0 2156.99 381.627  18
  -4  -1   0 1414.36 368.400  17
   4  -1   0 2477.11 397.113   1
  -4   1   0 2497.02 391.891   5
   4  -1   0 3117.06 423.768   6
   4   1   0 366.972 137.044   6
  -4   1   0 2381.91 379.963   4
  -4   1   0 1600.06 289.600  12
  -4   1   0 1689.26 229.357   2
   4  -1   0 820.248 176.582  18
  -4  -1   0 1189.55 355.603   5
  -4   1   0 670.013 197.643  17
  -4   1   0 2534.08 408.917  19
   4   1   0 1986.15 382.550   8
   4  -1   0 2309.08 383.935   8
   4   1   0 1581.83 393.819  14
  -4  -1   0 1181.98 349.202  19
  -4  -1   0 872.997 273.146   4
   4  -1   0 2655.55 420.662  14
   4   1   0 2458.84 497.976   1
   4   1  -1 44.2425 76.0770  14
   4   1   1 49.1805 55.5399  14
   4   1  -1 122.648 109.195   1
  -4   1  -1 86.7909 65.3144   3
   4   1  -1 149.570 96.5832  18
  -4  -1   1 165.902 134.414   2
   4  -1  -1 104.400 70.6266   6
  -4  -1  -1 1.37140 106.457   4
  -4   1  -1 122.562 88.9222  12
  -4  -1  -1 19.8506 66.1157  17
   4  -1   1 197.123 120.420  14
  -4   1   1 16.5471 30.5364  12
  -4  -1   1 129.708 117.848   5
   4   1  -1 121.522 73.9929  13
  -4   1   1 64.0595 53.5818  17
  -4   1  -1 194.327 114.700   5
   4  -1  -1 119.213 95.5368  14
  -4   1  -1 205.396 115.771   4
   4  -1  -1 109.739 76.5185   8
  -4   1   1 142.481 103.406  19
  -4   1  -1 32.3660 13.1049  17
   4   1   1 96.9103 110.151   8
   4   1   1 47.0793 84.2015  18
  -4   1   1 127.587 97.4246   5
  -4  -1   1 82.1421 83.8121   4
  -4  -1   1 87.6688 97.0442  19
   4  -1   1 141.065 109.437   1
  -4  -1   1 58.4416 71.4782  17
   4   1  -1 43.8068 49.6752   6
   4   1   1 15.9069 31.2356   6
   4   1  -1 178.469 116.558   8
   4  -1   1 184.929 142.240   8
   4  -1  -1 119.330 100.739   1
   4   1   1 206.010 156.210   1
  -4   1   1 81.0711 49.3354   4
  -4   1  -1 226.285 172.003  19
   4  -1  -1 36.6162 35.7938  18
  -4  -1  -1 38.3245 30.5861  19
   4  -1   1 305.051 176.237   6
  -4   1  -1 123.224 49.4695   2
   4  -1   1 72.3179 46.8069  18
   4   1  -2 200.737 93.7962  13
   4  -1   2 90.7393 43.3225  18
   4   1  -2 124.452 117.258  14
  -4   1   2 129.897 81.9565   5
  -4  -1   2 196.384 114.934  19
  -4   1  -2 147.547 86.9992   3
   4   1  -2 232.703 153.436   1
   4  -1  -2 70.4316 54.0125   1
   4   1  -2 217.617 116.015   8
   4   1  -2 183.051 110.222  18
  -4  -1   2 122.503 106.061   5
   4   1   2 109.267 110.002   1
   4  -1   2 112.284 74.6287  16
   4   1   2 72.5701 37.3903   8
   4  -1   2 200.550 124.389  14
   4  -1   2 209.332 113.982   1
   4   1   2 101.806 138.133  14
   4  -1   2 162.754 104.426   8
  -4   1  -2 46.0751 40.1223  17
   4  -1  -2 105.785 83.0687   8
   4  -1  -2 30.3469 32.9921  18
  -4   1  -2 153.365 115.093   5
  -4  -1   2 153.137 102.832   4
  -4   1   2 175.203 112.027  19
  -4  -1   2 126.835 112.641  17
   4   1   2-7.99842 73.2651   6
  -4   1  -2 126.998 87.1239  12
  -4   1  -2 190.573 109.958  19
  -4  -1   2 174.511 125.469   2
  -4   1   2 48.5336 63.3896  17
   4  -1   2 242.977 134.090   6
  -4   1  -2 182.617 113.169   4
   4  -1  -2 147.210 108.071  14
  -4  -1   3 373.482 198.792   5
   4  -1   3 593.580 203.664   1
   4   1  -3 527.086 191.130  18
   4   1  -3 289.782 104.238  20
   4   1  -3 400.572 178.535  14
   4   1  -3 551.727 224.957   1
   4   1  -3 498.246 153.495   8
   4  -1   3 622.593 210.602  14
   4   1  -3 597.194 222.035  11
  -4  -1   3 387.900 155.753   4
  -4   1  -3 491.795 192.585   5
   4  -1   3 494.744 175.507  16
   4  -1  -3 275.033 151.348   1
  -4  -1   3 598.728 225.980   2
   4  -1   3 583.249 204.381   8
   4  -1  -3 42.3692 38.0286  18
  -4   1   3 133.708 103.962  17
   4  -1   3 686.352 233.147   6
  -4   1   3 382.358 160.102  19
  -4  -1   3 433.235 114.531  16
  -4  -1   3 472.309 214.716  17
   4  -1  -3 66.9688 54.8526   8
   4   1   3 13.6537 73.7797   6
   4   1   3 68.5273 102.018   1
  -4   1  -3 455.090 202.283  19
  -4   1  -3 427.180 179.050   4
  -4  -1   3 517.480 181.019  19
   4  -1  -3 348.224 152.708  14
   4   1   3 199.305 171.903  14
   4  -1   4 86.1016 65.7803   6
  -4   1  -4 73.8858 87.9090  19
   4  -1   4 85.9531 78.2256   8
   4   1  -4 0.40980 58.6917  20
  -4  -1   4 82.5833 93.0842   5
  -4  -1   4 34.3414 36.3419  16
  -4   1  -4 95.2439 80.9323  20
   1   4  -4 28.1967 49.8449  13
   4  -1   4 42.3649 37.7990  14
   4   1  -4 79.2912 68.2763  14
  -4   1  -4 44.1014 61.8113   4
  -4   1  -4 15.8403 53.9215  10
   4   1  -4 68.2797 87.6187  11
   4   1  -4 60.6817 66.4048   8
   4  -1  -4-18.5844 83.8792  18
  -4   1  -4 60.1841 62.6648   9
  -4   1  -4 17.7551 30.8660   5
   4   1  -4 44.2313 65.1447  18
   4  -1   4 60.0524 60.5092   1
  -4  -1   4 32.9904 68.7410  17
   4   1   4-79.0710 163.174   6
  -4  -1   4 52.2813 61.4084   2
  -4   1   4 16.1264 35.1129  17
  -4  -1   4 49.6757 60.6797  19
   4   1   4-38.1967 134.173  14
   4  -1  -4 32.1297 43.1266  14
   4  -1  -4-19.8835 79.2384   1
   4   1  -4 22.7571 46.5205   1
   4  -1   4 51.5701 61.0585  16
   4   1  -4 49.5733 61.9070  10
  -4  -1   4 21.6802 28.6095   4
  -1   4  -4 16.6749 47.4020   3
  -4  -1   5 3413.09 541.887   2
  -4  -1   5 3253.91 430.839  19
  -4   1  -5 1239.33 209.375   9
  -4   1   5 1148.85 334.174  17
  -4  -1   5 3037.36 400.419   4
   4   1   5 244.313 118.538  14
   4   1  -5 3090.30 513.229   1
  -1   4  -5 2605.47 444.699  12
  -4   1  -5 1597.76 376.854   5
   4   1  -5 3131.16 514.732  11
   4  -1   5 3257.14 527.280   8
   4  -1   5 3650.97 585.380  14
  -4  -1   5 2469.76 355.701  16
   4  -1   5 4037.70 629.155   6
   4   1  -5 422.932 152.871  20
   4   1  -5 2512.10 393.944  14
   4   1  -5 2089.13 306.000   8
   4   1  -5 2941.31 475.687  18
   4   1  -5 2949.77 510.109   9
   1   4  -5 2392.69 455.755   3
   4   1   5 15.1075 162.586   6
   4  -1  -5 754.659 242.808   1
   4  -1   5 2636.59 453.908   1
  -4  -1   5 2723.14 554.025  17
  -4   1  -5 2157.94 427.294  20
  -4   1  -5 1800.07 310.974  10
   1   4  -5 2480.03 548.209  13
   4  -1   5 3249.19 510.403  16
  -1   4  -5 1361.62 403.114  13
   1  -4   5 1030.08 326.610   6
  -4   1  -5 1845.58 417.189  19
  -4  -1   5 3268.38 499.407   5
  -4   1  -5 3082.38 641.894  15
  -1   4  -5 3087.82 545.823   3
   4  -1  -5 1169.40 278.417  14
  -4   1  -5 3388.22 704.979   7
  -4   1  -5 1702.73 409.296   4
   4   1  -6 821.541 280.191   1
   1  -4   6 594.730 256.810   6
  -4  -1   6 1049.85 365.632  17
  -1   4  -6 884.936 271.807  12
   4   1  -6 367.670 142.549  10
  -4   1  -6 503.524 231.592  20
   4   1  -6 946.335 280.081  11
  -4   1  -6 337.456 149.083  10
   1   4  -6 877.019 303.490  13
   1   4  -6 571.464 176.639  12
  -1   4  -6 989.855 312.243   3
   1   4  -6 328.949 40.5566  18
   1   4  -6 1001.28 294.472   3
  -1  -4   6 196.073 190.998  17
  -4  -1   6 615.093 198.521  16
  -4  -1   6 917.079 298.405   2
  -4  -1   6 869.117 212.141  19
  -4   1   6 255.253 132.078  17
  -4   1  -6 215.866 71.0292   9
  -1  -4   6 501.962 197.978   6
  -4   1  -6 773.845 352.726   7
  -4   1  -6 646.528 287.900  15
   4  -1   6 1006.86 311.166  14
   4  -1   6 369.134 191.735   1
  -4   1  -6 319.075 188.181   4
   4   1  -6 763.194 215.722  14
  -1   4  -6 660.023 270.286  13
  -4  -1   6 842.648 205.343   4
   4  -1  -6 4.16576 130.327  18
  -4   1  -6 401.054 213.732  19
   4  -1   6 1316.41 388.202   6
   4   1  -6 910.027 270.470  18
   4   1  -6 692.799 258.944   9
   4  -1   6 930.851 290.240  16
  -4  -1   6 991.205 273.213   5
   4  -1   6 907.551 296.950   8
  -1   4  -7 2565.68 498.290   3
   4   1  -7 1351.54 384.405   9
   4   1  -7 1822.45 407.239   1
   4   1  -7 1769.42 316.856  14
  -4  -1   7 2326.98 488.443   2
   1   4  -7 1885.83 452.042  18
   4  -1   7 2330.33 546.282   6
  -1   4  -7 969.705 247.819  18
  -4   1  -7 1289.92 501.444   7
   4  -1   7 1919.81 445.376   8
   1  -4   7 2026.31 481.059   6
  -4  -1   7 2207.03 538.081  17
   1   4  -7 2648.31 486.458   3
   1  -4   7 853.919 335.199  17
  -4   1  -7 1061.10 422.434  15
  -1  -4   7 1080.57 417.412  17
   4   1  -7 1881.82 409.881  18
  -4   1  -7 93.4702 148.716   4
   4  -1   7 1998.40 485.568  14
   1   4  -7 2236.21 368.423  12
  -4  -1   7 1407.17 280.387  19
   4   1  -7 731.965 247.378  10
   4  -1   7 2224.57 484.283  16
  -4  -1   7 2425.99 420.081   5
  -1  -4   7 1649.35 368.939   6
   1  -4   7 1236.48 396.570  16
   4   1  -7 1705.06 400.579  11
  -1  -4   7 1169.85 366.522  16
  -4   1  -7 967.760 328.036  20
  -4  -1   7 1493.56 340.052  16
   4  -1   7 1869.29 228.890   2
  -1   4  -7 1607.71 438.758  13
  -4  -1   7 1996.49 302.711   4
   4  -1   7-93.8916 276.654   1
   1   4  -7 2319.38 530.742  13
  -4   1  -7 673.756 200.864  10
  -4   1  -7 662.529 289.884  19
  -1   4  -7 2362.84 449.157  12
   1   4  -8 172.579 113.900  18
  -4   1  -8-2.90539 117.147  19
   1  -4   8 172.958 189.037  17
   1  -4   8 7.78961 75.4065  14
   1   4  -8 120.108 132.188  13
   4   1  -8 55.7410 80.1110   1
  -1   4  -8 56.1546 57.7135  13
   4   1  -8 78.9946 51.3062   9
   1  -4   8 54.2862 22.1320   8
   1   4  -8 159.177 128.251   3
  -1  -4   8 72.6745 113.984   6
   4  -1   8 60.5659 25.5620   2
   4  -1   8 124.444 157.087   6
  -1   4  -8 116.346 49.8200   4
  -1   4  -8 83.7183 74.2291  18
  -4  -1   8 92.4485 55.0819   2
  -1  -4   8 104.162 135.676   2
   4   1  -8 111.052 109.376  11
   4  -1   8 86.8206 101.265  16
  -1  -4   8 181.551 159.719  17
   4   1  -8 63.5792 30.9464  18
   4  -1   8 140.146 150.045   8
  -1   4  -8 94.2162 74.0306   3
  -4   1  -8 74.4557 60.3156  20
   1  -4   8 94.5801 97.7541  16
  -1  -4   8 51.2909 128.012  16
   4   1  -8 48.9320 10.7400  10
  -4   1  -8 5.16829 73.0133  10
  -4   1  -8-118.132 238.204  15
  -4  -1   8 211.422 194.865  17
  -4  -1   8 141.649 137.383  16
  -4   1  -8-0.18170 215.330   7
  -1   4  -8 74.9327 52.7849  12
  -4  -1   8 122.581 108.758   5
   1  -4   8 106.145 84.4593   6
   4  -1   8 148.237 132.804  14
   4   1  -8 124.008 85.5052  14
   1   4  -8 177.691 95.7595  12
   4   1  -9 58.6331 125.871  10
   4  -1   9 735.186 299.380   8
   4   1  -9 297.666 211.729   9
  -4  -1   9 909.803 329.220   2
   4   1  -9 574.654 228.661   1
  -4   1  -9 133.366 57.3156  20
  -1  -4   9 838.785 292.474   6
   1  -4   9 1101.93 327.114  17
  -4   1  -9 72.9545 61.9328  10
   1   4  -9-108.283 261.289   1
  -4  -1   9 956.609 370.234  17
   1  -4   9 938.257 192.047  14
   4   1  -9 544.975 233.131  11
   4  -1   9 585.237 291.007  14
  -1   4  -9 1074.08 209.549   4
  -4  -1   9 779.618 241.739   5
  -1   4  -9 882.053 298.505   3
   1   4  -9 904.494 301.696  18
  -4   1  -9 150.593 127.696  19
  -1   4  -9 1056.48 253.175  18
  -4   1  -9-154.858 382.788   7
   4   1  -9 654.324 190.283  14
  -1  -4   9 838.280 360.075  17
   4   1  -9 605.669 240.993  18
  -4  -1   9 622.249 244.183  16
  -1  -4   9 906.220 396.268   2
   1   4  -9 919.319 341.995  13
  -1  -4   9 735.199 340.900  16
   4  -1   9 849.909 367.248  16
   4  -1   9 720.454 164.087   2
   1  -4   9 797.927 366.914  16
  -1   4  -9 868.507 270.967  12
   1  -4   9 1046.18 355.619   6
   4  -1   9 942.243 403.152   6
   1   4  -9 989.555 308.068   3
  -1   4  -9 902.649 327.618  13
   1  -4   9 578.717 165.007   8
   1   4  -9 980.133 254.936  12
   4  -1  10 406.729 124.034   2
   1  -4  10 701.907 298.436   6
  -1  -4  10 460.542 248.986   6
   4   1 -10 343.607 189.933  18
   1   4 -10 701.537 275.774   3
   4   1 -10 337.846 130.538  14
   1   4 -10 488.915 259.174  13
  -1   4 -10 564.060 259.096   3
   4   1 -10 324.287 179.387   1
   4   1 -10 297.042 212.995   9
  -1   4 -10 689.798 251.826  12
  -4   1 -10-113.779 216.401  10
   4  -1  10 287.628 192.607  14
   4  -1  10 487.811 277.166  16
   1   4 -10 9.40726 33.6677   1
   4   1 -10 252.565 187.276  11
  -4  -1  10 483.199 236.860  16
  -1  -4  10 725.055 365.657   2
  -1   4 -10 507.635 235.608  13
   4  -1  10 375.873 207.128   8
   4   1 -10-6.42081 172.383  10
   1  -4  10 888.088 279.969  17
  -1   4 -10 526.726 160.602   4
   1   4 -10 731.256 269.176  18
   1   4 -10 593.628 226.963  12
   1  -4  10 758.264 171.224  14
  -4  -1  10 634.861 285.726   2
  -1   4 -10 693.217 205.991  18
   4  -1  10 471.426 289.564   6
  -4   1 -10 5.55273 106.968  19
  -1  -4  10 477.637 265.101  16
   1  -4  10 540.234 153.393   8
  -4  -1  10 534.418 263.087  17
  -4   1 -10-22.7897 209.065  20
  -4  -1  10 526.892 197.900   5
   1  -4  10 513.477 278.120   2
   1  -4  10 561.847 283.344  16
  -1  -4  10 768.406 358.625  17
   1  -4  11 78.2761 121.122  17
   4   1 -11 23.6276 53.9850  18
  -4  -1  11 11.1119 86.0648  17
   4   1 -11 17.8294 66.3302  11
   1   4 -11 18.4213 72.2526   3
  -1   4 -11 274.424 200.132  12
   1   4 -11 12.8968 90.5679   1
  -1   4 -11 316.227 200.740  11
  -4   1 -11-155.266 265.090  19
  -1   4 -11 80.3790 165.184   3
  -1  -4  11 160.112 209.871  17
   1   4 -11 204.698 192.887  11
  -1   4 -11 113.547 119.190  18
   4  -1  11 47.0710 121.982   8
   1  -4  11 18.4857 79.5702   2
   1  -4  11 52.5933 52.2561  14
   1   4 -11 30.6655 48.4050  18
   4   1 -11-35.9770 49.6295   1
   1  -4  11 110.640 104.820   6
   4   1 -11 11.8042 46.8315  14
  -1   4 -11-19.9401 52.8476  19
   1  -4  11 73.8177 52.9379   8
   4  -1  11 60.2475 96.9554   6
   4  -1  11-123.145 275.766  14
   4   1 -11-163.412 292.257  10
   4   1 -11-101.297 209.597   9
   1   4 -11 32.6725 25.7949  12
  -1   4 -11 154.597 243.002  13
  -4  -1  11 23.7798 41.9479   5
  -1  -4  11 30.3239 143.406  16
   4  -1  11 72.3234 133.575  16
  -1  -4  11 110.794 131.677   6
  -4  -1  11 61.2416 138.313  16
   4  -1  11-16.4085 104.078   2
  -4  -1  11 128.390 178.801   2
  -1  -4  11-7.41008 111.720   2
   1   4 -11 209.898 317.248  15
  -1   4 -11-35.2804 104.022   4
   1   4 -11 107.860 223.501  13
   1  -4  11 64.8843 112.220  16
  -1   4 -12-28.5714 108.456  18
   1   4 -12 547.824 432.829   7
   4   1 -12 11.9245 35.8082  14
   1  -4  12 56.6844 12.9774   8
   1   4 -12 760.115 505.344  20
  -1   4 -12 251.244 205.825   3
   1  -4  12 77.5406 43.6158   6
   1  -4  12-22.6237 143.207  16
   4   1 -12 47.1182 97.5834   1
   1   4 -12 311.543 327.819  15
  -1  -4  12 148.298 230.659  16
  -1   4 -12 11.2765 49.9523  19
   1   4 -12 438.716 271.933  12
   4  -1  12 21.0424 40.9355   8
   1   4 -12 845.581 357.685  11
   4   1 -12-15.8002 51.4171  18
  -1   4 -12 215.768 136.891  11
  -4  -1  12 110.514 174.547  17
  -1   4 -12 233.743 297.591  15
  -4  -1  12 78.9871 142.302  16
   4   1 -12-418.983 424.461  10
  -1  -4  12 225.225 211.260  17
   1  -4  12 243.309 158.023  17
  -1  -4  12 224.703 255.745   2
   1   4 -12 241.746 210.465  18
   1   4 -12-23.0547 61.4560   1
   4   1 -12-304.134 363.469   9
   4  -1  12 51.6726 46.7988   2
  -4  -1  12 10.1263 112.819   5
   1   4 -12 303.906 266.626   3
   4   1 -12-30.9755 97.5556  11
  -1  -4  12 243.651 206.767   6
  -1  -4  12-56.0913 75.8819   8
  -4  -1  12-20.1593 68.5558   2
  -1   4 -12 360.787 457.220  20
   1  -4  12 134.209 151.026   2
   4  -1  12 165.515 191.504   6
   4  -1  12 19.4236 90.9858  16
  -1   4 -12 400.126 275.429  12
   1  -4  12 64.3607 29.3866  14
   4  -1  13 14.6486 118.433   2
  -1  -4  13 501.938 366.639  16
   4   1 -13-14.4212 86.4281  18
  -4  -1  13-109.575 174.429   5
   1   4 -13 534.667 447.461  15
   1  -4  13 1741.73 738.579   2
   1   4 -13 1413.71 398.142  18
   1   4 -13 2237.60 602.220  11
  -4  -1  13-59.8611 117.819  17
  -1  -4  13 1756.08 567.832  17
   1  -4  13 77.2216 341.602  14
   4   1 -13-567.312 524.191   9
   4  -1  13 82.1177 20.4480   8
   1   4 -13 251.006 304.460   1
  -1  -4  13 223.334 218.715   2
  -4  -1  13-18.6078 112.736   2
   4   1 -13-32.2224 122.803  11
   4   1 -13-32.4772 52.3959  14
  -1  -4  13 708.506 381.219   6
  -1   4 -13 2413.22 1011.82   7
   4  -1  13 48.6651 123.873   6
  -4  -1  13 143.017 211.680  16
   4   1 -13-17.3118 45.5155   1
  -1   4 -13 1272.38 702.482  15
   1   4 -13 807.507 532.333   7
   4  -1  13 46.6126 69.5421  16
   4  -1  14 480.563 166.706   2
   1   4 -14-10.8238 273.471   7
   4  -1  14 206.730 153.700   8
   1   4 -14 829.415 339.925  11
   4   1 -14 138.522 118.528  11
  -1  -4  14 574.062 318.947  16
  -1  -4  14 639.692 336.208   2
   1  -4  14-109.452 141.780  14
  -1   4 -14 679.892 255.979  11
   1  -4  14 523.902 263.106   6
   1   4 -14-798.928 433.540  15
  -1   4 -14 632.282 387.721  10
  -1   4 -14 582.052 420.478  20
  -1   4 -14 482.650 380.439  15
  -1  -4  14 602.876 132.925   8
   4   1 -14 149.531 84.0615  14
  -1   4 -14 517.394 130.026  19
   1  -4  14 924.109 394.515   2
   1   4 -14 421.207 281.803  20
   4  -1  14 692.354 387.159  16
   1  -4  14 700.710 194.032   8
   1   4 -14 93.0030 79.2678   1
  -1  -4  14 346.662 295.176   6
   4   1 -14 145.478 133.542  18
  -1  -4  14 946.444 358.410  17
   1   4 -14 569.844 338.241  10
   4   1 -14 177.753 156.957   1
   4   1 -14-589.444 573.216   9
  -4  -1  14 511.152 306.740  17
  -1   4 -14 386.276 355.572   7
  -1   4 -14 584.313 205.726  18
   1  -4  14 487.422 298.435  16
  -4  -1  14 382.706 283.193  16
  -4  -1  14 501.881 290.644   2
   4  -1  14 260.235 283.699   6
   1  -4  14 960.712 307.001  17
   1   4 -14 493.786 214.799  18
   1  -4  15 154.121 184.925   6
  -1   4 -15 58.3929 104.523  18
   4   1 -15 6.10343 28.0266  14
   1  -4  15 63.7786 30.7985  17
   4  -1  15-134.581 232.051   8
   4  -1  15 99.7569 136.711   2
   1   4 -15 504.065 460.871   9
  -1  -4  15-179.097 228.598   6
   1   4 -15 10.9757 70.0114  18
   1   4 -15 7.34915 21.1237   1
  -1   4 -15-499.516 392.440   7
   4  -1  15-144.967 345.726   6
  -1  -4  15 209.980 205.946   2
   4   1 -15-60.4063 78.5909   1
  -1   4 -15 66.8848 47.9679  19
  -1   4 -15 141.072 171.261  11
  -1   4 -15-402.969 475.676  15
   4   1 -15-76.8685 137.001  18
  -4  -1  15 12.7525 118.629  16
   4   1 -15-37.5959 140.116  11
  -4  -1  15 205.706 243.688   2
  -1   4 -15 176.403 257.001  10
  -1  -4  15 163.819 187.192  16
  -1  -4  15 58.3814 30.5161   8
   1  -4  15 149.256 273.754   2
  -1  -4  15 122.221 152.648  17
  -1   4 -15 13.0714 47.6346  20
   4  -1  15 245.437 328.515  16
   1  -4  15 95.5050 95.9512   8
  -4  -1  15-33.3944 153.547  17
   1  -4  15 220.420 245.218  16
  -1   4 -15 699.762 559.520   9
   1   4 -15 31.9882 216.582  10
   1   4 -15 289.165 246.485  20
   1   4 -15 106.207 126.907  11
  -1   4 -16 223.146 296.658  20
  -1   4 -16 402.817 265.160  10
   1  -4  16 783.632 298.103  17
   1   4 -16 424.667 354.418  10
  -1  -4  16 232.253 205.427   6
  -1  -4  16 486.374 141.089   8
  -1   4 -16 370.501 131.100  19
   1  -4  16 863.715 414.053   2
   4   1 -16 99.6604 100.694   1
  -1   4 -16 729.879 452.406   9
  -1   4 -16 628.510 279.600  11
  -1  -4  16 632.514 401.273   2
   1   4 -16 113.766 117.054   1
   4   1 -16 120.361 95.9285  14
   4   1 -16-22.1675 189.887  18
   4  -1  16 386.227 318.601  16
  -1   4 -16 386.068 194.625  18
   1   4 -16 458.509 250.437  11
  -1  -4  16 689.397 316.941  17
  -4  -1  16 597.480 327.424  17
   1  -4  16 732.628 223.349   8
   4  -1  16 83.2894 176.931   8
  -1   4 -16-250.268 590.874   7
   1  -4  16 689.782 371.106  16
   1   4 -16 393.662 343.262  20
   4   1 -16 36.9748 92.5732  11
  -1  -4  16 698.594 388.751  16
  -4  -1  16 465.856 292.327  16
   1   4 -16 592.571 255.713  18
  -4  -1  16 666.814 322.799   2
   1   4 -16 894.059 617.344   9
  -1   4 -16-464.441 677.020  15
   1  -4  16 424.429 314.658   6
   4  -1  16 669.247 251.673   2
  -1   4 -17 437.007 162.978  19
  -1  -4  17 500.938 385.328  16
   4  -1  17 445.609 366.832  16
  -1   4 -17 241.392 197.537  18
  -1  -4  17 513.558 302.900  17
   1   4 -17 271.080 296.164  10
  -1  -4  17 536.545 151.258   8
  -1  -4  17 401.420 305.392   2
  -1   4 -17 294.289 357.617   9
  -1   4 -17 440.131 281.584  11
   1   4 -17 295.235 179.045  18
   1  -4  17 748.022 442.280   2
   4  -1  17 88.9291 184.278   8
   1   4 -17 103.209 24.1953  11
   1  -4  17 759.189 349.342  17
   1  -4  17 580.698 226.722   8
  -4  -1  17-7.05373 200.005  17
   1  -4  17 809.458 443.820  16
   4  -1  17 433.017 215.699   2
  -1   4 -17 991.162 683.346  20
  -4  -1  17 341.486 291.897  16
   1  -4  17 517.277 396.555   6
   1   4 -17 32.0327 43.5607  20
  -4  -1  17 631.537 353.978   2
  -1   4 -17 396.485 353.109  10
   1   4 -17 104.374 179.050   9
  -1  -4  17 3.92110 82.4730   6
   4   1 -17-473.419 289.629  11
   1   4 -17 57.9656 72.5034   1
   4   1 -17 59.4297 149.626   1
   1   4 -18 163.502 103.589   1
  -1   4 -18 556.521 496.999  20
  -4  -1  18 782.007 446.610  16
   4   1 -18 140.426 186.482   1
   1  -4  18 729.094 489.985  16
  -1   4 -18 281.623 191.648  18
   1   4 -18 735.584 503.560   9
  -1  -4  18 796.204 199.585   8
   1  -4  18 1104.78 517.208   2
   1   4 -18 358.213 470.438  20
  -1   4 -18 645.986 313.567  11
  -4  -1  18-114.144 359.006  17
   1  -4  18 822.270 372.808  17
  -1  -4  18 769.621 421.487   2
   4  -1  18 640.961 289.378   2
   1  -4  18 977.270 329.982   8
   4  -1  18 25.2162 266.548   8
  -1  -4  18 966.196 399.993  17
   1   4 -18 697.897 303.893  11
  -1  -4  18 1059.86 506.327  16
   1   4 -18 618.427 350.541  10
   1   4 -18 516.186 285.148  18
  -1   4 -18 824.358 536.755   9
  -1   4 -18 541.270 378.399  10
   4  -1  18 574.716 464.548  16
  -4  -1  18 600.939 356.341   2
  -1  -4  18 66.2150 158.673   6
   1  -4  18 495.881 272.904   6
   1  -4  19 1814.12 731.076  16
   1   4 -19 334.902 452.083  20
  -4  -1  19 1620.64 652.648  16
  -1   4 -19 385.266 483.061  20
   1  -4  19 2244.86 448.444   8
   1   4 -19 743.087 481.245   9
   4  -1  19 405.857 210.178   8
  -1   4 -19 931.879 379.546  11
  -4  -1  19 2220.40 700.558   2
  -1  -4  19 2169.52 706.164   2
  -1  -4  19 2366.02 710.609  17
   1  -4  19 2034.92 670.217   2
   1   4 -19 806.574 329.419  18
  -1   4 -19 666.551 165.897  10
  -1   4 -19 722.599 492.655   9
   1  -4  19 958.149 476.547   6
   1  -4  19 1993.26 569.197  17
   4  -1  19 1504.87 469.345   2
   1   4 -19 704.177 372.877  11
  -1  -4  19 1871.61 728.676  16
   4  -1  19 1614.20 622.922  16
  -1   4 -19 280.883 161.524  18
   1   4 -19 735.638 296.605  10
  -1  -4  19-243.844 398.914   6
  -1  -4  20 255.054 271.266  17
  -1  -4  20 475.855 312.049  16
   1   4 -20 123.061 233.213  10
  -1   4 -20-166.054 152.335   9
   1  -4  20 399.580 448.398   2
  -1   4 -20-142.756 277.825  18
   1   4 -20 96.4582 166.284  18
   1  -4  20 306.465 334.863   6
   1   4 -20 162.415 203.742  11
   4  -1  20-302.907 481.626   8
   1  -4  20 331.737 240.986   8
  -1   4 -20-108.699 230.614  20
  -1  -4  20-645.976 735.262   6
  -1   4 -20 393.796 286.415  11
   1  -4  20 36.9380 53.2291  17
  -1  -4  20 411.754 419.518   2
   1  -4  20 424.771 397.949  16
   1   4 -20 194.926 172.715   9
  -4  -1  20 262.872 355.896   2
   4  -1  20 161.136 274.458  16
   1   4 -20-516.414 432.377  20
  -1   4 -20 239.295 382.846  10
   4   2   0 104.305 122.850   1
   4  -2   0 148.868 105.948   8
   4  -2   0 55.8708 67.9636   6
   4  -2   0 201.411 122.225  14
   4   2   0-31.2513 145.390  14
   4  -2   0 81.1085 30.5992   1
  -4   2   0 207.391 120.508  19
  -4  -2   1 213.003 159.454  17
   4  -2   1 1447.89 333.227   6
   4  -2   1 1141.32 287.657   8
   4  -2   1 1011.28 258.206   1
   4  -2   1 1400.97 322.647  14
   4   2  -1 1306.20 415.208   1
   4  -2  -1 764.065 241.609  14
   4   2   1-108.167 194.212  14
  -4   2   1 1405.39 323.282  19
   4   2  -1 1121.88 309.419  18
   4   2   1 294.638 216.217   1
  -4   2  -1 1546.77 333.319  19
  -4   2  -1 1394.82 281.037   5
  -4   2  -1 1033.25 269.727  12
   4  -2  -1 419.536 163.117   8
   4   2  -1 9.13468 89.6433  14
   4   2  -2 350.364 158.000  13
   4   2   2-92.4633 272.494   1
   4   2  -2 347.228 183.436  18
   4  -2  -2 122.494 90.6785  14
  -4   2  -2 472.257 186.518   4
  -4   2  -2 227.651 130.615   3
   4  -2   2 396.104 175.599   8
   4   2  -2 271.731 137.701   8
  -4   2  -2 465.076 209.249  19
   4  -2   2 589.292 216.587   6
  -4   2  -2 447.255 161.286   5
   4  -2   2 497.061 197.326  14
   4   2  -2 352.830 214.984   1
  -4   2  -2 368.390 166.524  12
  -4  -2   2 28.1462 80.0131  19
   4  -2   2 359.062 160.196   1
  -4  -2   2 265.594 206.238  17
   4   2  -2 74.2898 92.8046  14
   4   2  -3 1462.39 302.576   8
  -4  -2   3 738.756 268.040  19
   4  -2   3 1936.14 381.342  14
  -4   2  -3 1731.80 360.924  12
   4   2  -3 1942.67 359.740  13
  -4  -2   3 861.335 299.359   5
  -4   2  -3 1526.41 332.521   3
  -4  -2   3 1446.04 416.294   2
   4  -2   3 1965.63 376.829   8
   4   2  -3 1728.46 395.662  18
  -4   2  -3 1822.21 356.710  19
  -4  -2   3 1240.12 398.329  17
  -4   2  -3 1871.63 331.937   5
   4   2  -3 331.146 174.501  14
  -4   2  -3 1878.79 363.219   4
   4  -2   3 2445.24 458.450   6
   4  -2   3 1682.75 303.648   1
   4   2  -3 1675.92 431.261   1
   4  -2   4 1670.14 355.756  14
   4  -2   4 1428.39 335.314   8
  -4   2  -4 1355.60 313.196   3
   4   2  -4 1433.08 352.200  18
   4  -2   4 1188.64 336.539  16
  -4   2  -4 1482.26 349.244  12
   2   4  -4 823.943 327.380  13
  -2   4  -4 1067.27 332.955   3
  -4  -2   4 1297.14 378.962   2
   4   2  -4 1672.59 337.107  13
  -4   2  -4 1582.19 350.562   4
  -4   2  -4 1507.50 308.772   5
  -4  -2   4 408.877 163.369   4
   2  -4   4 329.129 172.961   6
   4   2  -4 1581.25 271.700   8
   4  -2   4 2059.24 438.311   6
   4  -2   4 1521.61 290.318   1
   4   2  -4 1513.49 402.725   1
  -2   4  -4 1123.34 306.688  12
  -4  -2   4 1215.67 403.104  17
  -4  -2   4 897.894 305.296   5
  -4   2  -4 1623.86 363.520  19
  -4  -2   4 1090.48 284.944  19
  -4  -2   4 738.470 197.587  16
  -4   2  -4 22.6625 60.5160  13
   4   2  -4 456.178 194.724  14
   4   2  -4 694.171 148.532   3
   4  -2   5 85.3631 88.0640  14
  -4   2  -5 14.0262 6.50438  19
  -4  -2   5 20.3609 78.9554  19
  -2   4  -5-27.4061 88.9583  13
   4   2  -5 23.1563 20.9182   3
   2   4  -5 57.7686 103.824  13
   4  -2   5 56.2494 72.3647   6
  -2   4  -5-11.9684 32.8011  12
  -4   2  -5 10.8405 42.7612   5
   4  -2   5 58.0359 114.361  16
  -4  -2   5 1.62997 15.0116   5
  -4  -2   5 33.0403 105.180  17
   2   4  -5-4.50501 80.4535   3
   4  -2   5-10.6661 31.3919   1
  -4  -2   5 17.9590 33.1503   4
  -4   2  -5-18.1301 29.2126  13
  -4   2  -5 28.8368 61.2475   3
   4   2  -5 54.3306 57.2601  18
  -4   2  -5 34.4233 64.7182   4
  -4  -2   5-22.0768 45.5147  16
  -4  -2   5 83.6821 108.050   2
   2  -4   5 33.5486 87.0423   6
   4  -2   5 68.6755 100.603   8
  -4   2  -5 1.45377 116.535  12
  -2   4  -5-27.2146 70.6258   3
   4   2  -5 12.0774 45.7497   8
  -2  -4   5-17.6212 115.013  17
   4   2  -5 12.0172 61.9991  14
   4   2  -5 16.7265 100.354   1
  -4   2  -6 3896.62 611.026   4
   4   2  -6 3720.75 614.070   1
   4  -2   6 4937.78 643.615  14
  -4   2  -6 2201.69 371.901  13
  -2   4  -6 1817.55 471.413  13
   4   2  -6 5039.77 731.227  11
  -2   4  -6 3674.96 566.712  12
   2  -4   6 1083.60 272.708   8
   4  -2   6 4697.92 531.051   1
  -4   2  -6 3672.22 534.227   5
  -4  -2   6 3423.30 573.519   5
  -4  -2   6 4243.92 699.563   2
   4  -2   6 4382.42 689.440  16
  -2  -4   6 1190.69 481.866  17
   4   2  -6 3777.47 355.425   8
   2   4  -6 2889.99 596.782  18
   4  -2   6 4376.14 607.319   8
  -4  -2   6 3818.18 727.436  17
   4  -2   6 5860.70 805.525   6
   4   2  -6 4184.46 618.741  18
  -4  -2   6 3600.03 511.661  16
  -4  -2   6 4188.58 480.472  19
   4   2  -6 1235.00 312.595  14
   4   2  -6 4330.62 673.222  20
  -2  -4   6 1310.85 311.858   6
  -4  -2   6 2586.42 400.954   4
   2   4  -6 4243.38 712.328  13
   2   4  -6 4067.51 579.711   3
  -2   4  -6 4473.20 682.101   3
   2  -4   6 3184.19 599.577   6
   4   2  -6 4363.42 415.315   3
  -4   2  -6 3604.57 556.711  19
   4  -2   7 184.340 107.359   2
   4   2  -7 295.747 159.414  20
  -4  -2   7 361.305 260.511  17
   4   2  -7 98.1692 20.5253   8
  -4   2  -7 259.360 125.824  19
   2   4  -7 332.675 184.320  13
  -2   4  -7 258.609 152.912   3
   4  -2   7 483.666 230.037   8
  -2   4  -7 178.658 153.560  13
   4  -2   7 392.388 232.410  16
   2  -4   7 288.944 177.553   6
  -4   2  -7 65.2978 23.7343  11
   2   4  -7-42.0737 181.734   1
  -2  -4   7 205.709 132.477   6
  -4  -2   7 310.652 177.051   5
   4  -2   7 225.880 128.380   1
   2   4  -7 366.938 170.354   3
  -4  -2   7 313.290 123.700  19
  -2   4  -7 406.847 196.393  12
  -4  -2   7 338.238 168.616  16
   2   4  -7 242.626 107.860  12
  -2  -4   7 139.487 80.6119  17
   2   4  -7 279.887 198.369  18
  -4   2  -7 435.256 294.205  20
  -2  -4   7 76.7460 27.4312  16
   2  -4   7 98.3399 129.428  16
   4  -2   7 500.233 251.070   6
   2  -4   7 138.195 90.8585   8
  -4  -2   7 329.680 189.614   2
   4   2  -7 87.8140 65.4155  14
   4   2  -7 313.310 182.533  18
  -4   2  -7 250.649 161.678   5
   2  -4   7 217.586 94.6044  14
  -4   2  -7 179.825 133.604   4
   4   2  -7 508.206 272.461  10
   4   2  -7 485.571 260.930  11
  -4  -2   7 257.427 128.555   4
   4   2  -7 275.329 170.795   1
   4  -2   7 417.296 190.618  14
   2   4  -8 2151.06 353.340  12
   4   2  -8 1919.33 457.846   1
   4   2  -8 1596.06 463.340  20
   2   4  -8 2477.38 551.058  13
  -2  -4   8 1607.47 531.886   2
  -2   4  -8 2586.85 495.040  12
   4  -2   8 2713.68 512.162   8
   2  -4   8 2391.08 481.010  17
   4  -2   8 95.3649 93.4445   1
  -4   2  -8 2059.23 434.184  10
   4   2  -8 2605.45 571.706  11
  -2  -4   8 1589.55 468.707  16
  -2   4  -8 2290.79 500.660   3
  -4   2  -8 2662.02 476.988   9
  -4  -2   8 2520.63 588.361   2
  -2   4  -8 1311.62 269.969  19
  -4  -2   8 1777.38 294.974  19
   2  -4   8 1658.38 333.527   8
   4  -2   8 2977.21 556.055  14
  -2  -4   8 1790.08 379.906   6
   2   4  -8 2510.83 522.201  18
  -4   2  -8 2173.41 519.796  20
  -2   4  -8 1942.64 351.062  18
  -2  -4   8 1829.68 557.865  17
   4  -2   8 3278.81 654.991   6
  -4  -2   8 2844.43 645.316  17
  -4   2  -8 1231.75 378.185   4
   4   2  -8 2624.56 517.696  18
   2  -4   8 2114.64 351.615  14
   2   4  -8 2701.97 481.124   3
  -4   2  -8 2669.24 697.017  15
  -4  -2   8 2278.90 457.556   5
   2  -4   8 1920.21 559.182  16
  -4  -2   8 2292.87 340.254   4
   4  -2   8 2725.75 599.344  16
  -4   2  -8 1700.39 395.659  19
   4  -2   8 2971.46 408.797   2
  -4   2  -8 2592.72 742.400   7
  -4  -2   8 2227.34 453.561  16
  -2   4  -8 1727.44 455.295  13
  -2   4  -8 2410.46 362.004   4
   2  -4   8 2437.98 555.015   6
   4  -2   9 349.238 204.893  14
  -4   2  -9 210.104 157.949  10
   4   2  -9 351.604 234.956  10
  -2   4  -9 255.376 99.1634  19
   4   2  -9 266.160 167.694   1
  -2   4  -9 310.898 205.646  13
   2   4  -9 374.159 184.818   3
  -2   4  -9 325.495 188.279   3
  -2   4  -9 293.420 109.395  12
   2   4  -9 268.237 136.420  12
   4   2  -9 214.086 209.719  20
  -4   2  -9 172.213 175.766  20
   4   2  -9 308.366 163.748  18
   4  -2   9 388.011 215.160   6
   4  -2   9 288.914 185.148   8
   2  -4   9 331.246 253.112  16
  -4  -2   9 339.413 193.672  17
   4   2  -9 315.149 186.333  11
  -4   2  -9 129.764 9.75590  19
  -4   2  -9 310.586 269.674  15
   4   2  -9 143.527 101.556  14
  -4   2  -9 5.45741 191.811   4
  -4   2  -9 550.494 401.595   7
  -2  -4   9 346.151 248.190   2
  -2  -4   9 301.479 265.346  17
  -4  -2   9 350.448 189.749   5
  -2   4  -9 295.931 129.892  18
   2   4  -9 66.6251 108.568   1
  -2   4  -9 468.256 167.191   4
   2   4  -9 331.620 178.203  13
   2  -4   9 418.513 229.713   6
  -4  -2   9 202.740 147.236  16
   2  -4   9 331.210 127.617   8
   4  -2   9 468.560 174.815   2
   4   2  -9 830.922 441.787   9
  -2  -4   9 144.096 125.779  16
  -4  -2   9 453.719 257.890   2
  -4  -2   9 288.587 113.680   4
   2   4  -9 387.615 192.827  18
   4  -2   9 273.329 196.937  16
  -2  -4   9 249.104 168.446   6
   2  -4   9 328.274 138.308  14
  -4   2  -9 223.785 140.892   9
   2  -4   9 445.266 199.961  17
   4   2 -10 573.376 262.604  18
  -2  -4  10 688.033 330.709  16
   2   4 -10 643.638 255.911  18
   4  -2  10 712.998 271.119   8
   2   4 -10 98.9260 79.4257   1
   2  -4  10 1186.94 295.211  17
   4   2 -10 494.140 271.273   9
  -2   4 -10 596.146 258.370  13
  -2  -4  10 759.268 350.420  17
  -2   4 -10 501.922 243.090   3
  -2   4 -10 734.671 181.247  19
   4   2 -10 480.757 291.559  10
  -4  -2  10 648.767 309.471   2
  -4   2 -10 360.756 216.442  10
   2   4 -10 688.701 323.714  13
  -4   2 -10 390.608 184.724   9
  -4   2 -10 387.636 203.200  19
   4  -2  10 699.540 311.515  16
  -4   2 -10 460.890 312.073   7
   2   4 -10 654.041 193.454  12
   2  -4  10 683.371 330.621  16
  -2  -4  10 363.187 194.977   6
  -2   4 -10 658.667 207.391   4
  -2  -4  10 485.326 313.920   2
  -2   4 -10 741.008 282.379  12
   2  -4  10 584.637 197.058   8
  -4  -2  10 954.969 390.824  17
   2  -4  10 832.231 210.191  14
   4  -2  10 940.069 384.990   6
  -4  -2  10 686.594 244.857   5
  -4  -2  10 720.284 176.152   4
   2   4 -10 772.720 272.690   3
   4   2 -10 206.504 135.803  20
  -4  -2  10 578.852 259.101  16
   4   2 -10 596.112 234.979  11
  -4   2 -10 677.173 343.968  20
   4  -2  10 989.094 254.046   2
  -4   2 -10 320.397 242.810  15
   4  -2  10 513.495 242.218  14
   4   2 -10 479.887 218.467   1
   4   2 -10 238.345 116.063  14
   2  -4  10 913.555 375.812   6
  -2   4 -10 726.521 190.227  18
  -2  -4  11 715.711 290.063   6
  -4  -2  11 1019.40 305.397   5
   2   4 -11 1637.03 475.231  11
   4   2 -11 807.249 300.825   1
  -4   2 -11 616.577 328.990  20
   2  -4  11 1784.01 318.446  14
   4  -2  11 1192.12 349.068   8
  -4   2 -11 457.376 244.344  10
  -2  -4  11 1210.31 496.289   2
  -2   4 -11 990.387 354.793   3
  -2   4 -11 755.553 238.343   4
   4   2 -11 871.060 354.746   9
  -2  -4  11 1092.15 431.234  16
   4  -2  11 1413.50 329.821   2
   2  -4  11 1162.25 427.424   2
   4   2 -11 226.294 127.634  20
  -2   4 -11 1519.12 328.107  11
  -4   2 -11 442.309 242.618  19
   2   4 -11 1307.16 548.287   7
  -4   2 -11 335.550 110.281  15
   2   4 -11 358.203 236.198   1
  -2  -4  11 1298.31 502.465  17
   2  -4  11 1396.43 300.345   8
   4   2 -11 602.511 341.258  10
  -4   2 -11 439.940 204.355   9
   2   4 -11 1304.80 304.943  12
   4   2 -11 902.739 323.764  18
   2  -4  11 1770.49 374.783  17
   4   2 -11 387.591 142.889  14
  -4  -2  11 1126.56 211.465   4
   4  -2  11 1279.23 476.702   6
   4  -2  11 1168.90 432.538  16
  -4  -2  11 1077.06 411.506   2
  -2   4 -11 1301.79 255.481  18
   2   4 -11 1319.43 390.501  18
   2  -4  11 1477.23 502.352  16
  -4  -2  11 883.646 337.334  16
   2   4 -11 1129.27 450.672  15
  -4   2 -11 407.104 235.604   7
  -2   4 -11 810.673 319.494  13
   2  -4  11 1735.77 521.031   6
   2   4 -11 1363.70 480.891  13
   2   4 -11 1134.52 368.225   3
   4   2 -11 945.185 357.144  11
  -2   4 -11 1160.26 358.050  12
  -4  -2  11 1242.31 466.791  17
   4  -2  11 1062.91 379.430  14
  -2  -4  12-94.8151 374.200   6
  -2   4 -12 502.703 921.675  15
  -4  -2  12 52.4989 282.260  17
   4   2 -12-18.3867 105.963   1
   4   2 -12 66.9277 190.978  11
  -4  -2  12 40.2141 131.871  16
   2   4 -12 40.3059 249.597   3
   2   4 -12 11.3796 254.561  12
   2   4 -12-99.6169 210.778   7
   2   4 -12 279.431 411.767  11
   4  -2  12-121.510 144.374  16
  -4  -2  12 7.50122 91.9490   5
  -4   2 -12 29.1326 154.273  19
  -4   2 -12-67.2206 155.701   9
   2   4 -12 11.0391 186.680  18
   2   4 -12-182.522 158.577   1
   4   2 -12-61.3726 100.779  18
   2  -4  12 15.0577 643.932  16
   2   4 -12 369.689 640.939  20
   2   4 -12 13.6568 177.484  15
   4   2 -12-125.540 102.507  10
  -2  -4  12 88.8213 281.025   2
  -4  -2  12-25.8565 74.1105   2
   4   2 -12-30.0346 189.340   9
   4   2 -12-191.610 316.523  20
  -2  -4  12 76.5531 265.869  16
  -2  -4  12 41.5053 343.818  17
   4  -2  12-24.1190 154.646   8
   4  -2  12-99.0435 160.192   6
  -4   2 -12-77.7916 56.5722  10
   4   2 -12-27.2176 50.4433  14
   4  -2  12-73.2258 127.891  14
  -4   2 -12-82.7684 141.629  20
   4  -2  12 41.9888 86.5899   2
  -4  -2  12-53.6951 68.5170   4
   4   2 -13 91.4747 85.2530  10
   2   4 -13 1228.98 658.411  10
   2   4 -13 921.046 332.732  11
  -2  -4  13 872.150 442.490  17
   4   2 -13 290.844 137.651  11
   2   4 -13 493.025 263.514   3
   2  -4  13 1545.56 715.277  16
   2  -4  13 1744.97 668.246   2
  -4   2 -13 30.7682 205.928   9
  -4  -2  13 865.728 379.524   2
   4   2 -13-41.7363 172.732   9
  -2  -4  13 612.502 325.990  16
   2   4 -13 439.546 263.458  18
  -4   2 -13 80.8850 104.570  10
  -4  -2  13 580.902 227.283   5
   4  -2  13 524.268 275.201   8
  -2   4 -13 2182.14 976.874   7
   4  -2  13 632.849 353.043   6
   4   2 -13 119.242 68.6612  14
   2  -4  13 2490.68 710.923   6
   2   4 -13-120.874 240.612   7
  -2  -4  13 639.316 393.297   2
   2   4 -13 744.107 468.143  20
  -4   2 -13-10.8206 105.728  19
   4  -2  13 587.385 369.849  16
  -4  -2  13 570.501 320.951  17
  -2   4 -13 2086.78 954.777  15
   4  -2  13 672.002 250.789   2
  -4   2 -13 54.7373 187.834  20
  -4  -2  13 436.355 233.504  16
   2   4 -13-262.963 345.432  15
   4  -2  13 160.851 83.3910  14
  -2   4 -13 2506.27 923.130  20
   4   2 -13 173.146 121.133   1
   2   4 -13 268.579 146.103   1
   2   4 -13 748.995 281.676  12
  -2  -4  13 275.665 250.316   6
   4   2 -13 245.309 159.729  18
  -2   4 -14-11.8497 157.500  20
  -4  -2  14-70.7550 141.892  17
  -2   4 -14-78.2419 78.0835  19
   4   2 -14-4.29547 43.2489   1
   4   2 -14-162.833 211.994  10
   2   4 -14 34.6869 25.5456  18
  -4   2 -14-279.031 349.609   9
   2   4 -14 274.291 309.052  10
  -2  -4  14 130.126 57.2275   2
  -4   2 -14-17.0045 88.2748  10
   4  -2  14-247.704 382.448  14
   2  -4  14 121.154 165.710   2
   4   2 -14 72.0028 128.923  18
  -4  -2  14 12.7019 31.5604   2
   2  -4  14 35.6934 115.187  16
   4   2 -14-218.300 284.829   9
   4  -2  14 294.174 236.949  16
  -4  -2  14 95.1274 180.121  16
  -2   4 -14-35.5835 116.595  15
  -2   4 -14 50.9291 58.9121  18
   4   2 -14-154.753 243.710  11
   4  -2  14 72.1784 99.0360   8
   2   4 -14 15.3637 90.1573   1
  -4   2 -14-334.089 347.395  20
   2  -4  14 15.8002 45.4442   6
   4  -2  14-19.2138 100.503   2
   2  -4  14-53.3124 112.083  17
  -2  -4  14 191.419 211.338  17
  -2   4 -14-26.1554 16.6452  11
  -2  -4  14 26.2137 50.7061  16
  -4   2 -14-41.0481 75.2726  19
  -2   4 -14 53.8429 211.333  10
   2   4 -14 151.689 182.863  11
  -2   4 -14-23.0055 146.406   7
  -4  -2  14-8.30999 67.3524   5
   2   4 -14-115.473 280.013  20
   2  -4  14-12.2072 41.0671   8
   2  -4  14-38.7365 79.9383  14
   4   2 -14-26.3369 39.4183  14
   4  -2  14-53.0724 79.6153   6
  -2  -4  14-46.2873 120.927   6
   4   2 -15 152.170 79.3373  14
   2  -4  15 1106.19 441.538   6
   2  -4  15 39.3179 109.412  14
  -2   4 -15 688.086 381.444  10
  -4   2 -15 14.1526 170.823  10
  -4   2 -15-25.6047 261.125  20
  -2   4 -15 369.486 327.585  20
   4  -2  15 1035.66 510.147   6
   2   4 -15 767.359 338.595  11
  -4  -2  15 898.148 289.190   5
   2  -4  15 994.219 410.924   2
  -4   2 -15 72.5672 185.751  19
  -2   4 -15 840.663 286.761  11
  -4  -2  15 1013.33 414.655  17
   4   2 -15 213.008 279.939   9
   2   4 -15 650.798 320.105  10
   4   2 -15 43.0948 35.8711  10
   2   4 -15 2074.88 761.418   9
   2   4 -15 314.490 199.031   1
  -2  -4  15 995.927 424.560  17
  -2  -4  15 926.247 404.884  16
   4   2 -15 399.097 240.672  11
  -2  -4  15 924.561 465.469   2
   4  -2  15 732.053 341.460   8
   4   2 -15 318.773 198.958   1
  -4  -2  15 796.232 411.214   2
  -2   4 -15 1375.59 632.140   9
   4   2 -15 542.468 283.872  18
  -2   4 -15 538.355 173.571  19
   2   4 -15 686.206 464.780  20
   2  -4  15 1173.10 333.359  17
   2  -4  15 1188.78 296.589   8
  -2   4 -15 456.501 187.887  18
   4  -2  15 1030.47 347.936   2
   2  -4  15 823.068 403.887  16
  -2   4 -15 580.011 466.061   7
   4  -2  15 833.978 487.529  16
  -4  -2  15 606.568 293.055  16
  -2   4 -15 518.927 288.545  15
   2   4 -15 655.397 294.023  18
  -2  -4  15 48.9474 69.6891   6
   4   2 -16 43.8317 62.3730  14
   4   2 -16 33.2023 69.9305  18
  -2   4 -16 207.827 305.375  20
   4   2 -16 61.9859 113.852  11
   4   2 -16 45.6888 132.407   1
   4  -2  16 219.170 313.310  16
   4   2 -16-234.244 358.839   9
  -4  -2  16 10.1462 60.3065  16
  -2   4 -16-714.597 497.310   7
   2  -4  16 70.8383 192.564   6
   2   4 -16 197.404 282.521  10
   2   4 -16 184.799 205.002  11
   4   2 -16-312.683 424.635  10
   2  -4  16 86.7594 140.047   2
   2   4 -16 43.7122 201.115  20
  -2  -4  16 77.0671 155.763   2
  -2  -4  16 20.7288 162.238  17
   2   4 -16 405.915 395.887   9
  -2  -4  16 323.311 332.199  16
  -2   4 -16 110.770 73.6775  19
   2  -4  16-41.4017 35.8974  16
  -2   4 -16-5.62203 62.4536  18
  -4   2 -16-195.331 389.005  10
  -2   4 -16 141.842 190.746  10
   4  -2  16-42.1967 124.997   8
   2   4 -16 98.4200 191.435  18
   2  -4  16 57.4367 89.2783   8
   2  -4  16 43.5557 16.7281  17
  -2  -4  16 15.9973 22.5032   8
  -4  -2  16 206.566 215.811   2
  -4  -2  16 134.866 206.735  17
   4  -2  16 87.4933 108.331   2
   4  -2  16-93.5088 197.772   6
  -4  -2  16 71.8224 92.8213   5
   2   4 -16-22.9210 87.5790   1
  -2   4 -16-648.593 593.179  15
  -2   4 -16 139.202 142.778  11
  -4   2 -16 106.270 104.537  19
  -2  -4  16 98.4030 220.770   6
  -2   4 -16 24.7830 233.626   9
   4   2 -17 109.463 59.7028  14
   2  -4  17 1346.31 604.237  16
  -2   4 -17 753.376 390.223  10
   4  -2  17 1218.22 427.441   8
   4   2 -17-206.451 400.357   9
   2  -4  17 1158.61 372.475  17
   4   2 -17-420.601 565.067  10
  -2   4 -17 664.164 377.694   9
   2   4 -17 807.466 329.955  18
   4  -2  17 1405.39 463.972   2
   2   4 -17 501.094 485.216  20
  -2   4 -17 656.315 207.442  19
  -2   4 -17 439.227 208.624  11
   2   4 -17 949.654 406.328  11
   4  -2  17 1134.44 567.294   6
  -2  -4  17 1235.39 559.743  16
   4   2 -17 359.927 243.318  18
  -4  -2  17 1372.90 350.770   5
  -4  -2  17 1249.01 563.094  17
  -2  -4  17 1538.99 535.768  17
  -2  -4  17 721.970 234.933   5
   4  -2  17 1485.02 608.014  16
  -2   4 -17 273.857 154.895  18
   2  -4  17 1403.05 368.190   8
   2   4 -17 968.772 523.068  10
  -4  -2  17 1214.24 507.499   2
   2   4 -17 738.083 482.022   9
  -4   2 -17 197.963 186.777  19
   2  -4  17 1958.51 624.536   2
   2   4 -17 500.682 226.552   1
  -2  -4  17-147.937 300.734   6
  -2  -4  17 1541.18 599.858   2
  -4  -2  17 855.782 435.977  16
   4   2 -17 367.208 235.207   1
   4   2 -17 327.722 266.220  11
  -2   4 -17 990.546 547.579  20
   2  -4  17 1074.45 564.502   6
   2   4 -18 1413.53 628.262   9
   2  -4  18 1529.60 647.884   6
   4   2 -18 688.631 413.186  11
   2   4 -18 496.290 257.807   1
   4   2 -18 352.286 235.639  18
  -4   2 -18-51.9124 83.1944  19
  -2  -4  18 2180.82 657.696  17
  -2  -4  18 2206.09 748.418   2
  -4  -2  18 2350.14 719.285   2
   4  -2  18 2458.55 596.776   2
  -2   4 -18 716.021 297.444  11
  -2   4 -18 897.287 680.033  20
   2   4 -18 1058.34 532.377  10
   4  -2  18 1907.11 577.748   8
  -2   4 -18 1098.39 516.232  10
  -2   4 -18 177.602 65.7803  18
  -4  -2  18 2781.69 787.824  17
  -4  -2  18 2328.69 477.887   5
   2   4 -18 1303.74 435.389  18
   4   2 -18 409.295 253.600   1
  -2  -4  18-430.079 517.558   6
   2  -4  18 2642.12 517.960   8
   4  -2  18 2292.63 742.942  16
   2  -4  18 2180.58 540.264  17
   2  -4  18 2415.91 774.989  16
   2  -4  18 2906.88 780.498   2
  -2   4 -18 864.785 250.947  19
   2   4 -18 706.153 531.483  20
   4   2 -18-699.507 672.931   9
   2   4 -18 1663.26 541.479  11
   4  -2  18 1333.93 568.308   6
  -2  -4  18 2413.70 728.700  16
  -2   4 -18 1295.83 565.102   9
  -4  -2  18 1596.58 628.520  16
  -2  -4  18 1322.71 322.063   5
  -2  -4  19 1572.59 714.693  17
  -4  -2  19-29.9918 93.7296  16
  -2   4 -19 542.307 533.540   9
  -2  -4  19 1395.60 662.688   2
  -2   4 -19 96.3009 294.129  20
   2  -4  19 727.287 499.388   6
   2   4 -19 450.866 458.249  20
   4  -2  19 890.783 392.410   2
  -2   4 -19 447.821 300.420  11
   4   2 -19 55.7579 125.486   1
  -4  -2  19 701.822 264.685   5
   2  -4  19 853.852 618.159  16
   2  -4  19 347.113 90.1503  17
  -4  -2  19 846.645 452.592   2
   4  -2  19 644.674 427.262   8
   2   4 -19 838.070 481.676   9
   4   2 -19-27.9898 161.842  11
  -2   4 -19 279.431 358.631  10
   4  -2  19 83.1519 395.043   6
   2   4 -19 150.897 170.136   1
   4   2 -19 15.4732 109.033  18
   2  -4  19 882.972 354.890   8
   2   4 -19 531.032 488.545  10
  -4  -2  19 495.137 390.877  17
   2  -4  19 926.271 499.182   2
   2   4 -19 542.693 319.495  18
   2   4 -19 327.377 345.453  11
  -4   2 -19 94.7740 137.263  19
  -2  -4  19 1061.96 678.694  16
   4  -2  19 1034.76 576.617  16
  -2   4 -20 317.488 305.960  20
   2   4 -20 793.107 399.349  11
   2  -4  20 2351.29 721.902   2
   4  -2  20 870.854 297.235   6
  -2   4 -20 400.285 359.142   9
  -4  -2  20 2269.47 465.161   5
   2  -4  20 1812.89 742.165  16
  -2  -4  20 2699.66 752.462  17
   4  -2  20 2438.43 620.065   2
  -2  -4  20 2686.66 835.371   2
  -4  -2  20 2386.97 755.711   2
   2   4 -20 29.9456 146.831  20
   2   4 -20 565.216 448.042   9
  -2   4 -20 172.502 111.810  11
  -4  -2  20 1704.02 665.298  16
  -4  -2  20 2107.89 663.758  17
   4   2 -20 150.669 167.923  11
   2  -4  20 1482.52 613.521   6
   2   4 -20 713.665 333.805  18
  -4   2 -20 266.341 214.637  19
   4  -2  20 2022.38 657.317   8
   2  -4  20 2521.09 547.500   8
   2   4 -20 492.542 404.090  10
  -2   4 -20 789.125 397.181  10
   4   2 -20 312.381 252.475   1
  -2  -4  20 2424.48 816.094  16
   4  -2  20 2377.24 824.483  16
   4  -3   1-15.4583 90.7115  14
  -4   3  -1 28.7162 42.0992  19
   4   3  -1-45.9221 204.975   1
   4  -3   1-23.7434 117.089   8
  -4   3  -2 1066.90 307.528  12
   4  -3   2 784.742 252.033   8
   4   3  -2 534.409 275.680   1
   4  -3   2 731.067 272.477   6
  -4   3  -2 1346.40 316.565  19
   4  -3   2 826.626 262.162  14
  -4  -3   2-83.0560 259.886  17
   4  -3   3 179.136 125.744  14
   4   3  -3 181.604 149.043  13
   4  -3   3 165.216 119.437   6
   3  -4   3-19.0093 167.174   6
  -4   3  -3 174.582 118.545  12
  -3   4  -3 75.9722 40.6943  12
  -4  -3   3-28.9084 132.327  17
   4   3  -3 190.085 197.839   1
   4   3  -3 47.2146 112.618  18
  -4   3  -3 259.591 169.931  19
   4  -3   3 153.948 127.237   8
  -4   3  -3 204.435 138.291   3
   4   3  -4 1041.73 378.856  18
  -4   3  -4 1011.85 288.664  12
   4  -3   4 586.989 175.587   1
   4   3  -4 1078.79 320.799  13
   3  -4   4 349.009 210.828   6
   4   3  -4 802.116 349.024   1
  -4   3  -4 817.408 206.342   5
   4  -3   4 1103.83 335.829   6
  -4  -3   4 452.262 290.481  17
  -4   3  -4 943.489 274.448  19
  -3   4  -4 653.701 262.250   3
  -4   3  -4 930.096 253.581   4
   4  -3   4 802.347 266.302   8
  -3   4  -4 953.113 291.376  12
   3   4  -4 648.591 269.174  13
   3  -4   4 89.0311 118.174   8
   4  -3   4 873.844 268.971  14
  -4   3  -4 846.207 281.052   3
  -3  -4   5 381.580 332.101  17
   3   4  -5 2393.10 546.921  18
   4  -3   5 1514.58 424.958  16
  -4   3  -5 3510.97 451.669   5
   3   4  -5 6.46763 248.894   1
  -4  -3   5 1264.78 319.084  19
  -4   3  -5 3578.58 536.911  19
  -3   4  -5 3351.32 607.461   3
   4  -3   5 4511.77 700.004   6
   3  -4   5 1182.76 273.635  14
   4  -3   5 3478.64 524.467  14
   4  -3   5 3318.94 523.153   8
  -4   3  -5 3666.71 532.239   4
  -4  -3   5 1965.98 598.449  17
   4   3  -5 2562.57 598.289   1
   4   3  -5 4136.97 626.778  13
   3  -4   5 1177.25 311.163   8
  -3   4  -5 3466.22 578.632  12
   4   3  -5 3436.87 628.406  18
  -4   3  -5 3423.13 571.606   3
   3   4  -5 3492.15 657.469  13
   4  -3   5 3111.56 396.369   1
   3  -4   5 2157.96 512.979   6
   4   3  -5 1522.59 282.250   3
  -4   3  -5 3270.26 556.678  12
  -4  -3   5 2180.69 580.080   2
  -4   3  -6 41.5075 65.8469   5
   4   3  -6-8.70760 29.7696   3
  -4   3  -6 4.29063 102.362  13
   3  -4   6 11.6005 61.1788   8
   4   3  -6-32.2901 71.2470  18
   4  -3   6 11.3500 61.7303   1
  -3   4  -6-3.63253 52.4596  12
   3  -4   6 29.4422 122.449   6
   4  -3   6 29.7402 97.6765  14
  -3  -4   6-10.1774 55.1495   6
   4  -3   6 55.2780 103.404   8
  -4   3  -6-0.88204 105.742  12
   3   4  -6 3.31538 44.2963   1
   3   4  -6 9.68374 21.5865  18
   4   3  -6-3.35924 23.2681   8
   3   4  -6-8.76189 55.4926   3
  -4  -3   6-48.3260 101.515  16
   4  -3   6 57.1274 108.046   6
  -3  -4   6 24.0418 74.7155  17
  -4   3  -6 30.4040 88.1445   3
  -3   4  -6 1.30652 93.2509  13
  -4  -3   6 20.0024 91.0039  17
   4   3  -6-54.7469 5.97417   1
   4  -3   6 18.2338 51.5918  16
   3   4  -6-4.02013 85.4185  13
   4   3  -6 19.1252 76.2432  13
   3  -4   6-2.31282 37.2458  14
  -4   3  -6 16.3792 99.1739  19
  -3   4  -6-19.1483 94.9904  19
  -3   4  -6-20.7382 92.4854   3
  -4  -3   6 17.7509 92.3655   2
  -4  -3   6-8.93846 54.7688  19
  -4   3  -6 49.2918 102.304   4
   4   3  -7 4886.26 375.746   8
   4   3  -7 5043.43 715.783  13
   3   4  -7 1026.94 390.259   1
  -4   3  -7 3640.96 618.883  12
  -3   4  -7 4408.02 675.907  12
   4   3  -7 4532.79 710.908  18
  -4   3  -7 1897.37 401.677  13
  -3   4  -7 1830.67 451.864  13
  -3  -4   7 2472.63 698.124  17
   4  -3   7 5295.50 487.228   1
  -4   3  -7 4592.41 645.180   4
   3   4  -7 3961.12 725.437  18
  -3  -4   7 1527.95 390.028  16
   3   4  -7 4930.80 774.917  13
  -4  -3   7 4137.04 497.294  19
   4  -3   7 6132.27 884.372   6
   3  -4   7 4638.74 782.022   6
  -3   4  -7 3589.26 508.918  19
   4  -3   7 4474.37 622.007   8
  -4  -3   7 3355.11 577.436  16
   3  -4   7 3187.82 513.918   8
   4   3  -7 5151.89 542.444   3
  -4   3  -7 4443.03 604.815  19
   4  -3   7 4068.87 756.051  16
  -4  -3   7 4173.43 836.121  17
  -4  -3   7 4023.42 788.614   2
   4   3  -7 3852.75 686.123   1
  -3   4  -7 4586.48 720.523   3
  -4   3  -7 4901.44 559.769   5
   4  -3   7 4926.38 638.396  14
   3   4  -7 4683.30 613.139   3
  -4  -3   7 2026.47 482.872   5
   3  -4   7 2260.69 575.782  16
   3  -4   7 3532.12 516.027  14
  -3  -4   7 2646.71 412.337   6
  -4   3  -7 3574.30 609.680   3
  -3   4  -7 4224.31 540.403   4
   4   3  -8 924.007 348.319   1
  -4  -3   8 885.311 312.215  16
  -3   4  -8 1165.61 212.882   5
   4  -3   8 960.507 376.995  16
   3   4  -8 330.990 194.613   1
   3  -4   8 1126.43 298.397  17
   4  -3   8 992.556 221.965   1
  -4  -3   8 1053.24 224.947  19
  -3   4  -8 994.310 330.214   3
   3   4  -8 519.146 143.141  12
  -4   3  -8 809.774 334.064  12
   3  -4   8 615.081 126.592   1
  -4   3  -8 1040.73 278.441   5
  -3   4  -8 883.412 200.237  18
  -4  -3   8 1035.53 417.077   2
  -4   3  -8 651.642 267.036   3
  -4  -3   8 880.110 357.249  17
  -3   4  -8 597.047 235.004  13
   4  -3   8 1083.46 322.646   8
   4  -3   8 1313.75 333.971  14
   3  -4   8 1251.47 408.190   6
  -3  -4   8 724.809 366.559   2
  -3   4  -8 1030.46 322.845  12
  -3  -4   8 764.377 226.395   6
  -4   3  -8 904.051 288.919  19
   3   4  -8 1180.60 386.474  18
   4   3  -8 750.613 145.097  12
   3  -4   8 1202.58 293.255  14
  -4   3  -8 902.704 292.813   4
  -3  -4   8 470.239 141.690  19
  -3  -4   8 576.483 281.714  16
  -3  -4   8 848.427 391.212  17
   4  -3   8 1581.43 455.739   6
  -4   3  -8 1215.90 214.035  11
   3  -4   8 874.849 256.992   8
   4   3  -8 1232.48 280.755   3
   3  -4   8 824.043 374.278  16
  -3   4  -8 929.376 250.583  19
  -4  -3   8 598.319 263.337   5
   3   4  -8 1131.93 378.805  13
  -4   3  -8 640.740 258.444  13
  -3   4  -8 1284.04 310.702   4
   3   4  -8 1272.35 323.469   3
  -4  -3   8-3.14123 49.6395   6
   4   3  -8 1105.90 349.733  18
   4   3  -9 2132.19 481.415  18
  -4   3  -9 1457.60 449.870   3
   4   3  -9 1607.98 457.766   1
  -4   3  -9 1240.50 356.792  13
  -3   4  -9 2030.09 470.607  12
   4  -3   9 436.341 181.466   1
   3   4  -9 1832.77 302.852  12
   4  -3   9 2083.98 565.946  16
   3   4  -9 1084.75 360.834   1
  -3   4  -9 2219.23 310.158   5
  -3  -4   9 1713.06 590.792   2
  -4  -3   9 1354.40 375.642   5
   4   3  -9 2555.23 572.480  11
  -4   3  -9 1760.83 276.760  11
  -4  -3   9 2207.90 604.669   2
  -4  -3   9 1704.09 267.846  19
  -4   3  -9 1590.42 392.334  19
  -4   3  -9 546.984 103.692  18
   4  -3   9 2150.69 458.177   8
   4   3  -9 1967.92 253.193  12
   4   3  -9 2316.22 402.308   3
  -3   4  -9 2120.31 365.947  19
  -4  -3   9 1653.53 434.023  16
  -3   4  -9 2245.07 419.510   4
   3  -4   9 1721.95 513.315  16
  -3   4  -9 2075.38 291.219  18
   3   4  -9 2220.54 522.430  13
  -4   3  -9 1461.72 445.056  12
   3  -4   9 2853.50 423.415  17
   3  -4   9 1689.81 374.796   8
   3   4  -9 2051.92 426.257   3
  -3  -4   9 1562.34 456.708  16
  -4  -3   9 2303.09 605.152  17
   3   4  -9 2394.24 553.544  18
  -3   4  -9 1781.01 471.582   3
  -3  -4   9 1515.47 223.345  19
   4   3  -9 2187.39 606.717  20
  -3   4  -9 1150.86 359.586  13
   4  -3   9 1296.63 199.149  17
  -4   3  -9 1399.23 404.956   4
  -3  -4   9 2032.81 632.177  17
   3  -4   9 2424.02 426.434  14
   4  -3   9 2791.10 629.679   6
  -3  -4   9 1125.93 287.981   6
   3  -4   9 2563.50 583.193   6
   4  -3   9 2678.43 499.381  14
  -4   3  -9 1020.63 288.637   5
  -4   3 -10 328.687 273.621  20
   4  -3  10 85.0368 146.268   6
  -3  -4  10 140.324 198.617  17
  -4  -3  10 134.642 129.176  16
   3   4 -10 119.376 95.4607   3
   3  -4  10 160.966 134.814  14
  -4  -3  10 251.699 251.048  17
   4   3 -10 117.762 141.006   1
  -3   4 -10 92.5395 105.765   3
  -3  -4  10 99.4314 120.715   2
  -4   3 -10 92.8795 82.0517  19
  -3  -4  10 200.272 180.485  16
   4  -3  10 74.9149 103.606   2
  -4   3 -10 54.6406 127.878   4
  -4   3 -10 120.896 85.3931  11
  -4  -3  10 134.498 144.720   5
  -3   4 -10 95.2543 90.7439   4
   3   4 -10 114.823 135.869  18
  -4  -3  10 158.675 188.833   2
   4   3 -10 322.700 312.374  10
   3  -4  10 114.798 105.598   8
   4   3 -10 60.3931 44.5926  18
   4  -3  10 126.663 99.0649  14
  -3   4 -10 144.425 70.0251  18
   4  -3  10 18.2047 38.9093  17
  -4   3 -10 194.843 281.472  15
   4  -3  10 29.7951 124.024  16
  -4  -3  10-32.2976 94.0364   4
   4   3 -10 134.480 88.8207  12
  -3   4 -10 182.212 160.010  12
  -3   4 -10 69.4767 77.7846  13
   3   4 -10 184.164 172.123  13
   4   3 -10 25.2188 93.1715  11
  -3   4 -10 97.4591 96.0707  19
   4   3 -10 85.5602 132.371  20
  -3  -4  10 56.8133 93.7794   6
   4  -3  10 203.512 165.406   8
   3  -4  10 90.9102 227.649  16
  -3   4 -10 65.3636 71.4834   5
  -4  -3  10 3.34928 52.7426  19
   3   4 -10 46.9706 48.2835   1
   3   4 -10 224.327 240.118  15
   3  -4  10 247.885 261.970   6
   4   3 -10-152.161 197.113  14
   3   4 -10 103.112 62.2582  12
   3  -4  10 174.913 122.443  17
  -3  -4  11 90.5293 43.5907   6
   4  -3  11 327.275 137.109   6
  -4   3 -11 258.348 230.730  10
  -4   3 -11 111.555 30.2264  11
  -4   3 -11-15.5580 182.004   4
   4   3 -11 311.026 251.134  10
   3   4 -11 340.078 257.741  13
   3   4 -11 265.874 130.998  12
  -3   4 -11 304.791 226.981  13
  -4  -3  11 268.671 195.384   5
   3   4 -11 262.098 157.626   3
  -3   4 -11 198.476 139.924   4
  -3   4 -11 491.238 329.407  12
  -3   4 -11 271.798 229.017   3
   3   4 -11 77.7807 29.6090  15
   3   4 -11 464.079 285.776  11
  -3   4 -11 325.180 119.797  11
  -4  -3  11 99.4140 37.8998   4
  -4  -3  11 182.472 168.961   2
   4   3 -11 223.602 158.008   1
   4   3 -11 419.416 296.232  11
   3  -4  11 378.148 138.426  17
   3   4 -11 69.1748 48.3513   7
   4  -3  11 250.780 121.795  16
  -3  -4  11 121.083 58.4226   2
  -4   3 -11 18.2739 50.9897  19
   3  -4  11 218.803 97.3245  16
   4   3 -11 255.123 162.005  18
  -4   3 -11 218.772 209.574  20
  -4   3 -11 370.075 273.715  15
  -3   4 -11 279.310 74.5829  18
   3  -4  11 253.563 176.522   6
   4  -3  11 200.487 87.2825   8
  -4  -3  11 336.897 262.273  17
   4   3 -11 109.888 110.211  20
   3  -4  11 225.058 96.6146   8
   3   4 -11 115.620 73.1923   1
  -3  -4  11 249.338 25.8015  17
   4  -3  11 359.685 199.623  14
  -3  -4  11 122.321 144.595  16
  -4   3 -11 426.882 371.419   7
  -4  -3  11 187.690 177.918  16
   4   3 -11-141.344 188.093  14
   4  -3  11 282.662 168.056   2
  -4   3 -11 914.540 466.596   9
  -3   4 -11 434.413 154.915  19
   3  -4  11 434.028 165.249  14
   3   4 -11 342.101 209.955  18
  -4  -3  12 918.454 445.092   2
   3   4 -12 1611.59 511.901  11
  -4  -3  12 2144.55 690.866  17
  -4  -3  12 710.529 307.804   5
   3   4 -12 1100.48 360.358   3
  -4  -3  12 501.802 166.319   4
   3  -4  12 1900.49 638.940   2
   3   4 -12 988.708 340.186  18
   4   3 -12 602.484 265.209  18
  -3  -4  12 1255.76 534.296   2
   4   3 -12 755.234 335.511  11
   4  -3  12 1810.34 630.663  16
  -4   3 -12 2547.45 941.872   7
   4   3 -12 4.10175 58.8231  14
   4   3 -12 1168.88 506.575  10
   4   3 -12 1503.91 592.985   9
   3   4 -12 1213.61 311.334  12
   3   4 -12 2985.70 946.882  20
   3   4 -12 483.548 245.757  15
   4  -3  12 1006.29 417.814   2
   4  -3  12 3807.62 884.716   6
   3   4 -12 913.781 464.321   1
  -3  -4  12 1203.59 503.468  16
  -4  -3  12 1048.63 418.993  16
   3   4 -12 759.595 401.269   7
  -4   3 -12 1381.61 646.834  15
   4   3 -12 573.374 272.199   1
   4   3 -12 635.278 377.113  20
   4  -3  12 2822.52 546.620   8
   4  -3  12 1708.16 492.051  14
  -3   4 -13 222.829 292.457  20
   3   4 -13-71.6901 258.913  20
  -3   4 -13 349.703 293.914  13
   3  -4  13 168.646 233.442   2
  -4   3 -13-4.17064 108.790  19
  -3   4 -13 166.914 370.440   7
   4  -3  13 127.232 113.622   2
  -4  -3  13 38.8039 173.527   2
  -3   4 -13 318.233 303.396  12
  -3   4 -13 317.845 263.188   3
  -4  -3  13 49.2225 59.9116  16
   3   4 -13-22.8360 101.486  18
   3   4 -13-17.4097 98.0592  11
  -3   4 -13 47.3264 78.8608  11
   4   3 -13 92.0732 196.558  11
  -4   3 -13 21.4494 83.6069   9
  -4   3 -13 164.404 245.314  20
  -4   3 -13-123.907 139.212  11
   3  -4  13-42.9813 123.597   6
   3  -4  13 35.9607 63.5784   8
   4  -3  13 172.659 102.795   8
  -3  -4  13 90.7324 152.705   2
  -3   4 -13 322.726 342.818  10
  -3  -4  13 42.0699 99.6973  16
  -3  -4  13-79.0164 176.352  17
   4   3 -13 60.1460 93.9748   1
  -4  -3  13 30.7783 32.9001   4
   4   3 -13-138.496 158.389  14
  -4  -3  13 75.3548 101.066   5
   3   4 -13 188.116 273.686  10
   3   4 -13-0.39431 61.3156   1
  -4  -3  13 273.608 250.638  17
   3   4 -13 99.7490 105.613  12
  -3   4 -13 115.181 68.3734  18
   4  -3  13 146.890 202.584   6
   4   3 -13 182.247 193.817  20
   3  -4  13-7.19959 129.626  16
   4   3 -13 252.777 318.169   9
   4  -3  13 149.120 140.765  16
  -4   3 -13 54.6049 182.307   7
  -4   3 -13 265.954 311.617  10
  -4   3 -13 70.1137 112.975  15
  -3   4 -13 149.788 292.410  15
   3  -4  13 48.1063 64.9444  14
   4  -3  13 36.2019 74.1153  14
  -3  -4  13-15.1899 23.0960   6
   3  -4  13 45.6992 51.2396  17
   4   3 -13 104.586 176.402  18
  -3   4 -13-78.4569 103.567  19
   3   4 -13 56.1902 114.463   3
   4   3 -13 478.887 372.458  10
   4  -3  14 398.670 280.020   6
   4   3 -14 567.450 340.656  11
   3  -4  14 932.281 400.625   6
   3  -4  14 775.401 249.951   8
  -4   3 -14-158.489 387.687  15
   3  -4  14 589.560 266.691  14
   4   3 -14 295.130 234.429  20
  -3   4 -14 488.446 374.067   7
   3   4 -14 737.590 289.258  12
   3   4 -14 370.620 216.231   1
  -3  -4  14 711.820 377.277   2
  -4   3 -14 449.440 332.199  10
  -3  -4  14 290.274 147.852   5
   3   4 -14 453.228 339.655  10
   3   4 -14 482.991 279.048  11
  -3   4 -14 356.174 364.789  20
  -3   4 -14 535.000 359.509  10
  -4  -3  14 583.410 332.637   2
   4   3 -14 190.551 195.842  10
   3  -4  14 901.765 258.498  17
  -4   3 -14 343.082 326.611  20
  -4   3 -14 351.568 231.515   9
  -4  -3  14 878.331 437.810  17
   4   3 -14 262.494 210.020   1
   4   3 -14 426.330 246.907  18
   4  -3  14 642.462 252.940   2
  -3   4 -14 1344.37 573.258   9
  -4  -3  14 474.855 236.233   5
   4  -3  14 852.877 321.474   8
   4  -3  14 336.209 181.892  14
  -3  -4  14-1.03303 89.6239   6
  -4   3 -14 248.292 212.275  19
  -3   4 -14 373.821 174.368  19
  -3   4 -14 488.320 169.118  11
   3  -4  14 602.427 312.859   2
  -3  -4  14 621.418 307.620  17
  -4  -3  14 382.998 255.926  16
   3  -4  14 587.237 345.318  16
   4  -3  14 598.546 369.354  16
  -4   3 -14 22.0948 234.382   7
  -3  -4  14 377.723 254.415  16
   3   4 -14 527.163 239.357  18
  -3   4 -14 384.777 295.910  15
   4   3 -14 729.117 403.256   9
  -3   4 -14 321.875 115.630  18
   3   4 -14 283.634 256.436  20
  -4  -3  14 390.611 123.146   4
  -3  -4  15 23.0430 74.4402   5
   3   4 -15 831.223 557.467   9
  -4   3 -15-126.750 222.719   9
   4   3 -15-113.956 305.489  20
  -4  -3  15 66.5934 142.112   2
   4   3 -15-11.4212 44.6651  11
  -3  -4  15-39.4594 146.696  17
  -3  -4  15-5.49080 80.8997   6
  -3  -4  15-98.4420 227.268   2
  -4  -3  15 36.3558 74.4788   5
   4   3 -15 21.7381 55.3990  10
   3   4 -15 206.850 269.920  11
  -4   3 -15 110.136 135.025  19
   3  -4  15-106.180 95.3589   2
   4  -3  15 124.967 214.030  16
   4  -3  15-7.16739 107.462  14
   3  -4  15-6.96560 25.9170   8
  -4   3 -15 0.61412 136.099  10
   4  -3  15 194.623 176.541   8
  -3   4 -15 19.7881 98.6269  20
   4   3 -15-29.0872 132.327  18
   3   4 -15 82.9843 223.060  10
   3  -4  15 89.0021 130.619   6
  -3   4 -15 281.835 327.127   9
  -3   4 -15 79.8950 97.5436  19
   3  -4  15-0.08324 78.0035  17
   4   3 -15-114.475 61.2128   9
  -4  -3  15 127.980 168.576  17
  -4  -3  15 63.3081 131.249  16
  -4   3 -15-291.760 187.931  20
  -3   4 -15 18.5604 52.7050  18
   4  -3  15 167.761 145.648   2
   3  -4  15 300.760 335.838  16
  -3   4 -15 42.6193 52.5508  11
   4   3 -15 29.9120 23.8612   1
  -3   4 -15 74.8814 214.644  10
  -4  -3  15 9.10030 38.9323   4
   3   4 -15 369.779 397.478  20
   3   4 -15-8.06277 65.0644  18
  -4   3 -15-876.184 552.427   7
  -3   4 -15 8.12626 56.7624  15
  -3   4 -15-27.6823 160.770   7
  -3  -4  15-38.7640 128.029  16
   3   4 -15 181.466 214.703   1
   3  -4  15 46.8247 77.8447  14
   4  -3  15 29.3670 134.466   6
   4  -3  16 52.2634 108.975  16
   3   4 -16 58.2686 307.854  20
  -4  -3  16 313.140 301.115   2
  -3   4 -16 157.047 118.583  19
   3   4 -16 62.0138 99.7212   1
  -4   3 -16 267.738 194.119  19
  -4  -3  16 179.021 111.937  16
  -4  -3  16 130.830 190.484  17
  -3   4 -16-157.492 208.977   9
  -3   4 -16 261.660 397.229  20
   3   4 -16 201.767 208.680  11
  -4   3 -16-12.0580 100.269  10
   4   3 -16-132.748 249.768  10
   4   3 -16-268.768 459.196  20
   3  -4  16 37.1487 121.187  14
   3  -4  16 302.367 310.547  16
   3   4 -16 33.1673 210.859  10
  -3  -4  16 148.232 163.417  17
  -4   3 -16 23.5174 171.655  20
   4   3 -16 20.2801 55.6015   1
   3  -4  16 86.6964 176.909   2
   3  -4  16 241.611 193.665   8
  -3   4 -16 171.152 292.439  10
   4   3 -16 20.7901 51.3257  11
   4  -3  16 264.177 196.451   8
  -3  -4  16 182.674 215.762  16
   3   4 -16 146.663 158.031  18
   4   3 -16 141.401 207.851  18
   4  -3  16 100.416 142.357   2
   3  -4  16 97.1862 81.4409  17
  -3   4 -16-198.044 334.507   7
  -3   4 -16 86.9947 64.6885  11
  -4   3 -16-221.518 267.918   9
  -4  -3  16 93.2916 72.8680   5
  -4  -3  16 119.182 73.0702   4
   3  -4  16 266.602 262.899   6
  -3  -4  16 174.926 223.631   2
  -3   4 -16-437.103 511.271  15
   3   4 -16 331.474 302.060   9
   4   3 -16 56.6332 194.493   9
  -3  -4  16 102.305 141.452   5
  -3  -4  16-453.165 510.557   6
   4  -3  16 202.882 276.142   6
  -3   4 -17 523.033 389.190  10
  -3  -4  17 613.858 249.055   5
   3  -4  17 1244.58 512.139   2
   4   3 -17 581.858 355.545  11
  -3  -4  17 861.098 446.096   2
  -3  -4  17 871.990 444.821  16
   3   4 -17 431.098 251.501   1
   3   4 -17 412.237 274.784  11
   3   4 -17 525.455 412.755  10
  -3   4 -17 430.934 213.012  19
   4   3 -17 181.792 225.440   9
   3   4 -17 673.958 325.217  18
  -4   3 -17 318.071 205.421  19
   3  -4  17 1246.14 592.717  16
   3   4 -17 320.740 427.910  20
  -4   3 -17 57.8466 67.2215  20
  -4  -3  17 1030.14 330.523   5
   4  -3  17 1413.84 464.388   2
  -3   4 -17 699.916 399.296   9
  -4  -3  17 1059.04 478.456   2
  -4  -3  17 756.374 433.055  16
  -4   3 -17 237.658 152.778   9
   4   3 -17 484.721 407.774  10
  -3   4 -17 216.798 272.420  20
   4  -3  17 931.254 341.533   8
   4   3 -17 509.410 342.030  18
  -3   4 -17-1225.66 686.611   7
   3  -4  17 977.977 335.483   8
   3   4 -17 761.649 461.197   9
  -4   3 -17 199.870 301.977  10
  -3  -4  17 1125.90 509.705  17
  -4  -3  17 1123.27 561.088  17
   3  -4  17 360.104 47.4067  17
   4   3 -17 182.805 146.369   1
  -3   4 -17 389.308 177.981  11
   4  -3  17 927.468 512.681  16
   4  -3  17 773.889 370.560   6
   3  -4  17 936.013 536.840   6
   4   3 -18 293.424 289.817  11
  -4  -3  18 930.877 482.500  17
   3   4 -18 287.884 193.645   1
   4  -3  18 704.174 357.942   2
  -3   4 -18 391.348 336.172  10
  -3  -4  18 517.257 203.618   5
  -3   4 -18 131.039 192.072  20
   3   4 -18-134.230 325.534  20
   3  -4  18 1038.63 356.267   8
  -4   3 -18-25.0981 161.138  10
  -3   4 -18 422.094 294.891   9
  -4  -3  18 905.750 306.387   5
  -4   3 -18 100.872 151.726  19
   3   4 -18 401.968 299.357  11
   4   3 -18 127.671 135.544  10
  -3   4 -18 105.317 110.788  11
   4   3 -18 335.412 233.686  18
  -3  -4  18 1063.72 485.149  16
   4   3 -18 187.094 141.670   9
   3  -4  18 1027.30 473.985   2
  -4   3 -18-528.894 401.144  20
   4  -3  18 958.452 510.487   6
  -3  -4  18 725.544 405.915  17
  -3   4 -18 298.700 176.381  19
   4  -3  18 985.029 374.046   8
  -4  -3  18 938.645 475.782   2
   3   4 -18 696.215 498.154  10
   4   3 -18 171.154 181.258   1
   3   4 -18 561.277 271.744  18
   3  -4  18 942.744 538.947  16
  -4  -3  18 782.818 412.104  16
   3   4 -18 543.173 361.403   9
  -3  -4  18 1023.20 520.672   2
  -4   3 -18-4.38876 272.366   9
   4  -3  18 1132.33 572.787  16
   3  -4  18 892.764 529.086   6
   4   3 -19 54.3815 298.723  10
   3   4 -19 126.821 78.9416  20
  -4  -3  19 2852.15 552.897   5
   3   4 -19 464.370 229.309   1
   4   3 -19 1153.05 491.599  11
  -3   4 -19 323.908 424.096  20
  -3   4 -19 1048.42 419.727  10
  -3   4 -19 424.173 190.713  11
   4  -3  19 3815.60 816.752   2
  -4  -3  19 3041.67 871.274   2
   3  -4  19 2353.52 766.211  16
  -3  -4  19 2594.30 782.395  17
  -4   3 -19-360.023 551.027  20
   3   4 -19 917.103 500.246  10
   3   4 -19 1377.22 459.944  18
  -4   3 -19 366.614 206.563  10
  -4   3 -19 89.5354 104.614  19
   4  -3  19 2344.98 855.063   6
   4   3 -19 551.274 400.176   9
  -4   3 -19-333.472 562.322   9
   4   3 -19 1159.32 444.329  18
   4  -3  19 2778.42 658.194   8
   4   3 -19 612.895 310.726   1
  -3   4 -19 824.431 405.522   9
  -3  -4  19 2478.25 727.959  16
   3  -4  19 2461.93 790.238   6
   4  -3  19 2753.08 855.130  16
  -4  -3  19 2350.49 713.021  16
   3   4 -19 1520.30 632.887   9
   3  -4  19 3637.26 919.235   2
  -3  -4  19 3025.39 850.257   2
   3  -4  19 2629.74 569.127   8
  -4  -3  19 3530.99 892.542  17
   3   4 -19 1581.36 542.941  11
   4   3 -20-560.252 589.986   9
  -4  -3  20-11.1628 106.193  17
  -3   4 -20 25.2506 117.470   9
   4  -3  20-20.8462 240.230   6
  -3   4 -20-61.9916 140.086  10
   3   4 -20 119.534 217.751  11
   4   3 -20-128.908 152.557  18
  -3  -4  20 176.205 153.210  17
   3   4 -20 44.5895 139.135  10
   3   4 -20 287.421 316.369   9
   3  -4  20 466.839 303.267   2
   4   3 -20 64.4883 130.135  11
   3   4 -20-46.3807 42.1722  18
  -4   3 -20-637.894 590.196  10
   3  -4  20 241.613 422.513   6
   4  -4   3-12.0899 59.6959   6
  -4   4  -3-30.2940 54.6383  12
   4   4  -3-164.641 342.469   1
   4   4  -4-133.538 358.153  18
   4  -4   4 48.9659 87.2352   6
  -4   4  -4 107.829 90.0674  12
   4   4  -4-13.0143 97.7748   1
  -4   4  -4 68.6344 28.8123  19
   4  -4   4 38.2393 68.2123  14
   4  -4   4 30.3355 52.9738   8
   4   4  -4 86.3919 124.435  13
  -4  -4   4-88.2818 255.505  17
  -4   4  -4 49.2210 75.3991   3
   4  -4   5 11.4855 43.1917  14
  -4   4  -5-8.16035 53.1509  19
   4  -4   5 47.1998 60.8905   6
  -4   4  -5-3.57871 44.3713  12
   4   4  -5-53.6013 92.5530  13
   4   4  -5 46.1568 49.8728  18
  -4   4  -5-43.7919 110.791   3
  -4  -4   5-55.5376 150.672  17
   4  -4   5-38.4404 71.8573   8
   4   4  -5-123.569 205.691   1
   4   4  -6 1502.78 493.567   1
  -4   4  -6 2542.19 527.770  12
   4   4  -6 3144.41 617.032  13
   4  -4   6 2179.25 441.779  14
   4   4  -6 2537.21 610.241  18
  -4   4  -6 2389.93 442.521  19
  -4  -4   6 958.476 468.270  17
  -4   4  -6 2362.28 528.114   3
  -4   4  -6 2065.69 331.107   5
   4  -4   6 2436.63 571.250   6
  -4   4  -6 2248.39 422.093   4
  -4  -4   6 456.661 136.363   6
  -4   4  -6-47.8430 184.093  13
   4  -4   6 1902.88 424.238   8
   4  -4   7-2.88833 59.7692  14
  -4   4  -7 4.51977 68.7114   3
   4  -4   7-10.3001 87.2005   6
  -4   4  -7-19.9454 21.6916  12
   4   4  -7 16.0900 106.736  13
  -4  -4   7-46.0811 119.787   2
  -4   4  -7 1.49316 10.2779   5
  -4   4  -7-29.3201 86.1357  13
  -4   4  -7-6.07605 33.1828  19
  -4  -4   7 35.6377 63.1213  19
  -4  -4   7-103.791 226.137  17
   4   4  -7 12.8842 117.979   1
   4   4  -7-3.09835 89.0169  18
   4  -4   7 12.0120 13.2943   8
   4   4  -7-4.15919 46.0464   3
   4  -4   7-139.612 303.492  16
   4   4  -7-59.9509 100.928   8
  -4  -4   7 18.1739 57.7187   6
   4  -4   7-12.3418 11.6417   1
  -4   4  -7 45.1187 58.7926   4
  -4  -4   8 2350.71 680.827  17
  -4   4  -8 1036.69 347.477  13
   4  -4   8 3114.07 347.645   1
  -4   4  -8 3146.79 593.618  12
  -4   4  -8 3458.11 439.838   5
  -4  -4   8 1801.44 340.398  19
  -4   4  -8 3027.48 613.846   3
   4  -4   8 2852.68 521.489   8
  -4   4  -8 3105.13 494.808  19
  -4  -4   8 1732.84 297.777   6
   4   4  -8 3607.12 532.507   3
  -4   4  -8 3400.71 544.684   4
  -4   4  -8 2382.70 290.625  18
   4   4  -8 3414.91 685.781  18
   4   4  -8 1854.47 552.298   1
  -4  -4   8 2211.97 660.382   2
   4  -4   8 3148.58 417.162  17
   4  -4   8 4036.34 751.361   6
   4   4  -8 4114.98 702.773  13
  -4  -4   8 1392.05 404.429  16
   4  -4   8 3393.00 546.909  14
   4   4  -8 2665.35 281.768   8
   4  -4   8 2338.22 636.643  16
  -4   4  -9 2.22769 7.78213  18
   4  -4   9 32.9437 97.6051   6
  -4   4  -9 87.7400 119.400  13
  -4   4  -9 19.0867 76.6885  12
   4   4  -9-93.6460 132.797  13
  -4  -4   9 21.9303 95.1582  19
  -4  -4   9 110.898 259.004  17
  -4   4  -9-32.3065 52.3713  19
   4  -4   9 5.78241 104.770  16
  -4   4  -9 67.9105 87.9445   5
   4   4  -9 39.6662 112.502  18
  -4  -4   9-114.440 172.767   2
   4  -4   9 6.99512 40.1780   1
  -4  -4   9 1.70172 53.1639   6
  -4  -4   9-36.5842 56.8395  16
   4   4  -9 53.0327 136.295   1
   4   4  -9 54.9513 81.5815   3
   4  -4   9 2.87792 38.3094  14
  -4   4  -9-12.9811 35.2351   4
   4  -4   9-2.16513 46.6265   8
  -4   4  -9-22.1305 110.166   3
   4  -4   9 22.0242 67.9353  17
  -4  -4  10 1200.59 489.799   2
  -4  -4  10 209.285 109.268   6
   4  -4  10 552.958 151.486   1
   4   4 -10 1377.17 421.979  13
   4  -4  10 1467.40 374.216   8
  -4   4 -10 1083.21 280.203   5
   4   4 -10 1128.93 221.446  12
  -4   4 -10 923.547 316.136   3
  -4   4 -10 1099.57 351.202   4
   4  -4  10 1045.25 442.505  16
  -4  -4  10 922.734 177.780  19
  -4   4 -10 1678.56 306.178  11
  -4   4 -10 1234.30 186.754  18
   4   4 -10 628.790 244.717  15
   4  -4  10 1706.92 392.980  14
  -4   4 -10 1137.79 377.984  12
  -4  -4  10 1000.87 388.187  17
   4  -4  10 1786.05 270.099  17
  -4   4 -10 1272.40 309.237  19
   4   4 -10 1392.74 345.798   3
   4  -4  10 1834.16 528.788   6
   4   4 -10 1470.06 454.608  18
  -4  -4  10 855.282 345.590  16
   4   4 -10 895.317 358.766   1
   4   4 -10 923.243 300.503   7
  -4   4 -10 603.733 253.167  13
   4  -4  11 463.434 241.011  14
  -4   4 -11 1565.79 494.822   4
   4   4 -11 513.428 263.783  18
   4   4 -11 547.843 286.697   3
   4  -4  11 930.817 270.944  17
   4   4 -11 1303.37 693.142  11
  -4   4 -11 839.055 234.790  11
   4   4 -11 1888.98 706.511  20
  -4  -4  11 2933.31 808.284  17
   4  -4  11 840.661 547.942  16
   4   4 -11 721.289 252.153  12
  -4  -4  11 463.943 451.334   2
   4  -4  11 1787.53 594.556   6
  -4  -4  11 605.028 399.638  16
  -4   4 -11 382.889 154.560  18
  -4  -4  11 1067.89 416.102   6
   4   4 -11 874.780 443.644   1
   4  -4  12 139.213 162.888   6
  -4  -4  12 64.6446 98.3381  16
   4  -4  12 78.0825 17.8187  17
   4   4 -12 172.027 183.845  18
  -4   4 -12 143.878 189.514   3
  -4   4 -12 215.597 270.683  20
   4   4 -12 187.874 152.991  11
  -4   4 -12 100.455 78.6472  11
  -4   4 -12-8.90466 42.1333  13
   4   4 -12 93.4267 237.000  20
  -4   4 -12-50.1769 120.096  19
   4   4 -12-21.9593 40.6097   1
  -4   4 -12-96.4091 176.275   4
  -4  -4  12 258.219 237.551  17
   4  -4  12 55.7349 35.9747   8
  -4   4 -12 31.3316 10.4281  18
   4  -4  12 116.373 242.153  16
  -4   4 -12 131.641 223.261  12
   4   4 -12 115.186 85.6075   3
  -4  -4  12 299.780 287.754   2
   4   4 -12 138.137 56.7701  12
  -4  -4  12 73.5849 104.821   6
  -4   4 -12 662.960 476.723  15
   4  -4  12 103.106 126.131  14
   4  -4  13-112.008 152.829   6
   4   4 -13 45.8421 112.669   3
  -4   4 -13 160.118 243.029  20
  -4   4 -13 187.696 186.605  13
  -4  -4  13-11.7617 86.8499  16
  -4   4 -13 112.553 263.585  12
   4   4 -13 39.7175 44.9799  12
  -4   4 -13 123.514 126.747  19
   4   4 -13 2.10275 44.6302  18
   4   4 -13 70.8642 183.535  11
  -4   4 -13 19.5273 37.3001  11
   4   4 -13-179.057 279.476  20
   4  -4  13 60.0871 123.801   2
  -4  -4  13 8.40477 46.5387   5
  -4  -4  13 14.6676 50.1089   2
  -4   4 -13 142.910 326.036  10
   4   4 -13 312.759 385.560  10
   4   4 -13 5.36755 70.6675   1
   4  -4  13 64.8144 228.261  16
  -4   4 -13-213.754 327.320   4
  -4   4 -13 7.28661 24.5773  18
  -4   4 -13 578.042 520.638  15
   4  -4  13 11.8851 69.6946   8
   4  -4  13-34.8710 69.0161  17
  -4  -4  13-66.9382 145.534   6
  -4   4 -13 159.281 193.651   3
  -4   4 -13 120.561 278.563   7
  -4  -4  13 1.62230 155.100  17
   4  -4  13 42.9841 92.3542  14
  -4   4 -14 172.645 224.118  13
   4  -4  14 269.015 303.793   6
  -4   4 -14 148.938 183.548  10
  -4   4 -14 138.409 88.2042  11
  -4  -4  14 50.4132 60.7796   5
   4   4 -14 176.509 134.313  12
   4   4 -14 230.442 202.664  11
   4   4 -14 251.117 207.688   3
  -4   4 -14 31.7618 127.335  20
  -4   4 -14 689.048 458.126   9
  -4   4 -14 172.781 172.346  19
  -4  -4  14 137.061 205.987   2
   4   4 -14 207.226 197.515  18
  -4  -4  14-190.062 365.446   6
  -4  -4  14 184.581 204.122  16
   4  -4  14 136.458 239.220   2
   4   4 -14 33.4473 300.522  20
  -4   4 -14 186.653 406.540   7
  -4  -4  14 86.4203 167.629  17
   4  -4  14 117.313 22.9204  17
   4   4 -14 113.642 133.131   1
   4  -4  14 139.297 95.0174  14
   4  -4  14 411.579 352.967  16
   4  -4  14 244.325 185.618   8
  -4   4 -14 3.47360 161.010  15
   4   4 -14 1079.35 665.157   9
   4   4 -14 621.028 471.531  10
  -4  -4  15 145.624 211.001   2
   4  -4  15-43.1418 203.492   6
   4   4 -15 75.5734 156.488   1
   4   4 -15 161.652 319.860  10
   4   4 -15 111.627 154.726  11
   4   4 -15-121.565 214.360  20
   4   4 -15 640.598 459.859   9
  -4  -4  15-0.88280 157.505  17
  -4   4 -15 331.901 327.791   9
   4  -4  15-235.281 233.280  16
   4   4 -15 271.055 221.348  12
  -4  -4  15-85.5130 55.4204  16
  -4   4 -15-101.304 146.785  11
   4  -4  15 33.1679 72.6978  14
   4  -4  15-68.2058 82.1660   2
  -4  -4  15-45.6074 52.8016   5
   4  -4  15 119.772 150.877   8
  -4   4 -15 20.1319 70.7581  19
  -4   4 -15-333.742 315.680  20
  -4   4 -15 66.4536 143.848  10
  -4   4 -15-27.7855 86.8279   7
   4   4 -15 33.5523 111.099  18
  -4   4 -15 231.212 361.893  15
   4  -4  16 52.3239 177.046   6
   4   4 -16 122.097 174.529   1
   4  -4  16 181.429 128.963   8
  -4   4 -16-230.016 358.290  15
  -4  -4  16 96.5702 182.266  17
  -4   4 -16-16.2603 119.000  11
   4   4 -16 56.9826 250.611  10
   4   4 -16 257.365 251.855  11
  -4   4 -16 500.710 456.275  20
  -4   4 -16 83.2060 285.126  10
  -4   4 -16 46.3288 102.565   7
   4   4 -16 95.8772 160.246   9
  -4  -4  16 58.8729 75.6057   5
  -4   4 -16-99.2708 128.405   9
   4  -4  16 136.706 171.010   2
   4  -4  16 120.381 192.772  14
   4   4 -16 17.6476 133.737  18
  -4  -4  16 388.268 334.974   2
   4  -4  16 3.26800 91.7443  16
  -4   4 -16-29.7738 25.9953  19
  -4  -4  16-5.23939 21.4160  16
   4   4 -16 126.263 296.052  20
  -4  -4  17-25.0967 229.293   2
   4   4 -17-34.3386 121.465  20
  -4   4 -17 80.0248 101.726   9
   4   4 -17 315.207 270.363   9
  -4  -4  17-61.2660 44.3897   5
   4   4 -17 15.0773 42.2992   1
   4   4 -17 39.2098 131.771  18
   4   4 -17-11.9899 148.708  11
  -4   4 -17 4.81997 42.5453  20
  -4   4 -17-523.437 608.409  15
   4   4 -17 257.151 362.118  10
  -4  -4  17 0.67805 183.364  17
   4  -4  17 101.443 199.940   8
  -4   4 -17-40.1908 51.9299  19
  -4  -4  17 104.379 186.348  16
  -4   4 -17 223.352 333.454  10
   4  -4  17 219.368 291.132  16
  -4   4 -17-275.952 657.888   7
  -4   4 -17-66.5868 131.444  11
   4  -4  17-11.9061 102.750   2
   4  -4  17-15.4941 162.535  14
   4  -4  17-70.0612 178.586   6
   4  -4  18 1997.51 538.862   8
  -4   4 -18 668.610 356.187   9
   4   4 -18 489.333 273.383   1
  -4  -4  18 1335.89 379.414   5
   4   4 -18 118.137 257.294  20
  -4   4 -18-91.3214 190.944  11
   4   4 -18 1571.69 598.576   9
  -4   4 -18 682.647 257.272  10
   4   4 -18 1051.89 428.011  18
   4   4 -18 1087.16 576.845  10
   4  -4  18 2186.22 657.276   2
  -4  -4  18 2582.25 851.312  17
  -4  -4  18 2047.78 729.448   2
  -4   4 -18 591.613 448.719  20
   4   4 -18 1455.24 586.670  11
  -4   4 -18 514.518 265.879  19
   4  -4  18 1767.28 748.727   6
   4  -4  18 1796.44 677.998  16
  -4  -4  18 1816.09 634.850  16
   4  -4  18-255.240 453.174  14
   4  -4  19 22.1502 86.9963   2
   4   4 -19-432.699 604.921  20
   4   4 -19 4.08113 88.3640   1
  -4  -4  19-12.7341 99.4777   5
  -4   4 -19-63.5783 76.1576  19
   4   4 -19-443.440 507.572  10
  -4   4 -19 22.3425 268.814   9
  -4  -4  19-149.660 320.341  17
   4  -4  19 79.3825 197.909   8
   4  -4  19 133.106 261.436  16
  -4  -4  19-136.954 260.251   2
   4   4 -19-213.713 196.296  18
   4   4 -19-204.633 326.306  11
  -4   4 -19-168.961 106.865  10
  -4  -4  19-14.5729 94.2815  16
   4   4 -19 81.8162 129.444   9
  -4   4 -19 7.07468 211.881  20
   4  -4  19-153.447 305.719   6
   5   0   0-25.5007 26.7283  18
   5   0   0-21.7165 72.5317  14
  -5   0   0-22.8240 24.5219   3
   5   0   0 8.98155 4.22701   6
  -5   0   0 4.42378 12.3288  17
  -5   0   0-11.4333 36.3275  12
   5   0   0 9.62629 67.1545  11
   5   0   0-4.95618 52.9356   1
   5   0   0 3.98620 26.6725   8
  -5   0   0 26.8424 67.1660   2
  -5   0   0-9.52195 49.8792   4
  -5   0   0-5.81560 53.4647   5
  -5   0   0-27.5192 18.5781  19
   5   0  -1 348.050 178.190  14
  -5   0  -1 264.193 158.520   5
   5   0  -1 414.190 141.631   6
  -5   0  -1 195.343 171.053  19
   5   0  -1 307.121 151.830   8
   5   0  -1 279.396 143.259  18
   5   0  -1 316.835 136.614  11
  -5   0   1 381.082 160.097   2
   5   0   1 362.945 191.002   8
   5   0   1 490.707 150.679  11
   5   0   1 369.054 134.679  18
  -5   0  -1 187.860 97.7555  17
   5   0   1 427.496 198.023   1
  -5   0   1 352.200 182.441  19
  -5   0   1 190.008 94.2831  12
  -5   0   1 188.302 111.516  17
  -5   0   1 327.440 155.707   4
  -5   0   1 297.524 162.532   5
   5   0  -1 261.387 152.835   1
  -5   0  -1 252.437 146.976   2
  -5   0  -1 461.461 220.241  15
  -5   0  -1 246.921 164.230   4
   5   0   1 360.490 151.500   6
   5   0   1 360.405 190.972  14
   5   0   2 1.85539 33.8257   1
   5   0  -2-12.6169 21.7744   1
  -5   0   2-1.39049 18.8546  12
   5   0   2-3.01633 32.5305  16
  -5   0  -2-54.5981 113.837   5
   5   0  -2 17.7686 14.1221  18
  -5   0  -2 69.1192 160.571   7
  -5   0   2-15.2283 26.2022   2
  -5   0   2 6.30813 38.3941  19
  -5   0   2-23.9254 64.6627  17
   5   0   2 7.88267 68.8908   8
  -5   0  -2-36.8106 62.8760  17
  -5   0  -2-5.38844 39.6688   4
   5   0  -2-9.80601 26.0472   8
  -5   0  -2 22.2964 80.6166  15
  -5   0  -2-84.3934 148.824  19
   5   0   2-7.21208 53.3603  18
   5   0  -2 11.9339 31.0050  14
   5   0   2-20.5977 60.8239   6
   5   0  -2-3.63349 40.2550  11
   5   0  -2-21.6464 44.6035   6
  -5   0   2-11.3284 68.0968   4
  -5   0   2 28.3419 76.7691   5
   5   0   2-40.0426 83.3467  14
  -5   0  -3 75.2221 118.035   7
  -5   0   3-8.28104 14.0441   2
  -5   0   3-13.5232 11.6314   4
  -5   0   3 70.0011 100.960  17
  -5   0  -3-11.4246 71.6344   4
   5   0  -3-2.66538 15.5231   8
  -5   0  -3-36.0862 94.0758  19
   5   0  -3 16.8729 51.0754  14
   5   0   3 14.8555 33.3704  18
   5   0   3 14.3872 50.0731  16
   5   0   3 30.0969 74.7147   6
   5   0  -3 4.51509 14.1795   6
   5   0   3 7.97703 78.4567   8
  -5   0  -3 0.55797 53.6255  17
  -5   0   3-0.35639 45.1072  19
   5   0  -3 11.2465 25.2260  18
  -5   0  -3 8.35376 41.3995   5
  -5   0   3 28.3520 62.5946   5
   5   0  -3-1.72607 11.0040   1
  -5   0  -3 48.7673 61.7059  15
   5   0   3-0.39843 48.3772   1
   5   0   3 14.1322 60.0177  14
   5   0  -3-28.0299 39.2196  11
   5   0   4 74.7628 111.807   6
   5   0  -4 86.2899 101.233  14
   5   0   4 65.7025 163.279   8
  -5   0  -4-252.701 185.239  15
  -5   0  -4 14.3035 45.4459  17
   5   0  -4 60.0139 84.6283  18
   5   0   4 33.7219 75.2324  16
  -5   0  -4-38.5237 111.582   4
   5   0  -4 88.6445 139.446   1
   5   0   4 46.0426 114.687   1
   5   0   4 0.97384 55.6067  18
  -5   0   4-35.6393 79.9996  16
   5   0  -4 146.575 154.284  11
  -5   0  -4 67.5356 92.1338   7
  -5   0   4 68.1858 123.254   4
  -5   0   4 77.8677 139.371  17
  -5   0   4 113.672 126.816   2
   5   0  -4-9.04863 51.5956   8
  -5   0  -4 65.7321 139.720  19
  -5   0   4 97.7954 115.566   5
   5   0   4-2.73699 69.1076  14
  -5   0   4 57.4104 113.463  19
   5   0  -5 179.293 135.324  14
  -5   0  -5 43.6256 24.1580  19
   5   0   5 204.664 175.455  14
  -5   0   5 192.575 147.630  17
   5   0  -5 146.126 131.346  18
  -5   0   5 152.529 113.660  19
   5   0   5 5.65438 104.893   1
  -5   0  -5-76.6946 185.266   4
   5   0   5 192.445 165.323   6
   5   0   5 154.062 165.238   8
   5   0  -5 28.0791 71.2709   8
  -5   0  -5-155.120 311.391   7
   5   0   5 145.529 143.791  16
  -5   0   5 174.391 112.260   4
  -5   0   5 237.213 154.869   2
   5   0  -5 136.846 127.595  11
  -5   0   5-15.5844 86.5460  16
  -5   0   5 172.116 110.593   5
   5   0  -5 164.228 157.451   1
   5   0  -6 3.46229 49.8632  14
   0   5  -6-6.33614 42.5888  13
   5   0  -6 2.74326 27.1969  18
  -5   0   6-25.6097 34.7045   5
   0  -5   6-84.5644 149.461   6
   5   0   6-5.71527 177.035   1
   5   0  -6 25.6298 60.1261   1
   5   0  -6 28.4490 65.9548  11
  -5   0   6 17.1987 25.1365  19
   5   0   6-6.56763 32.4134   6
  -5   0   6 63.7769 150.041  17
   5   0   6 96.3121 181.924   8
  -5   0   6-96.0172 133.260  16
   5   0   6 39.7670 42.5892  14
   5   0   6-2.69706 21.2862  16
  -5   0  -6 4.20568 145.883  19
  -5   0   6 46.4490 92.8842   2
   0   5  -6-30.4596 71.1931   3
   5   0   7 3413.73 684.213   8
   0   5  -7 3811.88 761.725  13
  -5   0   7 4680.93 702.372   2
   0   5  -7 5828.07 823.162   3
  -5   0   7 4703.90 634.278   5
   5   0  -7 1648.63 406.109  11
  -5   0   7 4137.22 745.929  17
   5   0  -7 2778.11 523.392  18
  -5   0  -7-169.151 257.097  19
   5   0  -7 3898.12 528.889  14
   5   0  -7 3101.99 583.115   1
   5   0   7 3116.61 598.345  16
   5   0   7 3862.94 792.318  14
  -5   0   7 708.503 206.571  16
   5   0   7 3638.98 719.168   6
   0   5  -7 4551.56 630.256  12
   0  -5   7 1637.03 432.879   6
   5   0  -8-3.26378 37.8978  14
   0   5  -8 46.5546 77.8149   3
   5   0  -8-21.0210 80.5578  11
   5   0   8 26.0265 38.3851  16
   0  -5   8-55.1950 187.443  17
  -5   0   8-27.5815 94.0884   5
   5   0   8-11.5924 79.3120   8
   5   0   8-34.8842 54.6457  14
   5   0  -8 96.3245 134.066   1
  -5   0  -8-147.006 337.739  19
   0   5  -8-47.4169 148.281  13
   0   5  -8-28.5101 65.9658  12
  -5   0   8-55.4012 67.9630  17
  -5   0   8-93.1270 145.537  16
   0   5  -8-141.495 253.717  18
   0  -5   8 1.84429 79.4428   6
  -5   0   8 29.4754 112.757   2
   5   0   8-15.9003 130.115   6
   5   0  -8-28.5957 106.082  18
   5   0  -9 246.089 154.331  11
   5   0  -9 623.231 216.550  14
   5   0  -9 477.759 249.971   1
   0   5  -9 1079.37 377.346  13
   0  -5   9 783.200 308.055   6
   0  -5   9 820.177 369.360  17
  -5   0   9 81.1556 85.9817  16
   0   5  -9 1266.90 322.372  12
   5   0   9 599.228 291.741  16
  -5   0   9 926.154 347.111   2
   0   5  -9 1056.50 322.321  18
   5   0   9 487.271 278.760   8
   5   0   9 309.169 132.950  14
  -5   0   9 936.616 378.162  17
   5   0  -9 319.444 195.150  18
   0   5  -9 1364.10 412.174   3
   5   0   9 866.921 386.989   6
   0  -5   9 511.132 241.278  16
  -5   0   9 878.619 256.871   5
   5   0 -10 14.8325 27.7689  14
   0  -5  10-52.6679 69.7347  17
   0   5 -10-24.6741 58.3023   3
   0  -5  10 81.0401 115.282   6
   5   0 -10-38.2351 90.4160  11
   0   5 -10-26.5944 54.0305  12
   5   0 -10 2.42999 35.1910   1
   5   0  10-45.3110 132.802   6
   5   0  10-67.5012 140.662  16
   0   5 -10-78.0207 88.1493  18
  -5   0  10 47.0685 126.783   2
   5   0 -10-15.1212 82.2859  18
   5   0  10-7.66656 139.731   8
  -5   0  10 68.1334 129.151  17
   0   5 -10 4.27933 8.57006   4
  -5   0  10-23.8954 97.8388  16
   5   0  10-160.649 315.742  14
   0   5 -10-14.6016 101.099  13
   0  -5  10-30.9134 116.363  16
   0   5 -11 10.7852 78.1074  12
   5   0 -11 1.25531 38.7273  14
   0  -5  11-39.3649 72.0483  14
   0  -5  11-61.5040 80.5891   6
   0   5 -11 0.02016 9.02210   4
   0   5 -11-42.3915 127.120   3
   5   0  11-35.3420 156.531   6
  -5   0  11 0.53987 22.0595  17
   5   0 -11-38.8528 125.078  18
   0  -5  11 31.9197 72.1899  16
   5   0  11-52.5990 164.387   8
   5   0 -11-49.3582 160.324  11
   0   5 -11-67.0590 131.947  18
  -5   0  11 2.92958 22.2583  16
   0   5 -11 93.8043 164.556  13
   5   0 -11-50.1946 97.1798   1
   5   0  11-52.7397 124.735  16
  -5   0  11-34.8885 48.5826   2
   0  -5  11-47.2440 95.2338  17
   0  -5  12 54.2828 53.6000  14
   5   0 -12-174.975 280.047  11
   5   0  12-141.522 378.811   8
   5   0  12-51.9512 136.355  16
   0   5 -12 452.229 321.534  13
  -5   0  12-0.93556 44.3246  17
   0  -5  12 76.2608 94.4746   2
  -5   0  12 97.1093 166.687  16
   0  -5  12 314.489 263.312  16
   0  -5  12 40.8145 80.5371   6
   0   5 -12 397.229 382.013   3
   0  -5  12 137.787 125.737  17
   5   0 -12 1.15211 64.4796   1
   5   0 -12 16.6038 69.4964  14
   5   0 -12-62.6912 190.309  18
   0   5 -12-107.390 145.448  18
   0   5 -12 929.189 313.841  12
   5   0  12-189.126 339.015   6
  -5   0  12-12.0244 137.382   2
   0   5 -12 64.4167 61.2947   4
   0  -5  13 946.921 366.161   6
  -5   0  13 825.240 369.276   2
   0   5 -13 914.476 312.463  12
   0   5 -13 995.348 354.342   3
   0   5 -13 1760.62 477.943  11
   0  -5  13 753.476 428.681   2
   5   0 -13 192.573 166.793   1
   5   0  13 74.3446 257.823   8
   5   0  13 499.295 327.984  16
   5   0 -13-54.9940 269.127  11
   0  -5  13 1471.60 447.818  17
   5   0  13 185.896 335.188   6
   0  -5  13-70.4140 129.376   8
  -5   0  13 799.985 368.253  17
   0  -5  13 956.374 415.630  16
   0   5 -13 975.005 307.337  18
   0   5 -13 611.705 300.722  13
   5   0 -13-46.5997 168.793  18
   0  -5  13 1000.11 187.911  14
   0  -5  14 8.11679 54.9029  16
   0  -5  14 6.11065 85.1499   6
   0   5 -14 637.887 591.955   7
   0   5 -14 209.035 180.796  13
   0   5 -14 107.614 89.2741  12
   0   5 -14 10.8487 121.508   3
  -5   0  14 57.4609 132.982   2
   0   5 -14 250.676 396.164  20
   5   0  14-257.216 510.028   8
   0  -5  14 67.3165 104.151   2
   0  -5  14-41.0144 52.1088  17
  -5   0  14-273.064 381.149  17
   0   5 -14 139.599 293.829  15
   0   5 -14-6.67264 28.1552  18
   0  -5  14-41.0245 73.5150   8
   5   0  14-14.7464 115.081  16
   0   5 -14 87.4683 114.049  11
   0   5 -15 219.478 192.058  12
   0   5 -15 13.0673 97.8343   3
   0   5 -15 38.1029 172.448  15
   0   5 -15 390.534 250.958  11
   0   5 -15 138.132 116.524  18
   0  -5  15 214.635 143.795   6
   5   0  15 66.2844 145.521  16
   5   0  15-347.895 538.406   8
   0  -5  15 74.9571 56.6918   8
   0  -5  15 208.355 227.242   2
   0  -5  15 216.336 199.035  17
   0  -5  15 273.071 255.200  16
   0   5 -15 222.404 403.272   7
  -5   0  15 224.763 249.666   2
   0   5 -15 316.231 338.838  20
   0   5 -15 335.350 281.833  13
   0   5 -16 674.610 508.940  10
   0   5 -16 309.055 326.012  13
   0   5 -16 102.197 196.427  12
   0   5 -16-18.9330 336.542   7
   0   5 -16-48.2193 135.625  11
   0   5 -16-11.2573 63.9552  18
   0  -5  16-62.6741 37.4608  17
   0   5 -16 77.5561 169.174   3
   0   5 -16 24.0736 234.426  20
   0  -5  16-29.5664 59.3544   8
   0  -5  16 175.718 197.396  16
   0  -5  16-46.1873 68.8264   6
   0  -5  16-99.4529 169.991   2
   5   0  16-363.225 512.975   8
   5   0  16 50.3898 163.185  16
   0   5 -16 72.4336 165.221  15
   0  -5  17 122.315 63.6636   8
   0   5 -17 88.8347 86.6994  18
   0   5 -17 402.961 329.588   3
   0   5 -17 227.097 198.589  11
   0   5 -17-800.291 503.715  15
   0  -5  17 211.598 275.176   2
   0   5 -17 148.684 254.058  20
   0  -5  17 112.392 157.665  16
   0   5 -17-213.540 278.233  10
   0  -5  17 382.231 307.454  17
   0   5 -17 349.562 339.280  12
   0   5 -17 1534.13 749.871   9
   0   5 -17-844.097 543.779   7
   0  -5  17 48.5770 142.927   6
   0   5 -18 402.368 389.255  10
   0  -5  18 117.424 97.8645   8
   0   5 -18 250.741 264.870  12
   0   5 -18 186.721 273.799  20
   0   5 -18 78.3005 121.310  18
   0   5 -18 171.819 317.329   3
   0   5 -18 66.2116 125.828  11
   0  -5  18 27.6189 119.014  16
   0  -5  18 51.7018 200.368   6
   0   5 -18-520.836 829.549   7
   0  -5  18 60.3901 164.311   2
   0  -5  18-98.6352 211.935  17
   0   5 -19 1279.89 507.100  12
   0   5 -19 1400.49 638.034  10
   0   5 -19 1183.18 583.781   9
   0  -5  19 1988.44 750.480   2
   0   5 -19 966.097 383.410  18
   0  -5  19 2236.80 640.718  17
   0   5 -19 1383.14 504.310  11
   0  -5  19 1688.62 726.849  16
   0   5 -19 504.031 617.836  20
   0  -5  19 1083.87 591.542   6
   0   5 -20 755.371 432.913  12
   0   5 -20 773.803 578.290  10
   0   5 -20 500.402 570.674   9
   0   5 -20 337.560 229.959  18
   0  -5  20 307.736 267.768  17
  -5  -1   0 111.948 105.758   4
   5   1   0 236.052 145.861   8
   5  -1   0 205.511 129.960   1
  -5  -1   0 120.355 117.920  19
   5  -1   0 94.5831 59.8702  18
  -5   1   0 288.647 178.047  19
   5   1   0 59.1419 37.0263   6
   5  -1   0 197.175 117.387   8
  -5  -1   0 131.860 111.078  17
   5  -1   0 205.937 121.289  14
  -5   1   0 94.9402 76.4344  17
  -5   1   0 199.611 86.3073   2
  -5   1   0 245.243 134.308   5
  -5   1   0 264.358 160.861   4
   5   1   0 186.900 123.937  18
  -5   1   0 177.469 110.398  12
   5  -1   0 319.880 144.048   6
  -5  -1   0 85.1921 40.7848   5
   5   1   0 198.478 139.643  14
   5   1   0 255.798 168.930   1
   5   1  -1 2561.72 332.689  13
  -5  -1  -1 1353.86 400.769  17
   5  -1  -1 2767.81 460.383   8
   5  -1  -1 3457.35 473.864   6
   5   1  -1 3476.61 634.626   1
  -5  -1   1 2203.64 509.992   5
  -5   1  -1 2723.24 432.054  12
   5  -1  -1 3012.20 499.289   1
  -5  -1   1 2241.64 478.906  19
  -5   1  -1 3489.83 541.106   5
  -5  -1   1 2559.03 492.894   2
  -5   1   1 3227.71 521.993  19
  -5   1  -1 3501.88 341.855   2
   5   1  -1 3251.46 496.203  18
   5  -1   1 3341.71 536.537  14
  -5  -1   1 1770.42 411.561   4
  -5  -1  -1 843.189 295.184   4
  -5   1   1 2587.33 356.921   2
   5  -1  -1 1163.93 256.501  18
  -5   1  -1 3522.24 537.216   4
   5  -1   1 3245.88 509.331   8
  -5   1  -1 3228.46 544.278  19
   5   1  -1 1556.21 273.552   6
  -5   1  -1 1154.44 261.799  17
  -5   1   1 1020.01 253.872  12
   5   1   1 2736.35 459.461  18
   5   1   1 1005.13 270.910   6
  -5  -1  -1 1153.28 380.342  19
  -5  -1   1 2401.31 503.542  17
   5  -1   1 1720.58 271.083  18
  -5   1   1 2929.76 492.228   5
   5   1  -1 3469.21 518.232   8
   5   1   1 2781.36 522.380   8
   5   1   1 2514.30 550.279  14
  -5   1  -1 1173.88 257.513   3
  -5   1   1 1207.83 303.896  17
   5  -1   1 4181.00 542.340   6
   5  -1  -1 3099.16 512.575  14
   5   1   1 3273.72 634.771   1
   5   1  -1 2513.85 530.517  14
  -5   1   1 2920.94 464.605   4
   5  -1   1 3241.68 512.401   1
  -5   1  -2-50.3897 68.6197  19
   5  -1   2 50.3468 65.4214  14
  -5   1  -2 5.10868 39.0315  17
  -5  -1   2 63.0227 95.4686   2
   5  -1  -2 49.5600 42.6240  14
  -5   1   2 22.0988 35.7347   2
  -5  -1   2 14.0004 64.1264   7
   5   1  -2 90.4735 110.188   8
   5   1  -2 24.4261 35.2368  13
  -5   1  -2 26.5662 42.9327   3
  -5  -1   2 86.4538 52.7288  12
  -5   1  -2 17.4970 88.0661  12
  -5  -1   2-35.9335 86.2260  15
   5  -1   2 40.2576 68.0141   1
   5   1  -2 21.5977 38.0814   1
  -5  -1   2 37.0925 101.482   5
   5  -1  -2 42.0620 72.7770   1
  -5   1  -2 38.4192 75.0745   5
  -5  -1  -2-8.19881 117.223  19
  -5  -1   2 0.15936 43.3449  19
  -5   1   2 54.2346 79.0934  19
   5   1  -2 37.3957 41.2541  18
  -5   1   2 67.1848 76.0991   5
   5  -1  -2 11.5083 49.0438   6
   5  -1   2 47.9878 71.7659   6
   5  -1   2 28.8966 20.7765  18
   5  -1  -2 24.8233 42.6073  18
  -5   1  -2 40.5582 25.3774   2
   5   1   2 62.7729 90.7831   8
  -5  -1  -2-26.0396 103.533  17
  -5  -1   2 33.7322 101.540  17
  -5   1  -2 77.2503 91.8292   4
   5   1   2 29.7104 75.7251   1
  -5  -1   2 38.1502 87.4400   4
   5  -1   2 116.243 168.234   8
  -5   1   2 13.1384 45.7929  17
   5  -1  -2 24.7528 36.9771   8
   5   1  -2 45.5259 86.3828  14
  -5   1   2-12.2797 72.2002   4
   5   1   2-0.22285 38.6327   6
   5   1   2 28.1769 55.8314  14
   5   1   2-91.6308 198.110  18
   5   1  -2 33.6997 35.0824   6
   5  -1   3-32.3589 74.6969  14
   5   1   3 39.6269 84.2343   6
   5  -1  -3 15.4712 38.7672  14
  -5   1  -3 1.80205 41.7071   5
   5  -1   3 40.5855 31.3541   6
   5   1  -3 59.2690 81.4825  14
  -5   1  -3 79.3870 118.844  19
   5  -1  -3 24.2293 12.6755   1
   5   1  -3 0.61372 36.3309   1
  -5   1  -3 33.7045 81.1110   3
   5   1  -3 58.1271 100.505  11
  -5  -1   3 48.9617 65.0630  19
   5   1  -3 48.4140 82.8941   8
  -5  -1   3 41.2464 93.7329   5
   5   1   3-16.0178 23.6537  14
  -5   1   3-2.15966 33.0340  19
   5  -1   3 41.3504 38.4708  18
  -5  -1   3 26.0638 50.6345  17
  -5  -1  -3-39.4563 184.091  19
   5  -1   3 7.64945 82.4342   8
   5   1  -3 54.1246 74.4970  18
  -5   1   3-63.6556 110.344   2
  -5   1   3-4.97617 66.6583   5
   5   1   3-19.2054 61.3280   1
   5  -1   3 3.76640 27.9217  16
  -5  -1   3-2.79924 35.5118   2
   5  -1  -3-19.9515 57.8704  18
   5   1   3 54.4242 85.9822   8
  -5   1  -3 89.6521 148.521  12
  -5  -1   3 0.56761 19.6343  12
  -5   1  -3 8.22182 15.8693  17
  -5   1  -3-39.9220 97.7579   4
  -5   1   3-9.67891 57.2030  17
   5   1  -3 67.7934 69.6041  10
   5  -1   3 11.7393 49.1831   1
   5  -1  -3 27.3914 51.3651   8
  -5   1  -3 90.7438 101.642  10
  -5  -1   3-0.38863 27.6028   4
   5   1  -4 1395.10 386.768   1
   5   1  -4 848.918 207.282  10
   5  -1  -4 631.210 255.359   1
  -5   1  -4 508.896 121.135  17
   5  -1   4 1090.41 156.081  18
  -5  -1   4 1126.07 354.230   5
   5  -1   4 1813.61 420.437   6
   5   1  -4 1682.89 389.254  11
  -5  -1   4 1372.00 380.695   2
  -5   1  -4 986.446 264.913  20
  -5   1   4 725.619 218.291   2
   5  -1   4 1373.43 324.071  16
  -5   1  -4 749.776 174.853  10
   5   1   4 664.362 262.800   8
  -5   1  -4 983.430 322.626  19
  -5   1  -4 937.300 319.839   4
  -5  -1   4 1245.06 323.168   4
   5   1  -4 1260.77 274.188   8
   5  -1   4 1523.43 394.834  14
   5  -1   4 1616.09 400.430   8
   5   1  -4 1515.73 369.913   9
   5   1  -4 1385.16 340.873  18
   5  -1  -4 96.2843 89.4774   8
  -5  -1   4 973.942 359.206  17
   5   1   4 304.505 205.680   1
   5   1  -4 1028.09 308.476  14
  -5   1   4 845.919 253.600   5
  -5   1   4 499.808 231.627  17
  -5   1  -4 928.030 323.178   5
  -5   1   4 1131.92 304.302  19
   5   1   4 353.055 177.644   6
  -5  -1   4 1258.83 323.362  19
  -5  -1   4 1123.47 202.395  16
   5  -1   4 1578.79 379.125   1
   5  -1  -4 869.362 262.229  14
   5   1   4 934.743 378.658  14
   5  -1  -4 208.018 129.620  18
  -5   1  -5 754.336 378.940   7
  -5   1   5 133.017 63.3044   2
   5  -1   5 641.976 250.408   6
   1   5  -5 215.611 106.155  13
  -5   1  -5 546.674 294.395  15
  -5   1  -5 235.675 94.5911  10
   5  -1  -5 213.956 139.912   1
   5   1  -5 521.218 231.440  11
   5  -1   5 587.073 248.615   1
  -5  -1   5 519.333 199.392  19
   5   1  -5 418.642 170.033   9
   5   1  -5 486.576 218.783  18
   5  -1   5 577.448 258.119   8
  -5   1  -5 383.357 204.612   5
  -5   1   5 264.129 89.6873  19
   5   1  -5 486.161 171.568   8
   5   1   5 84.7246 108.172   8
   5  -1  -5 28.4937 80.2921  18
  -5   1  -5 331.279 169.826  20
   5  -1  -5 321.127 158.828  14
  -5   1  -5 365.782 239.057   4
  -5  -1   5 629.972 263.175   2
  -5  -1   5 436.431 216.718  17
   5  -1   5 603.520 273.993  14
  -5   1   5 147.502 92.2402  17
  -5  -1   5 587.418 255.499   5
   5  -1   5 602.170 240.387  16
  -5  -1   5 470.188 185.823   4
  -5  -1   5 415.944 136.033  16
   5   1  -5 398.186 202.161   1
  -5   1  -5 345.422 180.039  19
   5   1  -5 307.203 117.449  10
   5   1   5 279.709 243.235  14
   5   1   5 29.0620 149.593   6
   5   1  -5 366.786 187.802  14
  -5  -1   6 2060.59 543.822  17
  -5   1  -6 1147.48 356.055  19
   5  -1   6 1914.48 462.842   1
   5   1  -6 652.500 221.337  10
   1   5  -6 1854.33 534.085  13
  -5  -1   6 2112.68 388.700   4
  -5   1  -6 1059.99 331.924  20
  -1   5  -6 1838.01 408.685  12
   5   1  -6 2144.56 495.155   1
   5  -1  -6 911.194 296.055   1
  -1  -5   6 54.3095 140.230   6
  -5  -1   6 2255.35 400.627  19
  -5  -1   6 2432.50 481.628   5
   5  -1   6 2697.29 548.262   8
   5   1  -6 2273.67 486.178  11
  -5   1   6 1108.03 366.933  17
  -5  -1   6 2640.87 527.624   2
   5   1  -6 1810.51 403.891   9
  -1   5  -6 953.979 383.380  13
   5  -1  -6 1043.21 295.719  14
  -5   1  -6 1081.63 371.823   4
   5   1  -6 2054.06 431.367  18
   5  -1   6 2926.10 608.396  14
  -5   1  -6 577.449 179.511  10
   5   1  -6 1362.17 282.339   8
   5  -1   6 2431.13 493.470  16
  -5  -1   6 1995.34 345.309  16
   1  -5   6 391.735 216.019   6
   5   1  -6 1859.40 390.420  14
  -5   1  -6 1946.54 595.029   7
  -5   1  -6 1745.16 551.353  15
   1   5  -6 1920.08 447.206   3
  -1   5  -6 2420.31 535.735   3
   5   1   6 420.509 143.928   6
   5   1   6 700.831 325.292  14
   5  -1   6 2940.71 600.310   6
   5  -1  -6 260.293 110.153  18
   1   5  -7 469.598 213.480   3
   5   1  -7 304.226 148.146  14
   5  -1   7 471.033 248.416   6
  -5   1  -7 299.752 251.585  15
  -1  -5   7 125.991 117.084   6
  -1   5  -7 309.625 217.325  13
   1   5  -7 349.998 214.596  13
   5  -1   7 409.541 211.752   8
   5  -1  -7 124.436 101.832  14
  -1  -5   7 40.9001 154.513  17
  -5  -1   7 421.032 257.016  17
  -1   5  -7 439.478 205.618  12
  -5   1  -7 205.277 159.289  20
   5  -1  -7 44.7771 24.7252   1
   5   1  -7 232.144 166.703  10
   5   1  -7 423.432 196.092  11
   5   1  -7 348.561 190.744  18
   5   1  -7 269.412 188.681   9
   5  -1   7 350.755 190.458  16
  -5  -1   7 507.605 264.540   2
  -5  -1   7 323.159 164.433   5
  -5  -1   7 445.971 179.254  19
   5   1  -7 318.138 199.739   1
  -1   5  -7 467.325 240.200   3
  -5   1  -7 183.179 180.754  19
  -5   1  -7 52.1989 57.5918  10
   5  -1   7 78.4679 43.6975   1
  -5   1  -7 26.3819 96.8623   4
   5  -1  -7-21.6967 149.663  18
   1  -5   7 152.498 128.411   6
  -5   1  -7 273.033 222.457   7
  -5  -1   7 360.167 158.179   4
  -5  -1   7 376.885 171.351  16
   5   1   7-18.1036 340.499  14
   5   1   7-174.296 311.157   6
  -5   1   7 71.9436 98.7520  17
   5  -1   7 396.591 231.644  14
   1   5  -8 3236.29 600.463   3
  -1   5  -8 2522.18 585.317  13
   1   5  -8 3077.97 664.468  13
  -5  -1   8 3367.25 549.619   5
   5  -1   8 2441.75 263.148   2
  -5   1  -8 873.712 312.499  15
  -5  -1   8 1579.96 337.944  19
  -5  -1   8 2692.42 634.194  17
  -5   1   8 1466.61 437.973  17
   5   1  -8 2286.12 508.224   1
   5  -1   8 3150.48 624.321   8
   5   1  -8 2184.94 497.362  11
   1   5  -8 2602.97 455.595  12
  -5  -1   8 3108.21 612.245   2
  -5   1  -8 779.896 338.246  19
  -5   1  -8 626.198 274.306  20
   1  -5   8 473.239 252.775  17
  -1  -5   8 1411.33 402.567   6
   5  -1  -8 137.266 126.673  18
  -5  -1   8 2725.50 409.702   4
   5   1  -8 1110.60 366.243   9
   5  -1  -8 550.686 211.470   1
   5  -1   8 3197.10 689.784   6
  -5   1  -8 321.187 85.6609  10
   1  -5   8 1983.26 486.501   6
   5   1  -8 2302.52 409.969  14
   1   5  -8 2397.83 553.152  18
  -1  -5   8 1060.57 509.505  17
   5   1  -8 2304.01 485.191  18
   5  -1   8 2998.17 624.303  16
   5   1  -8 408.211 182.242  10
  -5   1  -8 1182.93 486.866   7
  -1   5  -8 3091.84 554.783  12
   5  -1   8 3366.71 689.943  14
  -1   5  -8 3640.43 679.013   3
  -5  -1   8 2099.07 427.213  16
   5  -1   9 825.750 333.934   8
  -5   1  -9-93.4140 240.566  10
  -1  -5   9 610.365 260.907   6
   1  -5   9 483.900 202.316  16
  -5   1  -9-210.382 349.210  15
   1  -5   9 879.192 310.780   6
  -1   5  -9 1131.67 319.865  12
  -5  -1   9 912.866 309.992   5
  -5   1  -9 137.387 132.347  19
  -5  -1   9 859.490 342.361   2
   5   1  -9 640.914 289.183  11
   5   1  -9-92.6329 175.316  10
  -1   5  -9 1004.28 289.497  18
  -1  -5   9 323.202 183.666  16
   1   5  -9 1103.20 291.758  12
   5   1  -9 285.306 207.620   9
   1   5  -9 975.983 393.166  13
   5  -1   9 802.199 163.704   2
   5   1  -9 801.227 306.038  18
   5   1  -9 730.784 304.267   1
   5  -1   9 1258.07 453.739   6
  -5  -1   9 1146.90 436.350  17
  -1  -5   9 528.402 307.591  17
   1   5  -9 726.818 274.844  18
   5  -1   9 870.830 367.520  14
   5  -1   9 1008.51 383.517  16
  -5  -1   9 729.526 269.915  16
  -5   1  -9-262.849 352.320   7
   1   5  -9 1250.24 370.742   3
   5   1  -9 714.957 229.840  14
  -1   5  -9 1437.81 407.031   3
  -5   1  -9 0.04405 183.143  20
  -5  -1   9 807.842 211.624   4
   1  -5   9 723.072 315.687  17
  -1   5  -9 855.734 346.770  13
   5   1 -10 114.282 144.852  11
   5   1 -10 167.121 112.837  14
   1   5 -10 284.965 202.829   3
   5  -1  10 207.335 221.391  14
  -1   5 -10 232.621 89.9780   4
  -1   5 -10 350.707 166.858  18
  -1   5 -10 277.671 194.264  13
   1  -5  10 175.374 73.5922   6
  -5  -1  10 244.102 158.913   5
  -1   5 -10 282.080 152.266  12
   1   5 -10 198.274 117.939  12
  -5   1 -10-171.700 354.221  20
  -5   1 -10 11.6586 126.323  19
   1  -5  10 244.550 167.823  17
   5  -1  10 107.235 135.747   8
   5   1 -10 60.0015 188.938   9
   5   1 -10 97.8647 101.626  18
  -1   5 -10 344.329 202.005   3
   1   5 -10 330.745 209.390  18
  -1  -5  10 359.226 295.515  17
   1   5 -10 206.379 212.300  13
  -5  -1  10 127.316 150.821  17
   1  -5  10 117.623 56.1530  14
  -1  -5  10 91.8439 57.5221  16
   1  -5  10 188.771 172.279  16
   5   1 -10 163.139 157.960   1
   5  -1  10 145.112 116.484  16
  -5  -1  10 140.380 130.835  16
  -1  -5  10 286.817 206.009   6
  -5  -1  10 169.194 164.434   2
   5  -1  10 155.945 174.159   6
   5  -1  10 168.021 60.2290   2
   5   1 -11 321.570 163.238  14
  -5  -1  11 523.582 233.138   5
   1   5 -11 547.160 205.306  12
  -1   5 -11 618.901 257.543  12
   1   5 -11 506.794 281.302  13
   1  -5  11 672.484 173.204  14
  -1  -5  11 495.987 216.784   6
   5   1 -11 198.323 104.121  11
  -1   5 -11 446.223 235.672  13
   1   5 -11 678.481 243.648  18
  -1   5 -11 605.337 267.461   3
  -1  -5  11 357.489 276.784   2
   1  -5  11-101.686 151.151   8
   1  -5  11 690.897 261.940  17
  -1  -5  11 568.512 287.479  17
   5   1 -11-418.322 387.034   9
  -5  -1  11 508.758 278.068   2
   1   5 -11 574.430 253.554   3
   1  -5  11 466.545 225.695   6
  -1  -5  11 311.845 219.169  16
  -5  -1  11 488.183 286.030  17
  -1   5 -11 673.558 171.219   4
   5  -1  11 494.366 252.242   6
   5   1 -11 288.070 185.127  18
   1  -5  11 516.001 307.472  16
   5  -1  11 363.482 239.475   8
   5   1 -11 253.605 139.075   1
  -1   5 -11 645.746 205.034  18
   5  -1  11 564.867 277.469  16
  -5  -1  11 454.735 230.379  16
   5  -1  11 303.062 216.201  14
  -5   1 -11-52.4606 148.755  19
   5  -1  11 433.618 123.845   2
   1  -5  12 678.104 326.815  17
   5   1 -12 78.7188 70.6895  14
  -5  -1  12 22.3977 42.3065   5
   5  -1  12 195.765 167.880   8
  -1  -5  12 108.160 195.907   6
   1  -5  12 396.489 306.916   6
   5   1 -12 2.98330 94.6854   1
  -1  -5  12 345.185 268.068  17
   1   5 -12 443.570 321.768   3
   1   5 -12 401.195 260.972  12
   5  -1  12-74.5694 197.449  16
   5  -1  12-13.7212 134.680   2
  -1  -5  12 123.513 310.402   2
   1   5 -12 548.420 461.672  13
   5   1 -12-523.209 492.689   9
   5  -1  12-92.9301 212.513  14
  -1  -5  12 108.062 195.274  16
  -1   5 -12 454.020 247.711   4
  -5  -1  12-25.2545 66.9558  17
   1  -5  12 374.643 311.500  16
   1   5 -12 163.851 147.778  18
   1  -5  12 171.072 84.1534  14
  -5   1 -12-93.5309 182.833  19
  -5  -1  12 50.4767 142.858  16
  -5  -1  12 126.674 166.709   2
   5   1 -12-34.9602 184.763  18
   5   1 -12 129.872 154.205  11
   5  -1  12-52.0487 136.334   6
  -5  -1  13 680.168 266.263   5
   5   1 -13 317.864 142.423  14
  -1   5 -13 718.749 342.826  13
   1   5 -13 690.312 347.432  13
   1   5 -13 743.351 303.881   3
  -1   5 -13 686.107 317.991   3
  -1  -5  13 629.063 408.296   2
  -5   1 -13-198.391 272.107  19
  -1  -5  13 616.328 334.354  16
   1   5 -13 1567.73 508.483  11
   5  -1  13 606.402 370.836   6
   1  -5  13 722.124 380.885   2
  -1   5 -13 870.235 309.974  12
   1   5 -13 795.283 271.869  18
  -1   5 -13 1090.00 292.655  18
  -1  -5  13 457.701 262.272   6
   5  -1  13 524.206 296.004   8
   1   5 -13 867.314 283.062  12
  -5  -1  13 646.568 333.200  16
   5   1 -13 213.011 148.374  11
  -1  -5  13 863.362 311.349  17
   5   1 -13 368.853 224.138  18
   1  -5  13 930.952 434.396  16
   5  -1  13 681.579 364.975  16
  -5  -1  13 862.611 371.514   2
   5   1 -13 258.546 198.790   1
   1  -5  13 546.957 185.306   8
   1   5 -13 963.663 606.305  15
   1  -5  13 1243.96 369.696  17
   1  -5  13 1015.11 207.756  14
   5  -1  13-30.0775 417.957  14
  -5  -1  13 701.552 352.971  17
   5   1 -13-628.916 544.181   9
   5  -1  13 606.180 184.794   2
  -1   5 -13 1087.73 372.532  11
   1  -5  13 932.255 387.846   6
  -5   1 -14 78.7718 125.977  19
   1  -5  14 1013.18 396.444   6
  -5  -1  14 753.358 385.880   2
   1   5 -14 709.030 299.980   3
  -1   5 -14 673.811 270.302  12
   1   5 -14 863.165 285.750  12
  -1   5 -14 742.977 324.085   3
   1  -5  14 859.014 446.224   2
   1   5 -14-73.7331 243.552   1
   1   5 -14 603.186 351.151  13
   5   1 -14 201.067 142.314   1
   5   1 -14 156.364 121.564  11
  -1  -5  14 537.357 251.833   6
   5  -1  14 524.367 287.689   8
   1   5 -14 850.605 329.355  18
   1   5 -14 679.965 486.855  15
   1  -5  14 607.719 208.729   8
  -1   5 -14 485.295 286.546  13
  -1   5 -14 984.381 289.603  18
  -1  -5  14 769.500 319.010  17
   5  -1  14 664.582 403.291   6
  -1  -5  14 676.170 420.274   2
   1   5 -14 1155.97 400.320  11
  -5  -1  14 626.682 381.417  17
  -1   5 -14 1342.45 672.273  15
  -1  -5  14 788.372 406.095  16
   1  -5  14 808.020 441.895  16
   1  -5  14 1014.17 363.623  17
   1   5 -14 1517.85 655.263  20
   5  -1  14 756.861 434.750  16
  -5  -1  14 531.820 282.880  16
   1   5 -14 1018.09 620.604   7
  -1   5 -14 1542.05 767.188   7
  -1   5 -14 1126.29 367.071  11
  -5  -1  14 569.905 238.575   5
   5   1 -14 290.887 150.810  14
   1  -5  14 707.433 198.793  14
   5  -1  14 696.750 230.081   2
   5   1 -14 203.156 174.554  18
   1  -5  15 646.188 412.165  16
  -1  -5  15 366.448 202.682   6
   5   1 -15 148.346 97.9909  14
   1  -5  15 904.540 380.756   6
  -1  -5  15 665.666 414.988  16
  -1  -5  15 773.949 325.325  17
  -1   5 -15 423.027 277.248  13
  -1   5 -15 553.198 282.068  12
   1   5 -15 669.041 273.812  12
   1   5 -15 628.606 295.896   3
   1  -5  15 857.634 427.805   2
  -1   5 -15 406.209 266.090   3
  -1   5 -15 700.188 600.177   7
   1   5 -15 1257.28 451.537  11
  -1   5 -15 954.508 354.028  11
   1   5 -15-56.5124 124.290   1
  -1  -5  15 483.100 351.315   2
   1   5 -15 589.856 513.069  20
   5  -1  15 521.598 347.286  16
  -1   5 -15 699.651 582.519  20
   1   5 -15 710.871 291.142  18
   1  -5  15 543.052 173.464   8
   5  -1  15 480.713 305.502   8
  -5  -1  15 524.459 213.800   5
  -1   5 -15 704.010 262.145  18
  -1   5 -15 588.157 434.722  15
   5   1 -15 203.624 189.950  18
   1   5 -15 703.703 385.706  13
  -5   1 -15-148.466 294.144  19
   1  -5  15 800.142 309.836  17
   5   1 -15 159.877 174.820  11
  -5  -1  15 679.386 379.175  17
   1  -5  15 235.220 129.003  14
   1   5 -15 569.743 467.153   7
  -5  -1  15 557.661 345.681  16
  -5  -1  15 781.597 392.661   2
   1   5 -15 402.122 366.325  15
   5  -1  15 433.265 344.869   6
   5   1 -15 181.081 177.014   1
   5  -1  15 635.534 248.921   2
   5   1 -16-11.4875 25.4817  14
  -1   5 -16 137.000 233.778  12
   1   5 -16-156.344 433.212  15
   1   5 -16 120.623 211.485  13
  -5   1 -16-400.489 397.346  19
   1   5 -16-45.9220 42.5910  12
   1   5 -16 110.831 213.263   3
  -1  -5  16 6.60111 152.642  16
   1   5 -16-144.897 182.416  11
  -1  -5  16 47.9430 176.539   2
   1   5 -16-74.0059 156.134   1
   5  -1  16-0.90892 95.0222   8
  -1   5 -16 187.637 263.086  13
   1  -5  16 160.413 203.883  17
   1   5 -16 184.440 377.976  10
   5   1 -16-21.2876 112.521   1
  -1   5 -16 178.697 377.682  20
   1  -5  16 141.840 255.657  16
  -1   5 -16 54.6686 142.166  18
  -1   5 -16 166.873 393.886  10
  -1   5 -16 28.9000 197.351  15
   5   1 -16-129.253 224.236  11
  -1   5 -16 143.127 189.697  11
   5   1 -16-69.5905 173.530  18
  -5  -1  16-69.4361 154.870   5
   1  -5  16-8.71422 41.5940   6
  -5  -1  16 191.183 215.634  17
   1  -5  16 57.2057 95.4094   8
  -1  -5  16 28.6875 141.210   6
   1   5 -16-167.189 363.014   7
  -1   5 -16 218.262 242.655   3
  -5  -1  16 231.647 208.104  16
  -1  -5  16 24.6212 151.454  17
   5  -1  16 24.1387 152.838  16
  -1   5 -16-19.0764 98.5078   7
  -5  -1  16-75.6381 145.262   2
   5  -1  16-277.421 381.288   6
   1  -5  16-59.2933 144.897  14
   1   5 -16-206.919 158.782  18
   1   5 -16-56.3591 186.258  20
   5  -1  16 75.1772 106.926   2
   1  -5  16 187.809 267.081   2
   1  -5  17 456.072 293.855   6
   5   1 -17 150.566 148.964   1
   5   1 -17 84.5522 78.4887  14
   1   5 -17 1778.46 796.160   9
  -1   5 -17 593.047 280.411  11
  -1   5 -17 293.753 420.367  20
  -1   5 -17 680.679 371.116  12
   1   5 -17-27.1949 92.5126   1
   1   5 -17 514.249 321.394  12
   1   5 -17 862.250 373.406  11
   1   5 -17 80.6908 209.185  20
   1   5 -17 784.154 517.879  10
  -1  -5  17 689.152 395.642   2
  -5   1 -17-538.573 488.769  19
   1  -5  17 642.656 452.992  16
  -1  -5  17 913.638 459.100  16
   5   1 -17-141.358 284.897  18
   1  -5  17 817.167 434.006   2
  -5  -1  17 583.100 336.838  16
  -1   5 -17 536.183 243.205  18
   1   5 -17 663.446 315.565  18
   5  -1  17 420.013 254.784   8
  -5  -1  17 415.448 156.610   5
   5  -1  17-80.2566 436.098   6
  -5  -1  17 491.411 378.739  17
  -1   5 -17 855.903 421.989  13
   1  -5  17 697.573 221.489   8
   5   1 -17-44.7757 199.829  11
   1   5 -17-410.412 684.623   7
  -1   5 -17 254.108 232.001  10
   1   5 -17 644.000 392.312   3
  -1  -5  17 267.190 93.8131   8
  -1   5 -17 266.430 232.331   7
  -1   5 -17 920.436 455.810   3
   5  -1  17 785.026 499.506  16
   1  -5  17 1021.83 383.344  17
  -5  -1  17 829.346 417.854   2
  -1   5 -17 196.441 214.608  15
  -1   5 -17 1751.40 808.716   9
   5  -1  17 792.619 301.746   2
  -1  -5  17 144.566 138.448   6
  -1  -5  17 1169.85 472.895  17
  -1   5 -18 1304.24 690.337   9
   1   5 -18 1235.60 636.289   9
   1  -5  18 624.601 404.858  16
  -1  -5  18-7.90696 172.781   6
   1   5 -18 517.854 329.838  12
  -1   5 -18 436.231 568.766  20
  -1   5 -18 656.387 434.095  12
  -1  -5  18 830.837 388.999  17
  -1   5 -18 528.241 413.870   3
   1   5 -18 229.725 172.107  11
  -1   5 -18 776.449 337.377  11
   1   5 -18 357.186 415.870  20
   5   1 -18-297.609 407.549  11
   1   5 -18 491.810 360.702  10
   1   5 -18 410.321 255.383  18
  -1  -5  18 924.097 508.986   2
   1  -5  18 682.582 419.477   2
  -1   5 -18 647.334 550.832  10
  -1   5 -18 478.131 252.750  18
   5  -1  18 557.079 372.924   8
   5   1 -18 228.090 238.760   1
   1  -5  18 783.118 367.616  17
   1  -5  18 917.102 481.469   6
   1  -5  18 683.591 241.754   8
  -5  -1  18 347.665 314.444  17
  -5   1 -18-280.379 444.348  19
  -1  -5  18 864.774 452.167  16
  -5  -1  18 492.994 325.036   2
   1   5 -18 504.839 382.855   3
  -1   5 -18-582.007 624.422   7
   5  -1  18 890.108 460.300  16
  -5  -1  18 450.874 339.765  16
  -1   5 -18-570.634 676.221  15
   5  -1  18 577.657 283.116   2
  -1   5 -19 1176.52 627.718   9
   1   5 -19 1125.65 447.676  11
   1   5 -19 974.649 583.072   9
   5  -1  19 736.281 343.884   2
   1  -5  19 754.459 506.393   2
  -1   5 -19 818.353 490.099  12
   1   5 -19 754.063 441.291   3
   1   5 -19 565.255 330.951  18
  -1  -5  19 748.219 537.668   2
   1   5 -19 646.639 388.038  12
  -1   5 -19 397.463 617.204  20
  -1  -5  19 925.198 505.655  17
   1  -5  19 1002.44 463.841  17
   1  -5  19 876.936 314.641   8
  -5  -1  19 592.144 390.908   2
   1   5 -19 337.076 434.063  20
   5  -1  19 352.245 211.626   8
  -1   5 -19 1053.52 640.245  10
   1  -5  19 781.351 487.678  16
   1   5 -19 1009.16 525.754  10
  -1   5 -19 467.703 283.218  18
   5  -1  19 811.433 528.698  16
  -1  -5  19 676.018 385.830  16
  -5  -1  19 475.020 382.026  16
  -1   5 -19 1212.13 446.525  11
  -1  -5  19 199.677 400.760   6
   1  -5  19 514.568 305.156   6
   5   1 -19 251.535 253.240   1
   5   2   0 4245.53 826.333   1
   5  -2   0 3287.28 523.891   1
   5  -2   0 3587.06 558.582   6
  -5  -2   0 12.8446 164.159  19
  -5   2   0 4335.54 570.003   5
  -5  -2   0 290.202 183.035  17
  -5   2   0 5150.09 670.315  19
   5  -2   0 3620.78 566.201   8
  -5   2   0 4228.79 566.536   4
  -5   2   0 1850.90 380.783  12
   5   2   0 1518.01 501.578  14
   5   2   0 2285.80 504.114   8
   5   2   0 3425.82 598.707  18
   5  -2   0 4019.65 586.376  14
  -5   2   1 500.025 219.828  19
   5  -2   1 330.146 162.837   8
  -5   2  -1 296.998 148.360  12
   5  -2  -1 336.217 170.123  14
   5  -2   1 492.569 204.107  14
  -5   2  -1 495.629 198.653  19
  -5   2  -1 490.349 202.448   5
   5   2   1 218.461 85.5162   1
   5   2   1 51.3397 194.667   8
  -5  -2   1 49.5691 48.6026  19
   5  -2   1 515.487 213.299   6
   5   2  -1 395.831 216.018   8
   5   2  -1 412.056 230.431   1
  -5   2  -1 457.668 172.748   4
   5  -2  -1 253.216 150.604   1
   5  -2  -1 253.082 153.360   8
  -5  -2   1 207.194 176.814  17
   5   2   1 101.644 126.785  14
   5   2  -1 235.690 200.844  14
   5   2  -1 489.920 225.255  18
   5  -2   1 426.382 179.274   1
   5   2  -2 2091.48 384.923  13
  -5   2  -2 2393.10 452.951  12
   5   2  -2 2135.64 440.004   8
   5  -2   2 2560.87 431.511   1
   5  -2   2 2883.81 505.604  14
  -5   2  -2 2782.01 459.088   5
   5   2   2 280.193 143.462  14
   5  -2   2 3530.40 563.068   6
   5   2   2 982.822 425.080   1
  -5   2  -2 2790.39 489.063   4
   5   2  -2 2619.23 535.497  18
   5  -2  -2 1548.38 361.103  14
  -5  -2   2 1420.42 445.430  17
  -5   2  -2 2869.90 519.413  19
  -5   2   2 2581.78 485.262  19
  -5  -2   2 1129.02 362.476  19
   5  -2   2 2484.23 472.773   8
   5  -2  -2 565.965 211.261   8
  -5   2  -2 1308.47 320.038   3
   5   2  -2 1180.99 382.702  14
   5  -2  -2 974.828 292.730   1
   5   2  -2 2899.17 621.808   1
   5   2  -3 3684.35 508.749   8
   5   2  -3 3566.46 673.408   1
  -5  -2   3 1668.26 483.723   5
  -5   2  -3 3264.05 541.965  12
   5  -2   3 3599.10 517.116   1
   5  -2  -3 1074.09 303.331   1
   5   2   3 147.502 249.280   1
  -5  -2   3 2905.01 626.600   2
  -5  -2   3 2122.90 465.859  19
  -5  -2   3 989.881 305.209   4
  -5   2   3 2623.38 483.123  19
   5   2  -3 3642.86 600.194  18
  -5   2  -3 3639.33 563.352   4
  -5   2  -3 3787.79 537.984   5
  -5  -2   3 2161.00 576.460  17
   5   2  -3 4149.45 538.319  13
  -5   2  -3 3720.29 588.510  19
   5  -2   3 3666.69 575.178   8
   5   2  -3 1684.25 432.893  14
   5  -2   3 4691.84 668.802   6
   5  -2   3 4171.47 614.850  14
  -5   2  -3 2567.44 451.416   3
   5  -2  -3 1406.60 367.401  14
   5   2   3 241.235 144.543  14
   5   2  -4 1565.19 348.907  13
   5   2  -4 1428.22 430.758   1
  -5   2  -4 1201.56 346.206  12
  -5   2  -4 1588.73 373.723   5
   5  -2   4 1881.35 445.862   6
  -5  -2   4 1195.62 390.878   2
   5   2  -4 1545.49 319.995   8
  -5  -2   4 1113.60 405.093  17
  -5   2  -4 1502.01 406.630   4
   5  -2   4 1441.03 376.577   8
  -5  -2   4 421.127 208.723   4
  -5  -2   4 1053.18 378.734   5
  -5   2  -4 1411.88 393.608  19
   5  -2   4 1496.70 336.019   1
   5  -2   4 1465.76 387.314  14
   5  -2   4 905.819 285.005  16
   5   2  -4 1557.54 391.752  18
  -5   2  -4 1078.05 300.218   3
   5   2  -4 692.418 271.143  14
  -5  -2   4 890.168 295.636  19
   5   2  -5 937.737 169.666   3
  -5   2  -5 1016.88 335.871  12
  -5  -2   5 736.469 258.090   4
   5   2  -5 1378.75 271.681   8
  -5   2  -5 1292.35 338.538   5
  -5  -2   5 1200.10 412.443   2
   5  -2   5 1535.52 336.926   1
  -5   2  -5 1217.57 355.126   4
   5   2  -5 437.040 228.699  14
   5   2  -5 1413.34 346.113  20
   5   2  -5 1300.12 411.349   1
   5  -2   5 1161.07 363.569  16
  -5  -2   5 1047.27 304.711  19
  -5   2  -5 1032.58 322.655  19
  -2   5  -5 796.072 315.594   3
   5  -2   5 1567.70 394.223  14
  -5   2  -5 931.740 291.961   3
  -5  -2   5 870.323 367.703  17
   2   5  -5 663.418 299.379  13
   5  -2   5 1331.82 366.346   8
  -5  -2   5 995.167 347.298   5
  -5  -2   5 780.214 220.691  16
   5   2  -5 1598.81 354.274  13
   5   2  -5 1434.92 382.507  18
   5  -2   5 1778.55 447.317   6
   5   2  -6 1536.08 387.025  20
   2   5  -6 1806.75 524.471  13
  -5   2  -6 723.220 216.610  13
   5  -2   6 2681.87 579.452   6
   5  -2   6 2403.57 430.636   1
   5   2  -6 1915.07 490.833   1
  -2   5  -6 242.293 98.8234  13
  -5   2  -6 1424.25 419.948  12
  -2   5  -6 1788.56 419.082  12
  -5   2  -6 1631.23 398.464   5
  -5  -2   6 1550.28 429.301   5
  -5  -2   6 2172.79 544.457   2
  -5  -2   6 1976.18 386.099  19
   5  -2   6 1965.40 440.329   8
   5   2  -6 2093.12 467.629  18
  -5   2  -6 1587.29 414.270  19
  -5  -2   6 1625.75 507.613  17
   5   2  -6 2742.40 578.707  11
   5  -2   6 2172.03 501.302  16
   2  -5   6 611.232 302.175   6
   5   2  -6 901.224 298.682  14
   5  -2   6 2403.52 506.279  14
   5   2  -6 2120.65 271.782   3
  -5   2  -6 1496.35 376.429   3
  -5  -2   6 1306.34 318.255   4
  -5  -2   6 1717.89 341.336  16
  -5   2  -6 1734.10 444.760   4
   5   2  -6 1990.11 317.542   8
  -2   5  -6 1855.66 481.731   3
  -5  -2   7 3785.57 768.888  17
  -2   5  -7 1849.58 517.690  13
   2   5  -7 4617.28 825.318  13
   5  -2   7 3984.05 596.355   1
  -5   2  -7 1843.12 356.874  13
   5   2  -7 3788.47 683.724   1
  -2   5  -7 4108.28 662.910  12
  -5  -2   7 3525.73 525.868  16
  -5   2  -7 2768.96 555.468   5
  -5  -2   7 3840.70 666.022   5
  -5   2  -7 2756.86 576.612   4
   5   2  -7 4683.59 763.572  11
  -5  -2   7 4272.13 773.652   2
   2   5  -7 2958.00 641.807  18
  -5   2  -7 3689.01 693.838  20
   5   2  -7 2735.12 562.165  20
   5   2  -7 4333.31 696.740  18
  -5  -2   7 3114.19 487.964   4
   5  -2   7 4877.95 713.678   8
   5   2  -7 2986.85 382.749   8
  -5   2  -7 3052.59 580.977  19
  -2  -5   7 293.864 326.827  17
  -2   5  -7 4716.36 770.540   3
   5  -2   7 4671.21 766.540  16
  -5  -2   7 4099.52 540.501  19
  -5   2  -7 3771.94 568.611  10
   5   2  -7 3857.85 647.687  10
   5  -2   7 5658.80 864.784   6
   5   2  -7 2035.39 431.960  14
   5  -2   7 5162.98 756.173  14
   2  -5   7 2058.36 542.821   6
  -2  -5   7 889.723 298.806   6
   2   5  -7 3975.44 649.562   3
   5   2  -7 4455.17 431.898   3
   2   5  -8 1229.08 430.321  13
   5   2  -8 1170.97 387.514   1
  -2  -5   8 504.882 229.724   6
  -5  -2   8 1098.44 268.401  19
  -5  -2   8 1250.44 379.731   5
  -5  -2   8 1429.93 459.043   2
   5   2  -8 1547.26 429.605  11
   5   2  -8 489.922 244.693  20
  -5   2  -8 950.453 341.139  20
  -2  -5   8 376.563 268.601  17
   5   2  -8 1009.95 332.475  10
   2   5  -8 1053.30 389.430  18
  -2   5  -8 1251.94 337.375  12
  -5   2  -8 592.187 280.950   4
   5  -2   8 585.297 241.248   1
  -5  -2   8 1017.18 270.617   4
   5  -2   8 1407.74 433.377  16
  -5  -2   8 1185.59 321.421  16
  -2   5  -8 731.720 311.263  13
   5  -2   8 1868.68 512.415   6
   5   2  -8 439.189 188.179  14
  -5  -2   8 1053.90 418.010  17
   5  -2   8 1515.50 402.632   8
  -5   2  -8 1302.45 563.329   7
   2   5  -8 1288.64 376.507   3
  -5   2  -8 1429.97 529.378  15
   5  -2   8 1694.98 453.636  14
  -5   2  -8 1026.90 265.487   9
  -2   5  -8 1481.09 422.174   3
  -5   2  -8 879.425 308.813  19
   5   2  -8 1147.12 353.574  18
   2  -5   8 899.844 328.128   6
  -5   2  -8 961.573 310.248  10
   5   2  -8 1704.48 548.177   9
   2   5  -9 1786.42 519.345  13
  -5   2  -9 454.917 232.170   4
   5   2  -9 1326.47 410.150   1
  -5   2  -9 1253.00 545.647  15
  -2  -5   9 920.922 311.196   6
  -2   5  -9 1495.31 394.310  12
   2   5  -9 1221.08 293.088  12
  -5  -2   9 1252.17 383.365   5
   2   5  -9 1518.08 480.203  18
   5  -2   9 1706.61 308.201   2
   5  -2   9-9.08065 161.911   1
  -5  -2   9 1653.63 502.424   2
   5   2  -9 1376.84 443.362  11
   2  -5   9 315.363 107.038   8
   5   2  -9 366.102 256.376  20
   2  -5   9 941.778 301.952  17
  -5   2  -9 787.166 238.989   9
   5   2  -9 812.041 322.019  10
   5   2  -9 1331.28 443.949   9
   5   2  -9 1235.76 363.755  18
  -5  -2   9 969.286 244.021  19
  -5  -2   9 1460.83 383.950  16
  -2  -5   9 518.244 210.171  16
  -2   5  -9 1492.87 278.582   4
   2   5  -9 1766.01 445.405   3
   5  -2   9 1961.93 557.168   6
  -5  -2   9 1450.13 478.167  17
   5  -2   9 1761.38 515.468  16
   2  -5   9 543.813 168.139  16
  -5  -2   9 1342.14 301.568   4
  -2  -5   9 531.640 278.445  17
   2  -5   9 1315.12 413.986   6
  -5   2  -9 1548.79 627.197   7
   5  -2   9 1627.28 435.730   8
  -5   2  -9 852.932 336.956  19
   5  -2   9 1882.53 492.708  14
  -2   5  -9 999.214 380.151  13
  -2   5  -9 1931.42 490.413   3
   2  -5   9 788.799 230.288  14
  -5   2  -9 1003.42 310.414  10
   5   2  -9 625.018 212.895  14
  -2   5  -9 1231.62 308.813  18
  -5   2  -9 1022.88 414.842  20
  -2   5 -10 1982.48 350.448   4
   2   5 -10 2010.93 554.714  13
  -2   5 -10 1394.13 427.069  13
   5  -2  10 2310.69 365.820   2
   2   5 -10 1769.93 357.390  12
   5   2 -10 1324.29 404.752   1
  -5  -2  10 1915.71 446.283   5
   5   2 -10 1548.64 475.226  11
   2   5 -10 1716.18 467.171  18
  -5   2 -10 764.284 188.020  10
   2  -5  10 1222.78 450.589  16
  -5   2 -10 663.594 249.823  19
  -2   5 -10 1794.79 349.127  18
   5  -2  10 1911.06 557.917   6
   2  -5  10 950.665 262.004   8
   5   2 -10 1618.41 456.043  18
   5   2 -10 1292.41 453.369   9
  -5   2 -10 528.359 170.419   9
  -5  -2  10 1854.66 578.460  17
  -5  -2  10 1782.06 325.453   4
   5  -2  10 2186.92 479.694   8
  -5   2 -10 938.563 409.515  15
   5   2 -10 25.4730 225.205  20
  -2   5 -10 1985.93 440.590  12
  -2  -5  10 812.462 372.063  16
   2  -5  10 1914.86 537.247   6
  -5  -2  10 1513.37 411.092  16
   2  -5  10 2002.89 431.977  17
  -2  -5  10 1075.71 462.639  17
  -5   2 -10 907.517 377.762  20
  -5  -2  10 2111.76 578.509   2
   5   2 -10 730.428 290.302  10
   5  -2  10 1814.60 537.852  16
  -5   2 -10 1019.30 451.806   7
  -2  -5  10 1093.69 357.176   6
   5  -2  10 2247.28 549.004  14
   2   5 -10 2069.97 481.764   3
   2  -5  10 1638.68 310.913  14
  -2   5 -10 2083.18 514.346   3
   5   2 -10 703.917 232.892  14
   5  -2  11 67.3884 274.109   6
   5   2 -11 117.672 146.696  18
  -2   5 -11 571.687 362.750  12
  -2  -5  11 59.6777 121.850   6
   2   5 -11 107.331 169.178   3
  -2   5 -11 781.302 502.279  13
   2   5 -11 404.388 344.527  13
  -2   5 -11 469.169 341.803   3
  -5  -2  11 63.0563 108.825   5
  -5   2 -11 94.5480 245.473  19
   2   5 -11 159.709 178.830  12
   2   5 -11-453.941 408.489   1
   2  -5  11 135.733 144.930  14
   5   2 -11 196.718 251.476  11
  -5   2 -11 115.497 335.881  10
  -5   2 -11 30.1456 286.179  20
   5   2 -11-55.6784 175.926   9
   2   5 -11 220.101 249.164  18
  -2   5 -11 194.622 154.056  18
   5   2 -11-285.239 422.092  20
  -5  -2  11 124.519 108.518   4
   2  -5  11 34.2255 271.658  17
  -2  -5  11 65.1406 156.370  16
   5  -2  11 58.3403 332.917   8
   5  -2  11 58.1357 128.742   2
  -2  -5  11-24.6402 267.059  17
   2  -5  11 175.049 359.850   6
   2  -5  11 38.7905 257.093  16
  -2   5 -11 155.977 147.325   4
  -5  -2  11 125.611 206.132   2
   5   2 -11 50.5584 84.1190  14
  -5   2 -11-151.221 294.854  15
   5  -2  11 110.853 330.916  16
  -5  -2  11 16.9207 94.4951  16
  -5   2 -11-182.474 298.986   7
  -5  -2  11 375.778 310.948  17
  -5   2 -11 268.121 403.839   9
  -2  -5  11-141.202 160.756   2
   5   2 -11 168.682 200.780   1
   2  -5  11 89.1259 215.762   8
   5  -2  11 57.4291 305.438  14
   5   2 -11 76.1417 190.363  10
  -5   2 -12 432.697 198.346  19
   2   5 -12 2318.45 612.928  13
  -5   2 -12 380.712 98.1592   7
   5   2 -12 1523.78 457.630   1
   2   5 -12 2514.51 460.314  12
  -5  -2  12 2349.61 359.701   4
  -5  -2  12 2533.06 502.287   5
   5   2 -12 1709.38 526.114  11
   5  -2  12 3332.55 495.961   2
  -5  -2  12 2705.83 670.167   2
  -5   2 -12 484.575 342.472  20
  -2   5 -12 2793.22 556.451  12
   2   5 -12 2838.62 592.040  18
  -2  -5  12 1617.90 613.770   2
   5  -2  12 2336.17 642.280  14
   5   2 -12 386.644 163.090  10
   2  -5  12 2088.16 629.169  16
   2   5 -12-23.0935 194.286   1
  -2   5 -12 2367.66 564.171   3
  -2   5 -12 3137.18 442.880  18
   5   2 -12 1830.69 509.534  18
   5   2 -12 1018.54 451.273   9
  -2   5 -12 2230.00 414.750   4
  -2  -5  12 1597.47 454.633   6
   5  -2  12 2519.16 607.618   8
  -2  -5  12 2657.30 672.550  17
  -2   5 -12 1938.63 516.763  13
  -5  -2  12 2073.79 611.334  17
  -5   2 -12 444.056 147.172  10
  -2  -5  12 1683.68 557.884  16
   5  -2  12 2506.13 673.233  16
  -5  -2  12 1961.51 509.753  16
  -5   2 -12 173.155 265.917  15
   5  -2  12 3210.36 795.741   6
   2  -5  12 2938.97 679.355   6
   2  -5  12 3136.51 428.329  14
   2   5 -12 2756.27 578.628   3
   5   2 -12 854.581 237.742  14
   2  -5  13 463.773 170.581  14
   2   5 -13 312.893 241.180  13
   5   2 -13 140.092 127.898  11
   5   2 -13 184.943 152.361   1
   2   5 -13 249.930 162.537   3
  -2   5 -13 171.585 133.814   3
   2   5 -13 369.406 172.930  12
   5  -2  13 386.094 297.460   6
  -2  -5  13 203.586 164.617   6
   2   5 -13 456.046 264.716  11
  -2   5 -13 669.396 287.254  11
  -5   2 -13 12.4665 58.2371  10
   5   2 -13 34.3886 49.1234  10
  -2   5 -13 426.801 148.829  18
  -5   2 -13-46.1142 176.439  20
  -5   2 -13-57.8017 138.158  19
  -5  -2  13 260.598 143.099   5
   5   2 -13-22.1364 150.181   9
   2  -5  13 367.693 315.534  16
  -2   5 -13-27.5672 81.5236  19
   5  -2  13 280.755 185.655  16
  -2  -5  13 236.119 241.667   2
   2   5 -13 514.543 469.541   7
  -2  -5  13 291.194 261.741  16
  -2  -5  13 455.675 270.864  17
  -5   2 -13-211.844 337.040   9
   2  -5  13 558.292 234.783  17
  -2   5 -13 308.606 248.173  13
   5  -2  13 392.062 184.158   2
   2   5 -13-58.1420 92.7609   1
  -5  -2  13 424.862 288.256   2
   2  -5  13 237.460 120.739   8
  -2   5 -13 107.981 63.7982   4
  -5   2 -13-874.133 528.357   7
  -5  -2  13 271.979 127.427   4
  -5  -2  13 417.152 277.233  16
  -2   5 -13 249.163 94.5397  12
   5   2 -13 256.155 206.847  18
   2   5 -13 393.056 241.616  18
   2   5 -13 650.931 452.408  15
   5  -2  13 410.023 235.146   8
   5  -2  13 291.274 240.543  14
  -5  -2  13 482.837 267.307  17
   5   2 -13 129.646 88.5043  14
   2  -5  13 469.098 274.565   6
   5  -2  14 1222.45 419.776   8
  -2  -5  14 793.337 330.792   6
   2   5 -14 1659.25 775.205  20
  -5  -2  14 1173.70 486.687  17
  -2   5 -14 729.263 296.938  13
  -5   2 -14 56.2475 118.843  10
   2   5 -14 1080.12 418.530  13
   2   5 -14 1118.47 333.716  12
  -2   5 -14 1208.51 388.774  12
  -2   5 -14 957.602 389.959   3
  -5  -2  14 1357.85 372.240   5
   5   2 -14 65.5394 56.3609  10
   5   2 -14 421.369 273.693   9
   2   5 -14 1515.59 496.295  11
  -2   5 -14 1719.36 421.023  11
   5  -2  14 1552.64 392.741   2
  -2   5 -14 1521.10 718.757  20
  -5   2 -14 7.24595 106.655  20
   2   5 -14 836.213 447.409  15
  -2  -5  14 1325.97 604.378   2
   2  -5  14 1105.46 466.678  16
  -2   5 -14 1365.70 309.114  18
   2   5 -14 1648.24 561.926  18
   5  -2  14 1292.34 561.031  16
  -5  -2  14 1539.78 543.905   2
   5   2 -14 559.819 279.690  11
  -5  -2  14 1104.22 246.548   4
   5   2 -14 628.762 322.564  18
   5   2 -14 703.449 312.494   1
   2  -5  14 1695.20 413.658  17
  -2  -5  14 1556.76 527.552  17
   2   5 -14 53.9265 68.9954   1
  -2  -5  14 1008.60 450.496  16
  -2   5 -14 1626.02 748.983  15
   2  -5  14 1295.09 525.398   6
  -5   2 -14 309.716 208.663  19
   2  -5  14 1079.02 483.084   2
  -5  -2  14 1025.70 385.648  16
  -2   5 -14 457.838 151.470  19
   2   5 -14 868.147 483.541   7
   2  -5  14 1542.55 324.288  14
   5  -2  14 695.153 325.786  14
   2   5 -14 1340.63 414.060   3
   5  -2  14 1548.76 562.501   6
   2  -5  14 1421.50 318.278   8
   5   2 -14 306.973 135.052  14
  -2  -5  15-18.0595 87.0851   6
  -5  -2  15 170.520 212.517  17
   2   5 -15-9.24468 94.9258   1
   2  -5  15 296.450 238.065   6
  -2   5 -15 132.792 317.887  20
  -5  -2  15 142.547 148.999   5
  -2   5 -15 44.7104 126.349  13
   2   5 -15 212.139 281.164  13
   5  -2  15 184.474 192.505   8
  -2   5 -15 155.273 167.302  12
   2   5 -15 119.176 162.005  12
   5   2 -15 63.2161 112.764  18
   2   5 -15 123.859 142.676   3
  -2   5 -15 133.609 180.928   3
   2   5 -15-253.079 176.582  15
  -2  -5  15 41.5646 97.3859  16
   5   2 -15 29.6632 59.6378   1
  -2   5 -15 114.750 111.088  11
  -2  -5  15-55.3311 153.003   2
  -5   2 -15-297.064 391.516  20
   5   2 -15 29.5148 140.726  11
  -5   2 -15-38.2892 122.386  19
   2   5 -15 172.409 256.451  20
  -5   2 -15-145.071 305.930  10
   2  -5  15 243.679 293.920   2
  -5  -2  15 135.404 192.518   2
   5   2 -15-208.363 284.301   9
  -2   5 -15 86.5564 56.4322  18
  -5  -2  15 180.899 171.376  16
   5  -2  15 111.860 147.703   2
  -2  -5  15 51.7923 88.5637  17
   2  -5  15 112.717 80.2246  17
  -2   5 -15 91.9607 79.4694  19
   2  -5  15 173.654 119.812   8
   2  -5  15 105.512 224.233  16
  -2   5 -15 567.293 473.999  15
   2   5 -15-30.4645 407.262   7
  -5  -2  15 10.9586 71.5761   4
  -2   5 -15 429.801 392.559   7
   5  -2  15 90.6976 200.206  16
   5  -2  15-65.9492 197.214   6
   2  -5  15 65.5909 79.4259  14
   5   2 -15-22.0748 254.411  10
   5   2 -15-37.3904 54.7808  14
   2   5 -16 1865.90 601.337  11
  -2   5 -16 1445.98 682.849  10
  -2   5 -16 1220.87 610.315  15
  -2  -5  16 1356.87 538.068  16
   2   5 -16 1015.74 514.322  13
   2   5 -16 1424.88 386.874  12
  -2  -5  16 1482.04 591.033   2
   2   5 -16 1124.66 423.693   3
   5  -2  16 2136.22 479.854   2
   2  -5  16 1137.13 496.205   6
  -5  -2  16 1906.20 637.260   2
  -2   5 -16 1004.20 433.590   3
  -5  -2  16 1738.84 432.951   5
  -2  -5  16 1820.16 594.751  17
  -2   5 -16 1662.36 429.610  11
  -2   5 -16 1023.64 419.583  12
  -2   5 -16 1308.76 663.003  20
   5   2 -16 600.814 348.433  11
   2  -5  16 1537.76 351.721   8
   2   5 -16 1655.03 671.361  10
  -2   5 -16 720.004 198.110  19
   2  -5  16 1582.20 638.947  16
   5   2 -16 399.441 237.869  18
   2  -5  16 1472.43 534.478   2
   5   2 -16 83.2542 115.696   9
   5  -2  16 1939.51 591.188   8
   5   2 -16-456.496 536.739  10
   2   5 -16 1477.47 449.002  18
   2  -5  16 1721.14 471.677  17
  -2   5 -16 1181.00 329.406  18
   2   5 -16-12.1107 69.4877   1
  -5  -2  16 2197.34 676.900  17
   5   2 -16 522.890 294.132   1
  -5   2 -16-26.1259 62.8268  19
   2   5 -16-342.898 692.520   7
  -2   5 -16 899.121 405.432  13
   5  -2  16 1613.07 629.504  16
  -5  -2  16 1045.33 475.687  16
  -2   5 -16 1388.11 705.128   7
   5  -2  16 1787.11 717.130   6
   2  -5  16 614.470 234.556  14
   2   5 -16 1387.72 625.312  20
  -2  -5  16 577.634 363.148   6
   5   2 -16 180.388 95.9789  14
   2  -5  17 433.057 286.013   6
  -5  -2  17 502.391 401.493  17
   5  -2  17 238.536 144.568   8
   2  -5  17 469.411 322.261  16
  -2   5 -17 337.556 311.342  13
  -2   5 -17 384.763 324.664  12
  -2   5 -17 178.516 130.240  18
   2   5 -17 333.520 261.560  12
   2   5 -17 208.138 220.563   3
  -2   5 -17 242.678 278.285   3
  -2   5 -17 981.878 673.223   9
   2   5 -17 464.541 286.616  11
  -2   5 -17 430.237 254.170  11
  -5  -2  17 390.171 293.379  16
  -5  -2  17 394.422 226.801   5
   2   5 -17 448.264 438.457  20
  -2  -5  17 488.025 402.749   2
   5   2 -17-635.058 569.988   9
  -2   5 -17 236.665 315.501  10
   2   5 -17 367.327 248.324  18
   5   2 -17 227.181 242.113  18
   2  -5  17 302.272 271.994   2
   2   5 -17 518.893 391.601  10
  -2   5 -17 182.504 384.356   7
  -5   2 -17 25.6964 55.7992  19
   2  -5  17 373.298 215.169  17
  -2  -5  17 482.476 328.278  17
   2  -5  17 349.035 193.507   8
  -5  -2  17 424.266 328.794   2
   5  -2  17 437.518 185.439   2
   2   5 -17 1713.67 821.331   9
  -2  -5  17 214.029 190.925  16
   5  -2  17 333.983 321.954  16
  -2   5 -17 159.981 261.506  15
   2   5 -17 118.447 210.757   1
   5   2 -17 127.152 223.169   1
   2  -5  17-30.8383 120.634  14
  -2   5 -17 177.137 102.034  19
   5  -2  17 208.727 288.662   6
  -2   5 -17-12.2964 162.543  20
   5   2 -17 195.737 274.499  11
  -2  -5  17 92.8212 226.025   6
   2   5 -18 1892.01 755.731   9
   2   5 -18 1219.65 653.400  20
  -2   5 -18 947.778 480.664  13
  -2   5 -18 836.222 458.409  12
   2   5 -18 1092.06 416.441  12
   2   5 -18 945.216 420.511   3
  -2   5 -18 794.761 424.556   3
  -2   5 -18 378.977 511.676  20
  -5  -2  18 1418.19 401.459   5
   5  -2  18 1906.35 525.061   2
   2   5 -18 1064.07 499.554  11
   5   2 -18 265.555 195.202  11
   2  -5  18 1588.40 664.591   2
  -2  -5  18 45.7700 98.5834   6
  -2   5 -18 1639.19 745.042   9
  -5   2 -18-91.0837 122.978  19
   5   2 -18-1047.42 845.218   9
   2  -5  18 1222.57 337.160   8
   5   2 -18 316.230 253.508  18
  -2   5 -18 830.859 333.148  11
   2  -5  18 1600.11 478.893  17
   5  -2  18 1488.11 573.711   8
  -2  -5  18 1384.49 592.483  16
   5   2 -18 184.310 162.045   1
   2   5 -18-91.7254 181.709   1
  -2  -5  18 1419.55 607.305  17
  -5  -2  18 1638.66 607.571   2
  -5  -2  18 1520.51 600.279  17
   2  -5  18 1289.17 603.129  16
   5  -2  18 1570.42 665.963  16
  -2   5 -18 62.8151 526.455   7
  -5  -2  18 1084.92 481.398  16
   2   5 -18 1116.61 447.414  18
  -2   5 -18-193.616 558.161  15
  -2  -5  18 1423.58 608.451   2
  -2   5 -18 565.705 452.021  10
  -2   5 -18 586.299 232.485  18
   5  -2  18 1374.67 627.510   6
   2   5 -18 882.221 486.236  10
   2  -5  18 1689.20 661.428   6
  -2   5 -19 1211.29 588.695  12
   2   5 -19 1269.91 444.070  12
   2   5 -19 1393.45 657.965  10
  -2   5 -19 880.993 459.181   3
  -5  -2  19 2052.91 494.525   5
   2   5 -19 701.929 691.754  20
  -2  -5  19 1294.84 628.594  16
  -2   5 -19 515.240 249.967  18
   2   5 -19 1313.02 455.361  18
   2   5 -19 1448.76 515.319  11
   5  -2  19 1872.44 656.794  16
  -2   5 -19 482.166 512.995  20
   2  -5  19 1821.52 661.232   2
   5   2 -19 544.464 399.606  11
   5   2 -19 381.440 279.188  18
   5   2 -19 392.704 293.246   1
  -2   5 -19 1049.05 530.172  10
  -2  -5  19 2080.38 672.647  17
   2  -5  19 1744.23 444.014   8
   2  -5  19 2132.49 556.483  17
   5  -2  19 1686.88 590.172   8
  -2  -5  19-28.4142 130.137   6
   2   5 -19 1639.58 715.566   9
  -2   5 -19 1052.24 549.474   9
  -5  -2  19 1868.39 661.941   2
   2  -5  19 1765.60 747.552  16
  -2   5 -19 1143.25 373.593  11
  -5  -2  19 1844.02 663.211  16
  -2  -5  19 1947.48 700.848   2
   2   5 -19 986.062 453.866   3
   5  -2  19 2292.32 570.039   2
   5  -2  19 1536.89 558.368   6
   2  -5  19 1572.26 616.925   6
  -5  -2  19 1922.85 790.369  17
  -5   3   0 75.3515 65.4788  19
   5   3   0 2.06349 184.868   1
   5  -3   0-46.7687 147.792   8
   5  -3   0 28.0016 87.9029  14
   5   3   1-19.2320 381.345   1
  -5   3  -1 1643.72 395.011  19
   5  -3   1 987.571 324.668   8
   5  -3   1 1250.57 341.592  14
  -5   3  -1 832.488 257.024  12
   5  -3   1 597.424 208.666   1
  -5  -3   1-34.1703 268.532  17
   5   3  -1 1147.77 467.257   1
   5  -3   1 800.515 293.784   6
   5  -3   2 123.173 74.5687   1
  -5   3  -2 135.296 16.2491   5
   5  -3   2 249.155 147.356  14
   5  -3   2 156.297 134.839   6
  -5   3  -2 219.007 141.593  12
   5   3  -2 173.213 118.742   1
   5   3  -2 96.9229 71.7202  18
  -5   3  -2 236.478 153.543  19
   5  -3   2 163.051 121.067   8
  -5  -3   2 45.4494 139.405  17
  -5   3  -3 2328.48 443.474   4
   5   3  -3 2280.61 621.116   1
   5   3  -3 1954.53 446.106  13
  -5   3  -3 2051.77 452.955  12
   5  -3   3 2138.45 460.787   8
  -5   3  -3 2324.98 413.311   5
  -5   3  -3 2631.27 490.758  19
  -5  -3   3-58.4295 280.694  19
  -5   3  -3 1347.02 373.832   3
   5   3  -3 2262.06 549.527  18
  -5  -3   3 620.226 367.028  17
   5  -3   3 1716.32 355.785   1
   5  -3   3 2608.39 537.368   6
   5  -3   3 2149.51 438.873  14
   5   3  -3 1471.36 346.060   8
   5  -3   4 463.813 222.042  14
   5   3  -4 551.999 242.252  13
  -5   3  -4 433.088 224.693  12
  -5   3  -4 553.972 218.124   5
  -5   3  -4 580.607 250.787   4
  -5   3  -4 400.379 243.537  19
   5   3  -4 616.878 341.864   1
   5   3  -4 634.742 324.077  18
   5   3  -4 353.398 184.645   8
   5  -3   4 619.299 280.099   6
   5  -3   4 436.896 190.901   1
  -5   3  -4 333.970 181.739   3
  -5  -3   4 226.239 211.258  17
   5  -3   4 606.679 255.287   8
  -5  -3   4 95.3520 99.7383  19
   5   3  -4-154.265 242.472  14
   5   3  -5 1418.87 376.090  13
   5   3  -5 1199.74 406.546  18
   3   5  -5 919.314 382.386  13
   5  -3   5 1078.27 263.835   1
   3  -5   5 249.963 196.860   6
  -5   3  -5 1323.60 318.035   5
  -5   3  -5 1063.05 302.669  19
  -3   5  -5 792.296 319.458   3
  -5   3  -5 1250.37 342.509   4
   5   3  -5 1091.71 264.108   8
  -3   5  -5 1011.63 333.229  12
   5   3  -5 1083.83 413.207   1
  -5  -3   5 735.112 395.232   2
  -5  -3   5 728.061 373.216  17
  -5  -3   5 503.079 250.375  19
  -5   3  -5 1090.52 342.407  12
   5  -3   5 1326.26 395.027   6
   5  -3   5 1213.21 350.049  14
  -5   3  -5 1055.78 337.521   3
   5  -3   5 1040.89 334.768   8
   3   5  -6 3791.17 756.795  13
   5   3  -6 4692.47 681.285  13
   5  -3   6 3936.11 504.859   1
  -5   3  -6 3071.89 585.707  12
  -3   5  -6 3635.21 639.521  12
  -5   3  -6 4188.53 573.215   5
   5   3  -6 3328.45 696.891   1
  -5  -3   6 3083.57 717.829   2
  -5  -3   6 2346.46 464.645  19
   5   3  -6 2387.89 349.739   3
   3   5  -6 1827.13 509.708  18
  -5   3  -6 3766.75 615.144  19
   5   3  -6 4514.12 492.949   8
   5   3  -6 3927.74 695.388  18
  -5  -3   6 2699.57 703.088  17
  -5   3  -6 3831.76 616.952   4
   5  -3   6 4978.22 789.331   6
   5  -3   6 3839.69 632.256   8
   5  -3   6 2515.34 606.128  16
  -5   3  -6 3052.42 567.371   3
  -3   5  -6 3572.64 693.538   3
   5  -3   6 4089.67 631.517  14
   3  -5   6 1303.95 433.783   6
   3  -5   7 319.439 136.723  14
   3   5  -7 1890.50 534.623  13
   5   3  -7 2031.54 460.224  13
  -3   5  -7 355.470 174.718  13
   5   3  -7 1380.08 446.064   1
  -5   3  -7 360.969 188.309  13
   5  -3   7 2179.25 375.232   1
  -5   3  -7 1312.41 393.308  12
  -3   5  -7 1641.19 438.324  12
  -3  -5   7 198.402 212.574  17
  -3  -5   7 217.891 120.382   6
  -5   3  -7 1821.37 409.445   5
   5  -3   7 1671.53 415.013   8
  -5  -3   7 1530.06 496.839   2
  -5  -3   7 782.704 328.978   5
  -5  -3   7 1468.53 330.829  19
   3   5  -7 1458.47 473.453  18
   5   3  -7 1866.90 471.390  18
  -5   3  -7 1659.00 421.439   4
   3  -5   7 866.871 346.807   6
  -5  -3   7 1011.38 309.024  16
   5  -3   7 1305.45 415.348  16
   5   3  -7 1890.76 289.990   8
   3   5  -7 1301.89 360.022   3
   5  -3   7 2347.43 570.008   6
  -3   5  -7 1657.44 468.600   3
   5   3  -7 1860.15 322.087   3
   5  -3   7 1970.13 456.245  14
  -5   3  -7 1292.86 379.687   3
  -5   3  -7 1484.39 391.227  19
  -5  -3   7 1391.43 510.074  17
  -5   3  -8 2915.84 596.307   4
  -5  -3   8 3033.33 456.848  19
   3   5  -8 3809.07 757.192  13
  -5   3  -8 1296.77 335.979  13
  -5   3  -8 2497.53 551.837  12
  -3   5  -8 1345.77 425.353  13
   5  -3   8 3725.39 512.966   1
   5   3  -8 3199.13 679.736   1
  -5   3  -8 2971.85 563.280  19
  -5  -3   8 1858.33 503.192   5
   5   3  -8 4344.12 824.948  11
  -5   3  -8 2653.91 272.699  11
  -3  -5   8 1048.55 484.427  17
   5   3  -8 3767.30 769.176  20
  -5  -3   8 453.980 149.033   4
   3   5  -8 3779.50 617.963   3
   3   5  -8 3099.88 702.293  18
   5   3  -8 3578.45 663.953  18
  -5   3  -8 3000.03 528.546   5
  -3   5  -8 2380.92 409.235   4
   5   3  -8 3237.47 350.805   8
   3  -5   8 1212.15 327.492   8
  -5  -3   8 2701.18 702.492  17
   5   3  -8 3908.20 663.497  13
  -3   5  -8 3514.22 617.733  12
   5  -3   8 4013.24 658.225  14
  -5  -3   8 2728.50 528.444  16
   5  -3   8 3546.29 746.555  16
   5  -3   8 4209.91 785.435   6
   3  -5   8 2887.75 640.300   6
  -3  -5   8 1367.75 340.754   6
  -3   5  -8 3796.47 716.961   3
   5  -3   8 3192.96 591.748   8
   3  -5   8 1597.71 359.960  14
   5   3  -8 3625.30 462.422   3
  -5   3  -8 2191.36 520.008   3
  -5  -3   8 3681.48 800.816   2
  -3   5  -9 1701.08 310.988  18
  -5  -3   9 1968.18 341.648  19
   5  -3   9 1359.28 330.257   1
   3  -5   9 1386.70 361.784  17
   3   5  -9 2291.19 571.656  13
   5   3  -9 1814.02 507.607   1
  -5   3  -9 1496.42 467.806  12
  -3   5  -9 2023.64 493.344  12
  -5   3  -9 916.442 300.847  13
  -5   3  -9 1192.40 379.690   5
  -5  -3   9 1490.12 433.263   5
  -3   5  -9 2324.03 539.184   3
   5   3  -9 1794.42 546.726  20
   5   3  -9 2416.70 590.574  11
  -5   3  -9 989.036 177.927  11
  -5  -3   9 1825.36 559.735   2
  -5   3  -9 2008.03 580.498  20
   3  -5   9 882.430 310.021  16
   5   3  -9 475.720 113.508   8
   5  -3   9 2513.54 664.697  16
   5  -3   9 2562.04 529.854  14
  -5   3  -9 1251.72 396.757   4
  -5  -3   9 524.235 185.478   4
  -5  -3   9 1975.77 618.539  17
   5  -3   9 2015.09 478.914   8
  -3  -5   9 1007.19 454.798  17
  -5   3  -9 1577.69 389.612  19
   3  -5   9 1660.80 472.691   6
  -3  -5   9 1004.48 305.384   6
   3   5  -9-83.8119 229.493   1
  -5  -3   9 1514.27 412.651  16
  -3  -5   9 497.763 153.270  16
   5  -3   9 3128.22 707.410   6
  -3   5  -9 1859.23 365.728   4
   3   5  -9 2174.52 472.280   3
   3   5  -9 1971.89 548.586  18
   3  -5   9 1553.59 353.555  14
   5   3  -9 2172.04 534.116  18
   5   3  -9 2107.39 361.273   3
   5   3  -9 56.8788 79.9379  14
  -5   3  -9 1400.70 442.214   3
  -3   5  -9 1096.16 422.650  13
  -5   3 -10 354.313 340.644  20
  -3  -5  10 189.336 82.5041  19
   3  -5  10 490.290 204.770  14
   3   5 -10 578.603 241.827   3
  -3  -5  10 267.718 136.721   6
  -3   5 -10 331.162 238.617  13
  -3   5 -10 473.594 235.106   3
  -3  -5  10 277.341 210.715  17
  -3  -5  10 118.530 74.9879  16
  -5  -3  10 378.935 231.144  16
   5   3 -10 414.075 101.417  12
  -3   5 -10 652.326 281.877  12
  -5   3 -10 136.360 165.255  13
  -5  -3  10 320.743 183.325  19
   3   5 -10 342.018 138.948  12
  -3   5 -10 587.505 148.734   5
   5   3 -10 352.572 235.380   1
   5   3 -10 458.540 250.032  11
  -5  -3  10 447.326 269.210   5
   5  -3  10-76.6434 47.5509   1
  -3  -5  10 218.905 147.420   2
   3  -5  10 244.893 142.111  16
   5   3 -10 434.607 226.161  18
  -3   5 -10 581.471 171.438  18
  -5  -3  10 588.110 433.171  17
  -3   5 -10 312.490 109.264  19
   5  -3  10 743.526 379.533   6
   3   5 -10 510.840 265.806  18
  -5   3 -10 598.598 393.871  19
  -5  -3  10 459.164 310.421   2
  -5   3 -10 122.203 42.7061   4
  -5  -3  10 194.683 96.4953   4
   3  -5  10 729.216 227.809  17
  -3   5 -10 663.457 231.636   4
   3   5 -10 594.213 324.891  13
   5  -3  10 781.787 338.528   8
   3  -5  10 289.766 154.061   8
   5   3 -10 542.129 206.010   3
   3  -5  10 714.011 300.189   6
   5  -3  10 629.072 316.063  16
  -5   3 -10 677.926 398.799  10
   3   5 -10-78.3622 162.158   1
  -5   3 -10 678.969 454.289  15
   5   3 -10-120.208 69.7403  14
   5   3 -10 313.848 251.343  20
  -5   3 -10 66.5196 125.747  11
   5  -3  10 735.371 301.581  14
   5   3 -10 719.200 379.853  10
  -5   3 -11 484.211 352.751   4
  -5   3 -11 2020.81 681.142  20
  -5  -3  11 1694.19 519.208  16
  -5  -3  11 828.499 230.791   4
  -3   5 -11 1955.40 552.756  13
   3   5 -11 2536.58 688.799  13
  -3   5 -11 2207.13 540.700  12
   3   5 -11 2260.07 436.316  12
  -3  -5  11 928.432 334.915   6
  -5  -3  11 1417.39 425.298   5
  -3   5 -11 1642.78 263.972   5
   5   3 -11 1822.06 558.146  11
   5   3 -11 3160.77 845.776   9
   5   3 -11 1436.21 455.053  18
   5  -3  11 2095.81 613.052   6
   3   5 -11 247.497 322.894   1
   5   3 -11 1634.04 252.923  12
   5   3 -11 1062.78 453.198  20
  -3  -5  11 958.992 498.346   2
   5  -3  11 1982.38 631.974  16
   5  -3  11 2147.06 535.662   8
   3  -5  11 1698.27 588.855  16
  -3   5 -11 2071.12 328.766  18
   3  -5  11 1841.39 390.460   8
  -5  -3  11 1484.86 579.534   2
   3  -5  11 2647.31 456.955  17
  -3  -5  11 2435.44 778.515  17
  -5  -3  11 1989.62 693.145  17
  -3   5 -11 1998.97 420.304   4
  -5   3 -11 2133.12 646.258  10
   5  -3  11 1065.78 389.770   2
  -5   3 -11 3100.84 925.416  15
  -3  -5  11 1380.94 588.516  16
  -5   3 -11 2893.83 982.959   7
   5   3 -11 1896.49 581.746  10
   3  -5  11 2352.24 614.401   6
   3   5 -11 2141.63 613.580  18
   5  -3  11 1814.92 515.328  14
   3  -5  11 2000.42 387.680  14
   3   5 -11 2425.22 592.343   3
  -3   5 -11 1801.37 530.055   3
   5   3 -11 1116.90 407.155   1
   3  -5  12 80.6328 93.2839  14
   5  -3  12-11.6938 180.627   6
   5  -3  12 118.537 220.315  16
  -3  -5  12-12.2612 85.9111   6
  -3  -5  12 80.3539 150.246   2
   3  -5  12 195.820 264.940   6
   3   5 -12-24.6077 135.009   3
   5  -3  12-45.4954 14.9895   8
  -3   5 -12-29.7909 58.9028  13
  -3   5 -12 80.9209 160.980   3
   3   5 -12-108.560 185.401   1
  -5   3 -12 134.228 166.607  19
  -5  -3  12 242.362 267.945   2
  -3   5 -12-204.426 165.405  12
   3   5 -12-18.7996 53.8140  12
   5   3 -12 143.091 158.868  11
  -5   3 -12 10.2357 114.557  20
  -3   5 -12 119.572 142.489   4
   3  -5  12-25.7528 85.8796   8
   3   5 -12-142.114 217.274  13
  -5   3 -12 90.3654 177.511   9
  -5   3 -12-4.32578 156.171  15
  -3  -5  12-136.073 168.844  17
   5   3 -12 135.638 208.058   1
   5   3 -12 558.556 408.710   9
   3  -5  12 192.162 130.973  17
   3  -5  12 36.8375 118.983  16
   5   3 -12 114.331 335.657  20
   3   5 -12-239.993 181.653  18
   5   3 -12-49.9699 131.134  18
  -5   3 -12 95.2731 188.775  10
   5  -3  12 56.6029 61.0181   2
  -5   3 -12-64.8988 113.918   7
  -5  -3  12 78.8091 96.1683   4
  -5  -3  12 135.756 145.401  17
  -5  -3  12 55.6850 78.2793   5
  -3  -5  12 108.221 206.572  16
  -5  -3  12 7.13523 51.0198  16
   5   3 -12 215.932 271.885  10
  -3   5 -12 26.5169 22.3777  18
   3   5 -12 172.548 251.059  15
   5   3 -12-121.818 134.778  14
   5  -3  12 74.4126 121.317  14
  -3   5 -12-22.3920 49.7655  19
   3  -5  13 3464.89 542.666  17
  -3  -5  13 672.833 322.241   6
  -5   3 -13 1215.85 455.149  10
   3   5 -13 2401.91 642.089  13
   5   3 -13 1789.03 513.658   1
  -3   5 -13 1275.41 441.222  13
  -3   5 -13 2197.93 541.273  12
   3   5 -13 2416.79 431.197  12
  -5  -3  13 2551.45 560.468   5
  -3  -5  13 2301.20 765.465   2
   5  -3  13 3319.80 607.183   2
   3   5 -13 2747.22 728.096  11
  -5   3 -13 1134.96 371.374  19
  -5  -3  13 2637.91 740.237   2
  -3   5 -13 1556.17 408.483   4
  -3   5 -13 2642.86 384.603  18
  -5  -3  13 2766.49 781.615  17
   3   5 -13 2707.38 617.043  18
   5   3 -13 2009.20 559.182  18
   3   5 -13 555.058 309.734   1
   5  -3  13 3013.76 618.340   8
   3   5 -13 2630.96 570.834   3
   5   3 -13 885.297 480.178  20
  -3  -5  13 2441.22 728.007  17
  -5   3 -13 1576.70 598.400  20
  -3  -5  13 2056.27 615.099  16
   3  -5  13 2121.63 668.192  16
  -5  -3  13 1706.60 320.068   4
   5  -3  13 2590.70 722.838  16
   3   5 -13 2238.33 729.119   7
  -5   3 -13 1426.26 699.279   7
  -5  -3  13 2310.39 586.487  16
   3   5 -13 2334.19 697.915  15
  -5   3 -13 1162.96 583.338  15
   3  -5  13 3245.65 789.516   6
   5   3 -13 2185.26 621.455  11
  -5   3 -13 1712.28 505.378   9
   3  -5  13 3368.05 524.834  14
   5   3 -13 2438.33 729.968   9
  -3   5 -13 1598.57 503.454   3
   5  -3  13 3451.44 822.486   6
   5  -3  13 2517.69 643.002  14
   5   3 -13 1347.09 501.664  10
  -3  -5  14 174.975 234.080   6
   5  -3  14 259.260 215.659   6
   3  -5  14 455.616 318.598   6
   5   3 -14 133.758 136.447   1
   3   5 -14 278.395 237.752  13
  -3   5 -14 286.194 390.117  20
   3   5 -14 356.146 218.908   3
  -3   5 -14 67.2041 55.4591  12
   3   5 -14 240.612 120.625  12
   3   5 -14 629.600 361.098  11
  -5   3 -14 118.189 63.8513   9
  -3   5 -14 670.276 253.223  11
   5   3 -14 236.495 194.632  11
  -5   3 -14 357.336 303.793  20
  -5  -3  14 280.814 200.124   5
   3   5 -14 297.411 381.251  20
  -3   5 -14 446.008 277.964  13
   3   5 -14 5.79871 286.302  15
  -5   3 -14 73.7859 87.7353  19
   5   3 -14 260.907 262.610  10
  -3   5 -14 1021.72 620.438  15
  -3   5 -14 183.172 87.3817  19
  -5  -3  14 383.299 269.442  16
  -5   3 -14 37.0246 103.677  10
   5   3 -14 186.132 198.989   9
   3  -5  14 344.404 151.959   8
   5  -3  14 443.410 248.044   2
  -5  -3  14 224.172 124.015   4
   3   5 -14 328.205 272.231  18
  -3   5 -14 268.644 134.692  18
  -3   5 -14-116.831 261.503   4
   5   3 -14-50.2141 317.510  20
  -3  -5  14 196.224 65.4211   2
   3  -5  14 511.575 398.039  16
  -5  -3  14 482.129 387.368   2
   5  -3  14 391.361 237.655   8
  -5  -3  14 304.809 302.610  17
  -3   5 -14 109.267 123.208   3
   3   5 -14 25.2905 138.517   1
  -3  -5  14 238.606 248.472  16
   5  -3  14 197.997 219.926  16
  -5   3 -14-87.2247 320.969   7
   3   5 -14-22.1708 245.474   7
   5   3 -14 297.746 249.759  18
  -5   3 -14-488.251 520.612  15
   3  -5  14 460.581 204.667  17
   5   3 -14-3.28458 49.3321  14
  -3  -5  14 246.931 170.929  17
   3  -5  14 505.194 234.289  14
   5  -3  14 406.079 258.154  14
   3  -5  15 534.994 358.263   6
  -3   5 -15 780.131 535.191  15
  -3   5 -15 274.149 234.928  13
   3   5 -15 535.727 262.061   3
  -3   5 -15 498.798 307.118  12
   3   5 -15 602.875 246.193  12
  -3   5 -15 475.578 312.048   3
  -5   3 -15 404.672 289.118   9
   5   3 -15 405.771 238.789   1
   5   3 -15 794.632 373.198  11
  -3   5 -15 411.722 166.511  19
   5   3 -15 578.255 436.988   9
   3   5 -15 850.610 428.532  11
  -3   5 -15 676.093 237.741  11
   5  -3  15 1036.44 499.427   6
  -3   5 -15 1329.55 762.373   7
  -5   3 -15 230.232 338.566  20
   3  -5  15 537.607 349.929   2
  -5   3 -15 210.028 135.854  19
   5   3 -15-236.334 404.182  20
   3   5 -15 484.851 494.271  20
  -5  -3  15 660.942 268.776   5
   3   5 -15 1228.49 668.529  10
   5   3 -15 1.30407 62.8447  10
  -3  -5  15 617.555 353.273  16
  -3  -5  15 776.250 408.673   2
   3   5 -15 661.651 420.232  13
   3   5 -15 763.790 374.585  18
   5  -3  15 1008.27 393.254   2
  -3   5 -15 494.559 172.381  18
   5   3 -15 455.683 266.896  18
  -5  -3  15 616.388 372.405   2
   5  -3  15 919.354 344.843   8
  -3  -5  15 903.604 464.674  17
  -3   5 -15 767.178 463.921  20
  -5  -3  15 419.548 140.987   4
   3  -5  15 925.413 301.647  17
  -5  -3  15 559.184 390.203  17
   3  -5  15 516.320 210.893   8
   5  -3  15 836.901 519.850  16
  -5   3 -15 71.3479 124.406  10
   3  -5  15 657.877 398.848  16
  -5  -3  15 793.556 386.308  16
   3   5 -15-379.096 563.140   7
  -5   3 -15-512.803 602.704   7
  -5   3 -15-529.365 628.921  15
   3   5 -15 74.1187 129.905   1
   5   3 -15-34.2727 66.7808  14
   5  -3  15 538.665 348.986  14
   3  -5  15 697.692 280.515  14
  -3  -5  15 170.118 241.082   6
   3  -5  16 81.5041 257.376   6
   5   3 -16 6.72808 65.2928   1
  -3   5 -16 18.3096 36.5276  18
  -3   5 -16 7.38615 70.7275  13
   5  -3  16-42.5414 126.621   8
  -3   5 -16-66.3805 74.7759  12
  -3   5 -16 80.0576 201.065   3
  -3  -5  16 172.082 130.169  16
   3  -5  16-28.8106 94.2545  17
   3  -5  16 37.9569 267.730   2
   3   5 -16 240.417 417.438  10
   3   5 -16-27.4111 59.2981  11
  -3   5 -16 27.0184 69.6528  11
  -5   3 -16 212.529 309.640  20
  -5  -3  16 106.771 255.568   2
  -5  -3  16-64.8281 133.753   5
  -5  -3  16 100.009 196.744  17
  -3   5 -16 167.687 269.286  10
  -5  -3  16 22.9332 33.0491   4
   3   5 -16 9.83080 105.834  12
  -3  -5  16-72.6615 191.323   2
  -5   3 -16 19.7196 51.5924  19
  -5   3 -16-193.577 312.166   9
   5   3 -16 51.1890 136.317  18
   5   3 -16 416.705 420.753  10
   3   5 -16-245.127 191.133  18
  -3   5 -16-33.8068 45.2677  19
   5  -3  16 91.2671 181.387   2
  -3  -5  16 259.266 233.755  17
  -5   3 -16-105.488 214.160  10
   3   5 -16 90.1986 133.377   1
   3  -5  16 26.0623 88.6014   8
   5   3 -16 156.319 180.525  11
   3   5 -16 258.048 363.284  13
   3  -5  16-80.2946 285.973  16
  -3   5 -16 81.8689 173.982  15
   5  -3  16 167.849 255.935  16
  -5  -3  16 6.39256 237.206  16
   3   5 -16-524.897 403.472  20
  -3   5 -16 39.6143 282.017   7
   3   5 -16 145.527 208.918   3
  -3   5 -16-101.617 160.177  20
   5  -3  16-4.41508 199.392  14
   5   3 -16 402.494 455.231   9
   3  -5  16 3.57448 48.5043  14
  -3  -5  16 41.3136 161.857   6
   5  -3  16 39.9972 25.7398   6
  -3   5 -17 507.752 353.005  13
   3   5 -17 1247.48 369.021  12
   3   5 -17 2261.37 927.730   9
   3   5 -17 1028.66 454.766  18
   3   5 -17 1066.18 449.681   3
   3   5 -17 360.944 298.093   1
  -3   5 -17 696.921 417.177   3
  -3  -5  17 1277.34 631.180   2
   5   3 -17 449.982 385.585   9
   3   5 -17 1025.10 493.812  11
  -3   5 -17 975.602 336.650  11
  -5  -3  17 1193.87 371.462   5
   3   5 -17 599.194 400.079  20
  -5   3 -17 11.4807 115.938  20
   5  -3  17 1859.74 547.194   2
   5   3 -17 455.822 278.691   1
   3  -5  17 999.770 492.604   2
  -5   3 -17 242.040 247.637  19
   5   3 -17 204.662 279.535  10
   3  -5  17 433.761 255.699  14
  -5  -3  17 1026.62 516.715   2
  -5   3 -17-110.647 212.918   9
   3  -5  17 1175.46 382.278   8
   5   3 -17 721.579 371.241  18
  -3   5 -17 1462.45 646.280   9
  -3   5 -17 334.922 167.648  18
  -3   5 -17 638.653 491.979   7
   5  -3  17 1346.48 645.373  16
  -3   5 -17 1049.26 482.509  10
   5  -3  17 1691.37 517.091   8
  -3  -5  17 1519.81 569.203  17
  -3   5 -17 1234.27 542.065  20
   3  -5  17 1605.79 586.001   6
   5  -3  17 194.324 379.579  14
   5  -3  17 1390.49 601.513   6
  -3  -5  17 1533.94 587.678  16
   3  -5  17 1274.59 577.082  16
  -5  -3  17 992.026 456.328  16
  -5  -3  17 1742.39 616.176  17
  -5  -3  17 916.089 215.407   4
  -3   5 -17 875.936 541.474  15
   3  -5  17 1329.40 367.246  17
  -3  -5  17-14.6849 119.127   6
   5   3 -17 468.154 194.327  11
  -3   5 -17 752.441 406.353  12
  -3   5 -17 701.810 234.112  19
  -5   3 -17 208.744 237.799  10
   3   5 -17 954.702 493.104  10
  -3  -5  18-16.7403 282.619   6
   5  -3  18 1018.06 442.959   8
  -3   5 -18 367.149 322.312  13
   3   5 -18 762.846 234.467  12
  -5  -3  18 959.923 334.195   5
   3   5 -18 673.240 321.394   3
   3   5 -18 1167.69 544.276  11
  -3   5 -18 565.546 448.755  20
   5   3 -18 679.350 402.117  11
   5   3 -18 765.669 589.414   9
   5  -3  18 1496.44 449.424   2
  -5   3 -18-155.860 374.631  20
   5   3 -18-153.581 157.339  10
   3   5 -18 722.927 365.013  18
  -5   3 -18 9.51097 35.6203  10
   3   5 -18 1613.76 901.136   9
  -3   5 -18 688.461 409.105   9
   3  -5  18 1114.74 532.003   6
  -3   5 -18 253.782 162.909  18
   3  -5  18 1033.73 556.629  16
  -3  -5  18 626.780 383.664   2
  -5   3 -18-397.918 515.044   9
   5   3 -18 591.695 387.311  18
  -3   5 -18 704.919 288.034  11
  -3   5 -18 675.566 387.377   3
  -3   5 -18 1067.89 519.998  10
  -5  -3  18 1423.34 633.649   2
  -3  -5  18 1877.88 744.860  17
   3  -5  18 959.380 334.130   8
  -5  -3  18 913.277 593.239  17
  -3   5 -18 642.190 469.877  12
   3  -5  18 1017.96 355.697  17
   5   3 -18 181.400 160.700   1
  -3  -5  18 620.521 359.735  16
   3   5 -18-4.99774 220.375   1
   5  -3  18 932.007 487.628  16
  -5  -3  18 1050.76 456.692  16
   3  -5  18 1049.88 475.962   2
  -3   5 -18 242.908 94.0594   7
   3   5 -18 813.959 404.086  10
  -3   5 -18-107.698 489.730  15
   3  -5  18-75.0901 211.276  14
  -5   3 -18 9.22640 135.428  19
   5  -3  18 1038.28 491.353   6
   3   5 -18 520.286 534.550  20
   5   3 -19-442.033 567.349  10
  -3   5 -19 1172.51 631.785  10
  -3   5 -19 987.422 524.110  13
   3   5 -19 1262.62 444.670  12
  -5  -3  19 1263.74 590.469  17
  -3   5 -19 698.298 424.048  12
   3   5 -19 964.423 446.734   3
  -3   5 -19 739.283 490.151   3
   5  -3  19 2130.71 637.328   2
   5   3 -19 547.685 342.564  11
  -5   3 -19 46.4290 131.216  19
   3   5 -19 1114.53 467.142  11
   3   5 -19 691.732 642.626  20
  -5   3 -19-1024.49 575.338  20
   3  -5  19 1322.13 406.159   8
  -5  -3  19 1326.40 412.793   5
   5   3 -19-122.283 391.173   9
  -3  -5  19 1777.16 629.792  17
   5  -3  19 1912.48 605.204   8
   3  -5  19 1307.57 582.676   2
   3   5 -19 1263.64 623.175   9
  -3   5 -19 660.402 572.126  20
  -3  -5  19 1532.20 656.488   2
   5   3 -19 603.698 342.339  18
  -3   5 -19 108.710 157.381  18
  -5  -3  19 1307.21 550.702   2
   3  -5  19 1652.95 682.838   6
   3  -5  19 1082.09 372.267  17
   3   5 -19 882.787 431.575  18
   5   3 -19 200.846 232.776   1
   3  -5  19 1198.49 555.744  16
  -3  -5  19 1206.93 506.438  16
   3   5 -19 480.014 394.250  10
   5  -3  19 1780.35 767.726  16
  -5  -3  19 1064.75 452.571  16
  -3   5 -19-734.011 867.340   7
   3   5 -19 79.3197 157.842   1
  -3   5 -19 535.951 235.409  11
  -3   5 -19-685.767 830.257  15
  -5   3 -19-146.606 309.246  10
  -3  -5  19-436.013 589.337   6
  -3   5 -19 707.234 407.936   9
   5  -3  19 1282.83 624.310   6
   5   4  -2 1.56450 191.246   1
  -5   4  -2 385.734 168.299  19
   5  -4   2 54.9766 21.9347   6
   5  -4   2 24.6505 169.456   8
   5  -4   3 54.2494 42.5461   6
  -5   4  -3 204.848 157.738  12
   5  -4   3 88.4632 55.8071   8
   5   4  -3 144.152 168.752   1
  -5  -4   3 85.0445 255.687  17
   5   4  -3-139.390 315.124  18
   5  -4   3 97.8852 92.9946  14
  -5   4  -3 291.747 186.546  19
   5  -4   4 205.853 139.834  14
   5   4  -4 252.724 191.618  13
   5  -4   4 161.181 130.065   6
   4  -5   4 75.3666 102.924   6
  -5   4  -4 305.200 182.463  12
  -4   5  -4 159.716 37.4329  12
  -5   4  -4 304.503 175.674  19
   5  -4   4 185.143 138.561   8
   5   4  -4 376.320 200.269  18
  -5  -4   4-55.7471 179.051  17
   5   4  -4 222.881 215.502   1
   5  -4   4 27.8148 108.541   1
  -5   4  -4 211.052 154.281   3
  -5   4  -5 455.658 230.276   3
   4   5  -5 321.497 207.896  13
   5   4  -5 608.087 296.140  13
   5  -4   5 380.008 200.997  14
   5  -4   5 492.703 258.850   6
   4  -5   5 132.940 60.3258   6
  -5   4  -5 520.127 244.849  12
  -4   5  -5 518.129 244.420  12
   5   4  -5 379.505 257.401   1
   5   4  -5 535.440 311.150  18
  -5  -4   5 169.512 184.081  17
  -4  -5   5 183.294 285.785  17
   5  -4   5 402.509 217.407   8
  -5   4  -5 564.795 242.702  19
  -5   4  -5 439.150 163.351   5
  -5   4  -5 521.114 201.240   4
   5  -4   5 288.820 134.451   1
  -4   5  -5 324.752 207.414   3
  -4   5  -6 700.290 329.403   3
   5  -4   6 634.501 249.227  14
  -5   4  -6 643.722 280.273   3
   4  -5   6 230.295 147.319  14
  -5   4  -6 812.773 291.886  19
  -5   4  -6 771.990 247.185   5
   4   5  -6 808.826 338.943  13
   5   4  -6 871.110 320.195  13
   5  -4   6 504.003 178.326   1
   4  -5   6 320.728 241.390   6
  -5  -4   6 50.1387 25.3497   6
  -5   4  -6 738.486 295.580  12
   4   5  -6-357.841 429.964   1
  -4   5  -6 810.133 321.015  12
  -5  -4   6 88.5697 138.966  19
   5  -4   6 858.477 366.308   6
   5  -4   6 649.345 273.744   8
   4   5  -6 478.779 215.073  18
   5   4  -6 706.615 330.219  18
  -4  -5   6-40.9066 56.5777  17
   5   4  -6 474.710 150.892   8
   5   4  -6 641.325 360.235   1
  -5  -4   6 280.717 248.024  17
   4  -5   6 99.3351 127.645   8
  -5   4  -6 670.802 260.865   4
   5   4  -7 2025.48 591.177   1
   4   5  -7 3161.19 684.492  13
   5   4  -7 2966.43 604.767  13
  -5   4  -7-13.3519 130.220  13
  -5   4  -7 2538.64 553.372  12
  -4   5  -7 2814.69 574.548  12
   5  -4   7 2421.97 381.163   1
  -4  -5   7 194.764 100.881   6
  -5  -4   7 1517.57 584.161   2
  -5   4  -7 2775.60 448.323   5
  -4   5  -7 1744.51 385.258  19
  -5   4  -7 2555.68 503.184  19
   5   4  -7 2440.78 379.164   8
   5  -4   7 807.022 304.165  16
   5   4  -7 2787.83 652.460  18
  -5   4  -7 2900.13 545.310   4
  -4   5  -7 2114.72 420.534   4
   5  -4   7 2421.56 509.799   8
  -5  -4   7 1515.50 584.976  17
   4  -5   7 1127.52 355.892   8
  -4  -5   7 423.725 327.406  17
   5   4  -7 1531.77 332.519   3
  -4   5  -7 2504.16 584.319   3
   5  -4   7 2994.34 651.544   6
  -5  -4   7 915.179 312.881  19
   4  -5   7 1833.95 514.633   6
   5  -4   7 2670.74 520.718  14
  -5   4  -7 2338.54 562.567   3
   4  -5   7 1422.40 376.298  14
   4   5  -7 2522.25 656.069  18
  -5   4  -8 356.116 166.920   5
   5   4  -8 283.633 145.212   3
   5  -4   8 272.587 181.736   8
   5   4  -8 369.034 199.415  13
   5  -4   8 348.775 137.220   1
  -5  -4   8 49.7284 42.2683   6
   4  -5   8 165.881 123.230  14
  -4   5  -8 235.109 189.690   3
  -4   5  -8 104.326 135.126  13
  -5   4  -8 60.7346 30.6413  13
   5  -4   8 403.320 267.242   6
   4  -5   8 281.255 254.076   6
  -4  -5   8 179.242 125.352   6
  -5  -4   8 144.868 187.439   2
  -5   4  -8 253.609 153.656  12
  -4   5  -8 272.473 197.032  12
  -5  -4   8 169.722 139.721  19
   4   5  -8 261.425 148.466   3
   4   5  -8 62.3814 97.5488   1
  -4  -5   8 47.8083 175.838  17
   5   4  -8 332.554 233.178  18
  -5   4  -8 325.150 192.570   4
  -5   4  -8 262.023 132.659  19
   4   5  -8 522.749 321.167  18
   5  -4   8 63.3661 169.744  16
   4  -5   8 205.706 150.984   8
  -5  -4   8 134.414 206.236  17
   5   4  -8 194.951 170.260   1
  -4   5  -8 210.478 112.446  19
   5  -4   8 293.926 178.846  14
  -5  -4   8-129.896 274.760  16
   4   5  -8 401.512 241.032  13
  -5   4  -8 300.446 180.957   3
  -4   5  -8 146.526 70.2852   5
   5   4  -8 380.642 139.310   8
  -4   5  -8 319.353 162.915   4
   4   5  -9 2109.39 527.823  13
   5   4  -9 1905.26 576.592  13
  -5   4  -9 451.172 242.644  13
   5  -4   9 1775.61 323.247   1
  -4  -5   9 599.839 206.795   6
  -4   5  -9 1192.34 311.602  19
  -5   4  -9 1428.87 487.314  12
   5   4  -9 329.372 90.4968  15
  -5   4  -9 1554.73 379.399   5
  -5   4  -9 1648.23 443.936  19
   4  -5   9 924.976 244.886  17
  -4   5  -9 881.741 149.702  18
   4  -5   9 1236.86 352.264   8
  -4  -5   9 839.664 480.373  17
   4   5  -9 1485.03 471.949  18
  -4   5  -9 1845.32 467.018  12
   5   4  -9 1394.37 212.866   8
   5  -4   9 1633.12 425.081   8
  -4   5  -9 1814.44 399.967   4
  -5   4  -9 1217.00 441.658   3
  -5  -4   9 1081.94 460.378   2
  -5  -4   9 1069.48 502.006  17
   5   4  -9 1922.22 541.587  18
  -4   5  -9 1720.33 297.594   5
  -5  -4   9 847.617 354.832  16
   4  -5   9 894.507 184.653   1
  -4  -5   9 292.661 127.934  19
  -5   4  -9 1396.17 409.546   4
   4  -5   9 255.779 157.338  16
  -4   5  -9 566.202 278.933  13
   5   4  -9 419.288 141.332   7
   5   4  -9 1259.10 520.957   1
   4   5  -9 1833.82 426.562   3
   5  -4   9 2088.70 588.666   6
   4  -5   9 1612.98 520.050   6
   5   4  -9 1935.74 427.419   3
   5  -4   9 1849.75 449.099  14
  -4   5  -9 1580.36 466.321   3
   4  -5   9 1416.89 368.613  14
   5  -4   9 1075.99 435.019  16
  -5  -4   9 1134.85 301.889  19
  -5  -4   9-65.5682 107.025   6
  -5  -4  10 933.532 294.725  19
   5  -4  10 847.843 254.173   1
  -4  -5  10 469.429 182.310   6
  -4   5 -10 445.757 244.345  13
  -4   5 -10 1101.04 369.080   3
   4  -5  10 360.074 96.8290  16
   4   5 -10 1275.57 447.555  13
   4  -5  10 813.543 162.570   1
   4   5 -10 1123.76 415.027  18
  -4   5 -10 1158.34 356.485  12
  -5   4 -10 1022.56 385.941   5
  -4   5 -10 1000.00 221.208   5
  -5   4 -10 2070.88 325.114  11
  -4  -5  10 443.010 313.819   2
   4  -5  10 1124.47 425.596   6
  -4   5 -10 1001.18 205.971  18
   4   5 -10 1349.13 390.442   3
  -5  -4  10 1014.20 508.137   2
  -4  -5  10-53.0070 315.884  16
   4  -5  10 1059.17 293.169  14
  -4   5 -10 1151.86 333.326   4
   5  -4  10 1479.82 454.868   8
  -4  -5  10 525.487 147.290  19
   5  -4  10 1049.99 180.187  17
  -4  -5  10 616.761 370.649  17
   4   5 -10 516.273 344.508   1
   5  -4  10 933.958 469.091  16
   4  -5  10 1216.22 264.872  17
  -5  -4  10 803.205 407.000  16
   4  -5  10 1072.97 315.118   8
  -5  -4  10 755.516 440.145  17
  -5   4 -10 1319.13 516.738  13
  -4   5 -10 961.978 270.399  19
   5   4 -10 1052.50 514.927   1
  -5   4 -10 1302.07 511.868   4
   5  -4  10 1244.53 401.934  14
   5   4 -10 1255.99 494.053  18
   5  -4  10 1899.97 623.848   6
   5  -4  11 11.9238 102.535  14
  -5  -4  11 89.7087 120.213  16
   4  -5  11 37.7051 53.2002  14
  -4  -5  11 39.3797 93.7281   6
   5  -4  11-6.45078 89.4509   6
   4   5 -11 0.92883 56.7549   3
  -4   5 -11 116.356 121.899  13
   5   4 -11-22.8768 42.8047   3
  -4   5 -11-40.9079 75.9387   3
   5   4 -11 153.163 198.765  13
  -4  -5  11 1.87553 109.728  17
  -4   5 -11-105.396 116.235  12
   5  -4  11 84.7651 224.863  16
   4   5 -11-67.9454 127.367  12
  -5   4 -11 18.5973 92.1316   5
   5   4 -11-18.2665 105.911  11
   4  -5  11 26.1480 101.319  16
  -5   4 -11 35.6934 62.4920  11
   4  -5  11 140.333 220.154   6
  -4   5 -11 67.6173 100.415   5
   5   4 -11 72.7890 222.090  20
   4   5 -11-63.8068 145.367   1
  -4  -5  11 146.196 337.163   2
  -5  -4  11 14.4445 34.0073  19
  -5   4 -11-230.656 154.391  19
   5  -4  11 34.5954 36.5693   1
  -5   4 -11 15.6990 77.9727  12
  -4   5 -11-12.5702 29.9668  18
   5   4 -11-17.7352 48.0541  12
  -5   4 -11-16.9891 41.1458  18
   4  -5  11 118.274 82.1493  17
  -5  -4  11 97.2423 95.0154   2
  -5   4 -11 5.80664 156.789   3
  -5  -4  11-16.0930 119.394  17
  -4  -5  11 33.7594 52.5816  19
  -5   4 -11-65.9678 43.3477   4
   5  -4  11 12.5543 11.2137  17
   5  -4  11 80.1755 138.246   8
   5   4 -11 128.489 150.434  18
  -5   4 -11-51.1665 103.644  13
   4   5 -11 18.0504 54.2145  18
  -4  -5  11-101.142 200.656  16
  -5  -4  11-181.567 230.210   6
   5   4 -11 44.3115 75.5662   1
   4   5 -11 151.953 145.221  13
   4  -5  11 28.7708 63.8140   8
  -4   5 -11 37.8265 82.7135  19
  -4   5 -11-11.0669 57.0390   4
  -4  -5  12 60.6419 71.3079   6
   5  -4  12 784.448 379.769   6
   5   4 -12 872.644 467.163  10
   4  -5  12 783.217 439.353   6
   4   5 -12 574.764 249.946   3
   5   4 -12 586.112 345.889  20
  -5   4 -12 315.289 208.756  13
   4   5 -12 654.061 290.868  13
  -4   5 -12 236.117 220.577   3
   5   4 -12 770.017 399.310  13
   5   4 -12 584.664 235.048   3
  -5   4 -12 366.810 280.966   3
  -5   4 -12 295.009 233.643  12
  -4   5 -12 451.251 276.542  12
   5   4 -12 493.370 138.132  12
   4   5 -12 443.697 162.336  12
  -4   5 -12 932.495 295.043  11
  -5  -4  12 160.824 99.9005   5
  -4  -5  12 91.2487 52.9005  19
  -4   5 -12 308.724 149.010   5
   5   4 -12 706.800 381.427  11
  -5   4 -12 392.336 121.776  11
  -5   4 -12 633.519 376.197  20
  -4  -5  12 350.135 324.267   2
  -5   4 -12 289.240 199.660  19
  -4   5 -12 379.181 153.576  19
  -5   4 -12 1180.36 632.521  15
   4  -5  12 640.948 256.906  14
   4   5 -12 611.555 318.837  18
  -5   4 -12 294.746 226.954   4
  -5  -4  12 619.996 367.137  17
   4   5 -12 205.357 193.423   1
   5   4 -12 566.055 301.529  18
  -4  -5  12 614.914 415.401  17
   4  -5  12 820.393 224.064  17
  -4   5 -12 633.598 159.951  18
  -5  -4  12 85.9864 35.4708  19
  -4   5 -12 175.650 152.588  13
   5  -4  12 44.7533 64.4532  17
   4  -5  12 392.071 209.365   8
  -4  -5  12 409.977 253.629  16
   4  -5  12 427.942 339.997  16
  -5  -4  12 366.544 223.426  16
   5  -4  12 451.532 338.348  16
   4   5 -12 621.590 356.896   7
  -5  -4  12 594.176 362.869   2
   4   5 -12 651.648 371.969  15
   5  -4  12 586.703 256.912   8
  -4   5 -12 410.787 178.317   4
   5  -4  12 667.666 300.566  14
   5   4 -12 423.100 234.001   1
   4  -5  13 786.657 287.010  14
  -5   4 -13 387.684 283.690   3
   5  -4  13 794.253 430.706   6
   5   4 -13 374.663 250.026   1
   4  -5  13 691.271 334.180   6
  -5   4 -13 392.482 121.288  11
  -4   5 -13 351.664 239.765  12
   4   5 -13 523.386 242.047   3
  -4   5 -13 448.687 302.043  13
  -5   4 -13 223.946 163.854  13
   4   5 -13 616.961 325.743  13
  -4   5 -13 532.052 311.572   3
   4   5 -13 596.524 323.660  18
  -5   4 -13 513.664 276.776  12
   5   4 -13 573.418 234.462   3
   4   5 -13-92.0583 263.358  15
   5   4 -13 605.201 171.367  12
   4   5 -13 741.145 378.976  11
  -5   4 -13 1066.24 688.597   7
  -5  -4  13 300.771 233.545   5
  -4   5 -13 962.192 261.842  11
   5   4 -13 509.681 301.634  11
   5   4 -13 652.707 432.694  10
  -5   4 -13 577.552 402.875  20
  -4   5 -13 463.013 214.771  19
  -4   5 -13 494.821 247.947   4
  -5   4 -13 448.016 279.611  10
  -4  -5  13 125.186 158.617   6
  -4  -5  13 417.551 358.988   2
  -5   4 -13 418.378 210.992  19
   5   4 -13 376.041 294.368  20
  -5  -4  13 582.855 310.655  16
  -5  -4  13 722.742 431.523   2
   4   5 -13 544.714 186.610  12
   5   4 -13 569.268 300.745  18
  -4   5 -13 611.317 158.104  18
   4  -5  13 798.597 221.547  17
  -5   4 -13 98.2037 165.869   4
  -5  -4  13 515.955 303.375  17
   4   5 -13 1061.34 599.250  20
   5  -4  13 783.670 303.799   8
  -5   4 -13 1105.90 661.267  15
   4  -5  13 530.249 223.507   8
  -4  -5  13 394.167 269.162  16
   4  -5  13 362.657 287.324  16
   5  -4  13 558.042 338.814  16
   4   5 -13-36.9958 217.741   7
   4   5 -13 256.814 238.585   1
  -4  -5  13 603.453 348.654  17
   5  -4  13 789.181 309.332  14
   5   4 -14 1315.14 682.372   9
   5  -4  14 478.365 347.697   6
   4  -5  14 558.110 349.711   6
  -4   5 -14 638.688 221.059  11
  -5   4 -14 594.435 393.967   9
  -4  -5  14 372.053 290.267  16
  -4   5 -14 58.8016 138.102  13
  -5   4 -14 221.361 191.671  13
   4   5 -14 330.503 227.987  13
   4   5 -14 428.018 244.372   3
   5   4 -14 443.033 282.334   1
  -5   4 -14 554.434 438.051  12
  -4   5 -14 165.390 141.995   3
  -4   5 -14 253.312 199.927  12
   5   4 -14 361.546 132.773  12
   5   4 -14 466.831 243.254   3
   4   5 -14 296.325 136.760  12
  -5   4 -14 513.141 341.471   3
  -5  -4  14 453.454 282.016  16
   5   4 -14 562.804 505.959  20
   4   5 -14 611.968 312.675  11
  -5  -4  14 198.549 147.060   5
   5   4 -14 270.749 153.343  11
  -5   4 -14 243.219 343.937  20
  -4   5 -14 288.594 145.036  19
  -4   5 -14 581.589 492.140  20
  -5   4 -14 330.825 167.181  19
  -4  -5  14 227.115 251.546   2
   4   5 -14 505.371 322.152  18
  -5  -4  14 304.226 321.766   2
  -4   5 -14 321.782 120.872  18
  -4   5 -14 166.292 123.896   4
   4  -5  14 495.236 194.403  17
   5  -4  14 635.333 292.432   8
   4   5 -14 107.811 116.210   1
   4  -5  14 358.759 212.882   8
  -5   4 -14 203.609 215.784  10
   4  -5  14 435.765 296.378  16
   5  -4  14 231.678 265.350  16
   4   5 -14 430.496 429.423  20
  -5   4 -14 121.445 64.2594  11
  -5   4 -14 176.955 424.079   7
   5   4 -14 368.871 260.688  18
  -4  -5  14 680.059 391.009  17
  -5   4 -14 140.398 226.897  15
  -4   5 -14 897.772 594.882  15
   5   4 -14 694.611 463.128  10
  -5  -4  14 487.082 295.017  17
   5  -4  14 444.768 251.452  14
  -4  -5  14 28.3044 67.3725   6
   4  -5  14 491.959 231.408  14
   5  -4  15-11.5793 170.479   6
   4  -5  15 151.423 186.119   6
  -4   5 -15 182.217 129.636  19
  -4   5 -15 98.6566 155.162  13
   4   5 -15 248.501 290.631  13
  -5   4 -15 282.968 234.660  13
   4   5 -15 173.215 163.934   3
   5   4 -15 130.316 113.206  12
   4   5 -15 229.163 155.702  12
   5   4 -15 255.254 230.430   3
   5   4 -15 300.055 262.620   1
  -5   4 -15 100.638 260.597  20
   4   5 -15 80.6103 173.771  11
  -5  -4  15 8.91708 123.491   5
  -4   5 -15 67.0978 54.6082  18
   5   4 -15 204.039 204.068  11
  -4   5 -15 331.385 169.354  11
   4   5 -15 105.545 261.647  20
   5   4 -15 201.837 374.424  20
  -5   4 -15 35.2900 26.8579  11
   5  -4  15 193.438 302.844   2
  -4   5 -15 231.803 222.689  12
  -5   4 -15 123.617 158.968   9
  -4  -5  15 180.403 239.979  16
   5   4 -15 605.684 480.642   9
  -5  -4  15 266.106 262.969   2
  -5   4 -15 48.6028 103.359  10
   4   5 -15 716.710 573.658  10
  -4  -5  15 60.7169 197.810   2
  -4  -5  15 102.603 249.487  17
  -5  -4  15 66.1983 39.6104  17
   5  -4  15 220.760 207.891   8
  -4   5 -15 221.116 371.500  20
   4  -5  15 98.3324 85.9675  17
  -4   5 -15 158.533 223.477   3
   4  -5  15 265.216 196.242   8
  -4   5 -15 514.287 453.622  10
   4  -5  15 104.457 195.154  16
   5  -4  15 80.3778 132.923  16
  -5  -4  15 49.1225 84.4586  16
  -5   4 -15 47.1431 79.9161  19
  -5   4 -15 120.483 198.040   7
  -4   5 -15 543.322 558.521   7
  -5   4 -15 279.516 382.139  15
  -4   5 -15 409.187 481.895  15
   4   5 -15 200.288 170.155   1
  -4  -5  15 72.6163 225.112   6
   4   5 -15 191.176 173.229  18
   5  -4  15 211.878 229.278  14
   5   4 -15 311.012 254.260  18
   4  -5  15 191.340 191.106  14
   5   4 -15 69.3086 246.918  10
   5  -4  16 345.079 388.244   6
   4  -5  16 362.490 371.166   6
  -5   4 -16 661.166 420.436  10
   5   4 -16 39.5747 219.034  20
   4   5 -16 395.508 268.039  10
  -4  -5  16 203.255 300.442   2
   4   5 -16 388.272 372.283  13
   4   5 -16 310.926 358.214  20
   5   4 -16 441.536 223.302  12
  -4   5 -16 183.902 176.178  12
   5   4 -16 302.315 266.818   1
   4   5 -16 101.409 130.874   3
  -4   5 -16 1055.71 617.019   9
   4   5 -16 269.262 148.370  12
  -4   5 -16 114.827 188.251  20
  -5  -4  16 212.513 189.739   5
   5   4 -16 181.562 71.0098  11
  -4   5 -16 151.591 84.2329  11
  -5   4 -16 273.152 451.906  20
  -4   5 -16-18.0974 106.149  13
  -5   4 -16-177.811 217.657  11
  -4   5 -16 214.676 280.633  10
  -4   5 -16 93.0909 325.357   7
   5  -4  16 306.198 232.264   2
   4   5 -16 39.0098 189.130  18
   5   4 -16 165.878 251.169   9
  -5   4 -16 252.798 344.074   9
  -5  -4  16-95.0500 37.2589  17
  -4  -5  16 307.167 336.944  17
  -5  -4  16 355.074 354.468   2
   5   4 -16-99.4167 212.004  10
   4  -5  16 404.438 378.624  16
   5  -4  16 345.329 217.074   8
   4  -5  16 176.480 171.918  17
   4  -5  16 247.070 205.535   8
   5   4 -16 51.3114 59.6037  18
  -4  -5  16 393.033 293.044  16
  -5  -4  16 353.828 226.002  16
   4   5 -16 16.9804 21.1596   1
  -5   4 -16 138.934 171.655  19
  -4   5 -16 242.644 255.957   3
  -5   4 -16-82.8806 368.228   7
  -4   5 -16 62.8555 27.1070  18
  -5   4 -16-84.5169 360.475  15
  -4   5 -16 121.572 187.896  15
  -4  -5  16 134.517 112.148   6
  -4   5 -16 158.062 104.206  19
   5  -4  16 78.2662 55.0364  14
   4  -5  16 243.512 124.937  14
   4   5 -16 250.400 308.819  11
   5  -4  16 200.465 211.561  16
   5   4 -17 184.256 463.456  10
   4  -5  17 204.636 60.1288   6
  -4   5 -17-52.3124 160.339  13
   4   5 -17-43.9591 229.827   1
   5   4 -17 516.325 279.877  12
  -4   5 -17 23.7433 115.031  12
   4   5 -17 296.802 283.934  12
  -4   5 -17 694.880 464.217   9
   5   4 -17 93.3233 153.690   1
  -4   5 -17 203.412 226.142   3
  -5   4 -17-56.3418 119.377  19
   4   5 -17 170.479 290.642  11
  -5  -4  17 67.9222 174.437   5
   5   4 -17 94.0706 127.092  11
  -4   5 -17 221.535 129.558  11
  -4   5 -17 53.1226 48.2925  20
   4   5 -17 242.200 509.738  20
   5   4 -17-14.8433 225.725  20
   4  -5  17 155.902 254.629   2
   4  -5  17 170.621 96.7509  16
  -4   5 -17 246.523 289.504  10
  -5   4 -17 45.6799 82.8270   9
   4   5 -17-91.0750 154.398  10
  -4  -5  17-120.737 154.658  17
  -4   5 -17 170.312 100.640  19
   5  -4  17 269.883 217.326   2
  -5   4 -17 228.719 192.761  10
   4   5 -17 1349.38 813.422   9
   5   4 -17-60.9055 302.977   9
  -4  -5  17 219.971 194.555  16
  -4  -5  17-42.9065 327.785   2
   5   4 -17 269.700 316.493  18
  -5  -4  17 244.414 215.196   2
  -4   5 -17-12.0973 127.970  18
   4   5 -17 89.7164 231.712  18
   4  -5  17 106.780 15.3324  14
   5  -4  17 328.609 209.447   8
   4  -5  17 203.082 165.788   8
   4  -5  17 147.545 123.179  17
  -5  -4  17 324.945 439.344  17
   5  -4  17 292.919 247.368  16
  -5  -4  17 316.972 251.599  16
  -5   4 -17-947.742 623.158   7
   4   5 -17 219.233 266.911   3
  -4   5 -17-59.2176 319.519   7
  -5   4 -17 86.3702 205.041  20
  -4   5 -17 237.669 231.168  15
   5  -4  17 186.257 66.6339  14
   5  -4  17 528.617 413.677   6
   4  -5  18 328.654 322.997   6
  -4   5 -18-77.6247 18.1480  10
   4   5 -18 132.946 412.425  20
   5   4 -18 115.453 208.208  11
   5   4 -18 124.144 121.049   9
  -4   5 -18 102.110 171.315  13
   4   5 -18 1250.21 648.030   9
  -4   5 -18 73.6471 205.849  12
  -5   4 -18-137.845 179.259  19
   4   5 -18 435.556 477.707  10
   4   5 -18 546.303 295.771  12
   4   5 -18 254.226 245.946   3
  -4   5 -18 441.811 373.857   3
   5   4 -18-49.8984 115.312   1
   4   5 -18-116.122 197.198  11
  -5  -4  18 133.758 83.2672   5
   5  -4  18 212.894 224.994   2
  -4   5 -18 17.8166 119.585  20
  -4   5 -18 67.6907 93.5683  11
   5   4 -18-923.259 560.396  20
  -5   4 -18 61.8460 242.537  20
   4  -5  18 66.9801 172.075   2
  -5   4 -18 4.76605 194.915  10
   5   4 -18-249.163 430.206  10
  -4   5 -18 175.414 121.703  19
  -4   5 -18 197.860 66.4139   9
  -4  -5  18 218.870 227.671   2
   4   5 -18 46.1345 161.389  18
   5   4 -18 188.017 194.418  18
  -5  -4  18 70.1070 118.454   2
  -5   4 -18-36.3469 261.808   9
   4  -5  18-50.0662 208.544  17
   5  -4  18 419.826 330.463   8
  -4  -5  18 216.206 323.287  17
  -5  -4  18 21.6014 66.6426  17
   4  -5  18 212.663 147.955   8
  -4   5 -18-127.326 353.974  15
   4   5 -18-18.7534 173.691   1
  -4  -5  18 189.941 187.267  16
   4  -5  18 244.773 332.325  16
   5  -4  18 533.381 399.898  16
  -5  -4  18 134.967 131.288  16
  -4   5 -18-80.6213 283.286   7
   5  -4  18 2.89327 297.224  14
   4  -5  18-77.9142 146.708  14
   5  -4  18 351.409 281.561   6
  -5  -5   4-24.5284 187.197  17
  -5   5  -4 248.988 138.861  12
   5  -5   4-43.0568 246.258   8
   5  -5   4 145.579 159.729   6
   5  -5   5 18.7104 96.9996  14
  -5   5  -5-57.2392 143.361   3
   5   5  -5 6.22453 81.5106  13
   5  -5   5-42.5997 87.0814   6
  -5   5  -5 6.38146 45.0634  12
   5   5  -5-273.042 387.896   1
   5   5  -5-88.8505 180.585  18
  -5  -5   5 73.3568 68.2391  17
   5  -5   5-80.4072 171.507   8
   5  -5   6 265.619 176.340  14
   5   5  -6 456.897 268.955  13
   5   5  -6 500.489 309.780  18
  -5   5  -6 514.417 248.269  12
  -5   5  -6 431.765 193.877  19
   5  -5   6 318.757 248.387   6
   5   5  -6 230.727 213.345   1
  -5   5  -6 275.972 108.797   4
  -5  -5   6 42.7362 163.275  17
   5  -5   6 304.816 208.763   8
  -5   5  -6 450.655 258.827   3
  -5   5  -7-34.4248 89.0209   3
  -5   5  -7 10.9358 80.0093  19
   5   5  -7 16.3336 84.5431  13
   5  -5   7 21.1986 43.5796   6
  -5  -5   7-28.6522 88.2522   6
  -5   5  -7-8.37495 88.3311  12
   5   5  -7 76.1072 180.227  18
  -5  -5   7-140.244 297.814  17
  -5   5  -7-72.2656 119.102   5
   5   5  -7-44.6166 171.206   1
   5  -5   7 32.8333 82.9511   8
   5  -5   7 18.4061 83.2902  14
   5  -5   7-58.7643 120.372   1
  -5   5  -7 33.2489 78.4964   4
   5   5  -8 2724.46 655.824  13
  -5   5  -8-131.151 297.298  13
  -5   5  -8 1645.51 402.527  19
  -5   5  -8 1824.34 487.158  12
   5  -5   8 1246.50 274.519   1
  -5   5  -8 1884.78 381.860   5
   5   5  -8 1049.50 471.220   1
  -5  -5   8 484.867 257.149  19
  -5   5  -8 1712.88 420.016   4
   5   5  -8 2148.60 626.840  18
   5  -5   8 1209.95 376.570   8
  -5  -5   8 1105.86 509.795  17
   5   5  -8 1017.86 235.941   8
   5  -5   8 1744.71 564.229   6
  -5  -5   8 749.171 214.878   6
   5  -5   8 1413.15 388.927  14
  -5   5  -8 1527.40 459.890   3
   5  -5   9-26.5940 90.1847  14
  -5  -5   9-28.2761 140.977  19
  -5   5  -9-57.5556 86.8568   3
  -5   5  -9-65.0533 126.996  13
   5   5  -9-227.275 183.270  13
  -5   5  -9-13.9079 53.0332  12
  -5  -5   9-155.996 108.392  17
   5  -5   9-73.9552 159.406   6
  -5   5  -9-6.56363 31.0451  19
   5   5  -9 22.2756 138.034  18
   5   5  -9-88.4329 149.340   1
   5   5  -9-66.7656 56.4196   8
  -5  -5   9-28.8571 58.1643   6
  -5   5  -9 2.46787 43.5689   5
   5  -5   9-30.9997 103.553   8
  -5   5  -9-62.1703 86.4839   4
   5  -5   9-37.2912 63.7932   1
   5  -5   9-454.908 477.322  16
   5   5  -9-60.9126 72.0792   3
   5  -5   9-93.8285 84.6656  17
   5  -5  10 109.724 67.7675  17
  -5  -5  10 50.2558 178.574  17
   5  -5  10 22.2290 119.934   6
   5   5 -10 30.3498 146.861  13
  -5   5 -10-27.4943 104.884  12
   5   5 -10 178.015 255.530  18
  -5  -5  10-45.6820 141.484   2
  -5   5 -10 113.471 127.184  19
  -5  -5  10 2.58360 53.4195  19
  -5   5 -10 59.8035 102.838   3
  -5   5 -10 28.5576 34.6069  18
  -5   5 -10 67.8827 133.180  13
   5  -5  10 40.8434 99.0292  14
   5   5 -10 22.7805 97.6168   1
  -5  -5  10 28.1100 74.6121   6
   5   5 -10 68.0110 52.7674   8
  -5   5 -10 116.513 114.139   5
  -5   5 -10 32.9798 101.482   4
   5  -5  10 45.3921 62.9963   8
  -5  -5  10-233.487 358.494  16
   5   5 -10 16.6304 46.7208   3
   5  -5  10 57.8263 53.2636   1
   5  -5  10-38.3182 328.268  16
  -5  -5  11-26.1037 68.9310   6
   5   5 -11-23.5015 72.5222   3
   5  -5  11-56.7755 134.317   6
  -5   5 -11-33.8569 128.047  13
  -5   5 -11 8.19551 48.6933   3
   5   5 -11 82.1386 52.8022  13
   5  -5  11-0.50793 16.5572   1
   5  -5  11-38.3381 75.9294  14
  -5   5 -11-116.217 133.048  12
  -5   5 -11-41.5634 71.5836   5
  -5  -5  11-102.552 119.573   2
   5   5 -11 26.2023 72.3268  18
   5  -5  11 63.3730 181.670  16
  -5   5 -11 9.21657 45.2773  18
   5   5 -11-72.0529 131.729   1
  -5  -5  11-14.5208 147.512  17
   5  -5  11-18.2486 45.3179  17
  -5   5 -11 71.6715 112.209   4
   5  -5  11-12.6190 70.2913   8
  -5  -5  11-77.5913 196.179  16
   5   5 -11 40.3353 135.823   7
   5   5 -11 7.54855 82.1245  15
  -5   5 -11 25.4074 89.2082  19
  -5  -5  11 25.7976 76.2728  19
   5  -5  12 377.055 219.170  14
   5   5 -12 376.492 207.863   3
   5  -5  12 482.647 350.303   6
  -5   5 -12 214.361 146.410  13
   5   5 -12 348.765 235.840  13
  -5   5 -12 222.306 214.555   3
  -5   5 -12 322.619 159.111  19
  -5   5 -12 226.426 256.576  12
   5  -5  12 186.571 132.358  16
   5   5 -12 858.001 508.159  11
  -5   5 -12 744.080 244.095  11
   5  -5  12 47.8411 56.6176   1
  -5   5 -12 289.206 179.559   5
  -5  -5  12 504.777 400.678   2
  -5  -5  12 184.148 87.2402  19
   5   5 -12-234.379 354.198  15
   5   5 -12 428.754 228.309  18
   5   5 -12 196.644 176.227   1
  -5   5 -12 304.588 97.8106  18
  -5  -5  12 224.090 199.377  17
   5  -5  12 435.868 146.354  17
   5  -5  12 289.837 171.606   8
  -5  -5  12 171.605 145.828  16
  -5   5 -12 484.056 284.337   4
   5   5 -12-190.015 323.069   7
  -5  -5  12 56.2765 79.2421   6
   5  -5  13 74.0463 55.8322   6
   5  -5  13 28.6746 30.2057  17
   5   5 -13-32.0139 103.619   3
  -5   5 -13-59.8995 94.9581  13
   5   5 -13 2.57327 114.174  13
  -5   5 -13 44.5108 170.291   3
  -5   5 -13-4.10618 66.5225  12
   5   5 -13-29.2863 70.2479  12
   5   5 -13-17.1214 43.3740  11
  -5   5 -13 101.631 126.190  11
   5   5 -13 215.757 340.046  20
   5  -5  13-33.9889 174.990  14
   5   5 -13 1.71565 39.7222   1
  -5   5 -13 108.342 153.336  19
  -5  -5  13-4.25649 36.9813  19
   5   5 -13-25.5463 137.280  18
  -5  -5  13-182.896 194.409  16
  -5  -5  13-19.2732 109.076  17
   5  -5  13 111.898 196.988   8
   5  -5  13-1.14670 154.487  16
  -5  -5  13 31.5751 65.9797   2
  -5   5 -13-46.5800 94.5565   4
  -5   5 -13 32.4427 19.0248  18
  -5  -5  13 5.06380 87.1221   6
   5  -5  14 686.232 273.009   8
  -5   5 -14 568.448 380.664  13
   5   5 -14 627.010 377.167  13
  -5   5 -14 332.837 225.931  12
   5   5 -14 482.495 276.511   1
   5   5 -14 583.021 182.010  12
   5   5 -14 1186.02 543.453  11
  -5   5 -14 851.291 233.112  11
   5  -5  14 876.805 500.646  14
  -5   5 -14 1262.72 637.891  20
   5   5 -14 840.257 481.043  20
  -5   5 -14 560.126 253.636  19
   5   5 -14 774.007 320.368   3
  -5  -5  14 523.521 325.853  16
  -5  -5  14 527.326 433.998   2
  -5   5 -14 1402.98 773.974  15
  -5  -5  14 496.102 417.233  17
   5   5 -14 916.934 416.047  18
  -5   5 -14 200.836 83.8575  18
  -5   5 -14 304.226 263.088   4
  -5   5 -14 383.743 369.563   3
   5  -5  14 528.645 164.979  17
   5  -5  14 622.896 337.340  16
  -5  -5  14 6.52541 72.3321   6
   5   5 -14 1502.21 700.222  10
   5  -5  15 13.9975 110.812   6
  -5   5 -15 51.9351 61.9605  19
   5   5 -15-148.974 68.7038   1
   5   5 -15-46.5256 130.435   3
   5   5 -15 205.979 245.559  13
  -5   5 -15 9.82020 118.800  12
  -5   5 -15 52.2468 164.528   3
   5   5 -15-44.6575 69.1669  12
   5   5 -15-1.38385 156.565  11
  -5   5 -15 117.081 188.643  13
  -5   5 -15 86.6505 62.5528  11
  -5   5 -15 282.642 374.298  20
  -5  -5  15-27.6732 137.769   2
   5   5 -15 166.751 373.030  10
  -5   5 -15 480.847 394.597  10
  -5   5 -15-266.053 369.775   4
   5   5 -15 52.2953 155.881  20
  -5  -5  15-123.294 168.587  17
   5   5 -15-25.7801 67.1008  18
   5  -5  15 89.6206 51.9594   8
   5  -5  15-20.4498 68.3597  17
  -5  -5  15 86.5606 156.072  16
   5  -5  15-64.0851 157.148  16
  -5   5 -15 769.751 702.316   7
  -5   5 -15 281.592 481.636  15
  -5  -5  15-322.037 423.217   6
   5  -5  15-90.5272 30.5483  14
  -5  -5  16-146.752 161.013   2
   5  -5  16-41.1226 95.8687   6
   5   5 -16-16.7529 95.0381  12
  -5   5 -16 27.6854 197.668  13
   5   5 -16 139.738 349.330  13
  -5   5 -16 52.3649 358.879   7
   5   5 -16 37.5398 147.041   3
  -5   5 -16-115.879 172.726  12
  -5   5 -16 48.1688 143.013   3
  -5   5 -16-143.344 190.877  10
   5  -5  16 118.310 187.261  16
  -5   5 -16 22.3637 117.270  15
  -5   5 -16 272.925 339.706   9
   5   5 -16 132.689 336.124  11
  -5   5 -16 53.8357 18.3406  11
  -5  -5  16-107.758 160.382  16
   5   5 -16 0.10552 85.2796  18
   5   5 -16 430.701 576.404  20
  -5   5 -16-22.3263 144.824  20
  -5  -5  16 32.9077 304.262  17
   5   5 -16 40.7409 221.311  10
   5  -5  16 89.2934 157.094   8
  -5   5 -16-53.7509 137.897  19
   5   5 -16-129.550 104.111   1
   5  -5  16 59.9062 34.7053  14
   5  -5  17 456.917 426.496   6
   5   5 -17 2786.94 1281.08  20
  -5   5 -17-178.596 272.094  13
   5   5 -17 1450.30 625.801  13
  -5   5 -17 176.927 245.204  12
  -5   5 -17 14.8368 231.317   3
   5   5 -17 1494.64 791.703  11
  -5   5 -17-35.5460 114.681  20
   5   5 -17 1270.42 633.068  18
  -5   5 -17 17.4831 220.467  10
  -5   5 -17 131.015 202.709   9
  -5  -5  17 807.857 518.600   2
  -5   5 -17 317.961 205.310  19
  -5   5 -17 162.228 85.5792  11
  -5  -5  17 528.176 512.369  16
   5  -5  17 18.5045 306.359  16
  -5   5 -17 193.125 328.332   7
   5  -5  17 125.287 138.472   8
   5   5 -17 1074.52 642.402   1
  -5   5 -17 305.042 393.130  15
   5   5 -17 1748.89 544.830   3
   5  -5  17 298.758 205.424  14
   5  -5  18 517.794 421.181   6
  -5   5 -18 157.544 176.072  13
  -5   5 -18 109.727 351.276  12
   5   5 -18 453.178 328.369   3
  -5   5 -18 104.501 258.003   9
  -5   5 -18 380.932 354.855   3
  -5   5 -18 86.8347 70.5844  11
   5   5 -18 455.813 436.856  11
  -5   5 -18 386.566 511.951  20
   5   5 -18 1132.02 805.581   9
   5   5 -18 772.631 679.994  10
  -5   5 -18 696.136 545.055  10
  -5   5 -18-272.677 571.459  15
  -5  -5  18 276.887 303.938   2
  -5  -5  18 322.082 344.833  17
   5  -5  18 251.289 170.477   8
   5   5 -18 250.751 285.214  18
  -5  -5  18 591.497 374.298  16
   5  -5  18 383.085 351.987  16
  -5   5 -18-45.0076 279.174   7
  -5   5 -18 187.069 158.505  19
   5   5 -18 90.8930 205.552   1
   5  -5  18 396.131 293.125  14
  -6   0   0 44.9727 46.3877   3
   6   0   0 395.687 177.085   6
  -6   0   0 166.231 103.632  12
   6   0   0 378.786 127.650  11
  -6   0   0 230.433 210.136   5
  -6   0   0 146.810 136.187  19
   6   0   0 347.591 225.206   1
   6   0   0 205.525 131.340  18
  -6   0   0 307.496 152.183   2
  -6   0   0 212.003 177.922   4
  -6   0   0 131.872 103.311  17
   6   0   0 268.533 163.603   8
   6   0   0 278.606 195.051  14
   6   0  -1 52.0781 73.4722  14
   6   0   1 50.6351 90.1246   6
   6   0  -1 11.8082 36.9089   6
  -6   0  -1 13.1305 21.2948   3
  -6   0  -1 95.5796 144.444  12
  -6   0   1 21.9669 74.9381  12
   6   0   1-51.2339 72.7713   1
   6   0   1 63.3105 94.4868  11
   6   0  -1-50.8096 64.8205  11
  -6   0   1-1.12975 64.8131   4
  -6   0  -1 47.1427 90.0226   2
  -6   0   1-20.3775 63.0676   5
   6   0  -1-47.0552 132.610   1
  -6   0  -1 6.54003 33.9077  17
   6   0   1-26.6635 50.9491  18
   6   0  -1 23.1389 49.4803  18
  -6   0   1 7.76287 60.0076  19
  -6   0   1-6.98722 52.1896   2
   6   0   1-39.6351 52.5949   8
  -6   0   1-11.4715 59.2305  17
  -6   0  -1 47.7926 31.2477   4
   6   0  -1 28.4985 59.2100   8
  -6   0  -1 19.5617 123.995  19
  -6   0  -1-7.62128 84.9347   5
  -6   0  -1 225.201 224.593  15
   6   0   1 29.6717 85.4215  14
   6   0  -2 298.340 193.250  14
  -6   0   2 275.428 161.934   5
   6   0   2 397.936 196.284   6
   6   0   2 298.243 182.588   1
  -6   0  -2 357.104 223.496   7
   6   0  -2 209.535 95.5282  11
   6   0  -2 426.611 150.894   6
  -6   0   2 93.2128 66.3801  12
  -6   0  -2 219.248 176.592   4
  -6   0  -2 134.793 104.962   5
  -6   0  -2 187.192 129.510  19
   6   0   2 410.740 164.154  18
  -6   0   2 342.132 169.930   2
  -6   0   2 296.102 171.222   4
   6   0   2 370.398 216.923   8
  -6   0   2 207.358 172.702  17
   6   0  -2 365.341 176.121   8
   6   0   2 335.143 140.838  16
  -6   0   2 387.468 200.125  19
   6   0  -2 325.383 193.752   1
  -6   0  -2 168.621 137.322  15
   6   0  -2 280.268 147.923  18
  -6   0  -2 130.741 118.157  17
   6   0   2 293.256 189.215  14
   6   0  -3-7.93536 54.4235  14
   6   0   3-21.4184 78.1350   6
   6   0  -3-3.24408 49.4068   8
   6   0  -3 39.5854 60.0704   6
  -6   0   3 18.4488 16.0648  19
  -6   0   3-16.5073 38.8562  17
  -6   0  -3 19.3600 80.1395   4
  -6   0  -3-8.33408 25.8167   5
  -6   0  -3 6.90964 100.246  17
   6   0   3 54.9249 92.5517   1
  -6   0  -3-22.3328 99.0200  19
   6   0  -3-35.8922 81.1822  11
   6   0   3 20.9576 24.1694  18
   6   0  -3-9.73540 68.1885  18
   6   0   3-67.3252 120.296   8
  -6   0   3 27.1619 77.7438   2
   6   0  -3 10.4569 65.2417   1
  -6   0   3 48.1381 85.4993   4
   6   0   3 32.9956 66.3254  16
  -6   0  -3-3.36233 96.6346   7
  -6   0  -3-34.1067 86.0348  15
   6   0   3 22.2975 43.9086  14
  -6   0   3 22.6489 87.0301   5
   6   0   4 3.13568 28.5907   6
   6   0  -4-18.3825 76.3187  14
   6   0  -4-10.0665 22.6274   6
   6   0  -4 7.59441 81.6950   1
  -6   0   4-9.92546 25.2505  19
  -6   0   4-42.6196 74.6754   5
  -6   0  -4-62.7818 163.387   7
   6   0   4 38.3552 92.7976  18
   6   0   4-26.9097 47.8872   8
   6   0  -4-57.3823 86.9443  18
  -6   0  -4-51.3066 164.780   4
  -6   0  -4-24.7145 92.6924  17
   6   0  -4 7.65068 46.9317   8
  -6   0   4-43.4687 61.6514  17
   6   0  -4-58.0528 127.720  11
  -6   0   4-53.0357 94.3426   2
  -6   0   4 24.7112 22.5092   4
   6   0   4 19.6235 66.3402  16
  -6   0   4-8.51433 20.6023  16
  -6   0  -4-168.415 241.699  15
   6   0   4-41.4190 114.033   1
   6   0   4-14.3098 48.5020  14
  -6   0  -4-29.9844 50.3190  19
   6   0  -5-25.0593 54.1226  14
  -6   0  -5-61.1190 100.968  19
   6   0  -5-237.802 148.124  11
   6   0   5 56.4051 68.8087  18
  -6   0   5 81.6114 126.697  19
  -6   0  -5 12.3018 95.0540  17
   6   0  -5 96.5024 133.769   8
  -6   0  -5-96.6719 222.843   4
   6   0   5 31.0572 134.744   1
   6   0   5 57.7677 134.723   8
  -6   0   5-16.8952 16.1238  17
   6   0  -5 12.6236 99.3721   1
  -6   0  -5-249.499 333.185   7
  -6   0   5-22.1251 65.8167   4
  -6   0   5 42.0492 102.086   2
   6   0   5 37.8214 122.716  16
  -6   0   5 28.2199 29.9876  16
  -6   0   5 28.2656 76.6742   5
   6   0   5 2.28904 103.603  14
   6   0  -5-13.4783 28.8527  18
   6   0   5-2.88772 58.6578   6
   6   0  -6 613.910 244.896  14
   6   0   6 650.063 260.414  16
  -6   0   6 772.775 282.042   5
   6   0  -6 416.422 178.740  11
  -6   0  -6 78.2431 169.951  19
  -6   0   6 727.782 244.473   4
   6   0  -6 470.420 221.952  18
  -6   0  -6-23.0039 117.539  17
   6   0   6 663.616 318.772   8
   6   0   6 414.031 204.591   1
  -6   0   6 440.427 240.156  17
   6   0  -6 93.6145 82.3108   8
   6   0  -6 722.513 295.712   1
  -6   0   6 163.257 90.1383  16
  -6   0   6 755.292 295.801   2
  -6   0   6 727.638 250.295  19
   6   0   6 826.818 365.526  14
   6   0   6 633.620 280.545   6
   6   0  -7 43.1922 98.4581  14
   0   6  -7-73.1052 215.601  13
   0  -6   7-45.3849 91.9889   6
   6   0  -7 25.6020 71.1228   1
  -6   0  -7 21.1825 41.2592  19
   6   0   7-487.338 311.805   1
   6   0  -7-61.8415 131.802  18
   6   0  -7-6.24476 33.8133  11
  -6   0   7-3.52437 66.0797   5
   6   0   7 2.98837 57.8009   8
  -6   0   7-4.72160 56.8372  19
  -6   0   7 41.0573 120.535  17
   6   0   7 4.02678 77.7935  16
  -6   0   7-72.9758 117.586   4
  -6   0   7-22.2024 57.0804  16
  -6   0   7-36.5304 80.0470   2
   6   0   7 89.1661 197.462  14
   0   6  -7-80.6594 152.138   3
   6   0   7-55.3516 152.975   6
   6   0  -8 425.103 205.490  14
   0   6  -8 537.123 313.015  13
   0  -6   8 148.241 117.299   6
   6   0   8 427.945 259.124   8
  -6   0   8 445.339 241.103   2
  -6   0   8 605.085 241.404   5
   6   0  -8 348.170 221.891   1
   6   0  -8 179.863 164.075  11
   6   0  -8 232.656 142.982  18
  -6   0   8 417.243 244.346  17
   6   0   8 503.762 289.752  16
  -6   0   8 232.247 147.064  16
  -6   0  -8 2.87058 80.1872  19
   6   0   8 453.463 296.683  14
   6   0   8 653.345 354.344   6
   0   6  -8 689.293 312.139   3
   6   0  -9-11.8604 62.8897  14
   0   6  -9 19.5676 155.572  13
   0  -6   9-14.7674 6.90499   6
   0   6  -9-43.6633 109.706   3
   0   6  -9-40.4503 109.505  12
  -6   0  -9-144.166 210.848  19
   6   0  -9-40.0509 107.963   1
   0  -6   9-66.8439 234.139  17
  -6   0   9-22.8784 71.0087   5
   6   0   9 18.9937 71.1646   8
   6   0   9 17.0113 116.552   6
   6   0  -9-1.57598 94.2307  11
   6   0   9-17.3701 131.893  16
  -6   0   9-9.68920 23.1197  17
   0   6  -9-488.755 266.309  18
  -6   0   9 12.0585 59.7436  16
  -6   0   9-7.22369 106.045   2
   6   0   9-12.3174 88.5454  14
   6   0  -9 48.8585 132.549  18
   0   6 -10 255.324 181.827   3
   6   0  10 187.298 225.218  16
   0   6 -10 234.928 196.930  13
   0  -6  10 148.963 189.223   6
   0   6 -10 104.463 117.279  12
   6   0 -10 16.3971 67.8228  11
  -6   0 -10-46.4879 270.927  19
  -6   0  10 61.2253 50.0233   5
   6   0 -10 64.0283 111.078  14
   6   0  10 40.3481 62.3870   8
   0   6 -10 175.387 177.437  18
   6   0 -10 54.4461 69.6996   1
  -6   0  10 154.225 104.092  17
   6   0 -10 63.1522 80.8285  18
  -6   0  10 22.6543 73.5265  16
   0  -6  10 59.0868 156.961  17
  -6   0  10 181.861 143.300   2
   6   0  10 13.9640 212.631  14
   6   0  10 180.813 240.123   6
   6   0 -11 36.4230 57.1643  14
   0   6 -11 25.8625 56.3880   3
   0  -6  11-66.6935 153.907   6
   6   0 -11-53.0978 98.2098  18
   0   6 -11 23.0330 64.9738  12
   0   6 -11 58.3668 139.894  18
   0  -6  11-16.0100 119.204  17
   6   0 -11-75.8888 183.861  11
  -6   0  11-56.1801 133.846   5
   6   0  11 39.8402 55.8601   8
  -6   0  11 50.2398 54.4852  17
  -6   0 -11-316.347 419.504  19
   0   6 -11-15.6688 109.401  13
   6   0  11-72.3774 116.552  16
  -6   0  11 31.7581 82.1063  16
   6   0 -11 42.1049 105.676   1
  -6   0  11-6.06983 77.7312   2
   6   0  11-240.700 480.426  14
   6   0  11-82.1320 181.059   6
   6   0 -12 376.203 238.529   1
   6   0 -12 715.487 254.693  14
   0   6 -12 1917.72 546.753  13
   0   6 -12 2189.83 477.306  12
  -6   0  12 1703.52 430.810   5
  -6   0  12 1910.25 543.153   2
   6   0 -12 411.815 230.695  18
   0   6 -12 2457.42 530.940  18
   0   6 -12 2442.57 309.442   4
   6   0  12 1224.91 495.442   8
  -6   0  12 2068.92 634.637  17
   0  -6  12 1735.18 529.208  17
   0   6 -12 2703.39 631.203   3
   6   0 -12 194.748 130.693  11
   6   0  12 1798.31 588.246  16
   0  -6  12 1075.45 433.280  16
   6   0  12 1427.36 545.615   6
  -6   0  12 944.564 360.686  16
   0  -6  12 1846.15 509.493   6
   6   0 -13-93.6054 285.828  11
   0  -6  13 8.81935 20.5665  14
   6   0 -13 14.5241 23.5439  14
   0  -6  13 84.6899 141.566   6
   0   6 -13-14.7142 93.1924   3
   0   6 -13 21.1229 58.8265  13
   0   6 -13 72.8511 114.676  12
   6   0 -13-24.1031 58.2751   1
  -6   0  13 28.0396 142.717  16
  -6   0  13-131.204 185.290   5
   0   6 -13 19.0082 93.4529  18
   6   0  13-7.63242 173.802   8
   6   0 -13-126.665 186.785  18
   0  -6  13 52.6684 76.2469  17
   0   6 -13 0.49134 27.9850   4
  -6   0  13-156.975 200.684  17
   0  -6  13-63.7296 132.151  16
   6   0  13 61.8727 214.214  16
   6   0  13-223.974 382.781   6
  -6   0  13-88.8195 122.229   2
   6   0 -14 178.379 140.389  14
   0  -6  14 474.704 293.711   6
   6   0 -14-139.687 285.715  18
   0   6 -14 643.740 317.332   3
   0   6 -14 713.432 356.165  13
   0   6 -14 510.987 252.350  12
  -6   0  14 570.541 322.366  17
   6   0  14 194.096 93.3439   8
   0  -6  14 637.888 349.120  17
   0   6 -14 977.392 329.269  18
   6   0  14 464.108 352.766  16
   0  -6  14 354.284 273.427  16
   6   0 -14 53.8353 121.470   1
   0  -6  14 556.421 155.187  14
   6   0  14 103.688 454.150   6
  -6   0  14 550.420 335.031   2
   0  -6  15 4.73067 124.492   6
   0   6 -15 3.18658 119.713  13
   0   6 -15-63.4970 51.1617   3
   0   6 -15 25.8863 102.132  12
   0   6 -15 42.6747 160.270  11
   0  -6  15-60.5174 160.222  17
   0  -6  15 2.54369 45.0999  16
  -6   0  15-386.597 447.897  17
   6   0  15-218.542 422.844   8
   6   0  15-50.0698 50.3424  16
  -6   0  15 65.9335 190.420   2
   0   6 -15 87.8107 130.438  18
   0  -6  15-28.1990 52.5112  14
   0  -6  16 132.632 200.211  16
   0   6 -16 237.312 265.990  13
   0   6 -16 76.0046 95.9450   3
   0  -6  16 537.263 331.400  17
   0   6 -16 179.402 203.803  12
   6   0  16-248.308 373.162   8
   0   6 -16 414.012 321.957  11
   0   6 -16 37.2383 61.7616  18
   0   6 -16 680.288 660.435   7
   0   6 -16 303.085 428.479  20
   0  -6  16 335.788 235.374   6
   0  -6  16-13.8275 179.253   2
   6   0  16 329.310 390.338  16
   0   6 -16 475.745 595.225  15
   0  -6  17-133.660 227.653   6
   0   6 -17 67.2619 198.229  13
   0   6 -17 9.80996 137.717   3
   0   6 -17 61.6408 93.4066  12
   0   6 -17-20.1850 64.3670  11
   0   6 -17 447.005 485.470  20
   0  -6  17-72.6902 125.576   2
   0   6 -17 163.889 192.950  18
   6   0  17-176.197 394.263   8
   0  -6  17-8.11051 83.8521  16
   6   0  17 165.691 375.218  16
   0   6 -17 176.412 341.109   7
   0   6 -17 52.2131 101.423  15
   0  -6  17-12.2018 151.894  17
   0  -6  18 182.261 231.101   6
   0   6 -18 31.4159 316.049  15
   0   6 -18 139.256 190.656  13
   0   6 -18 346.262 269.321   3
   0   6 -18 313.470 185.858  12
   0   6 -18 328.476 267.243  11
   0  -6  18 166.686 315.876   2
   0   6 -18 483.070 408.070  20
   0   6 -18 214.613 170.086  18
   0  -6  18 521.213 288.253  17
   0   6 -18 1551.76 842.233  10
   0  -6  18 335.838 316.557  16
   0   6 -18 347.342 161.804   7
   0   6 -19-47.0749 104.493  13
   0   6 -19 157.160 256.581   3
   0   6 -19 215.221 170.459  12
   0  -6  19 6.21621 240.069   2
   0   6 -19 315.898 278.869  11
   0   6 -19 325.427 350.853  20
   0   6 -19 1441.02 813.167   9
   0   6 -19 550.224 486.076  10
   0   6 -19 86.8459 211.378  18
   0  -6  19 131.431 116.654  17
   0  -6  19 20.4575 101.086  16
   0   6 -19-1017.89 646.054   7
   0  -6  19 169.173 235.700   6
   6   1   0 4005.19 755.955   1
   6  -1   0 3169.58 572.041   1
  -6   1   0 2037.71 396.215  12
  -6  -1   0 2085.75 538.633   5
  -6   1   0 3606.32 599.498   5
   6   1   0 3807.59 626.506   8
  -6   1   0 3663.66 431.114   2
   6   1   0 3624.76 556.348  18
  -6  -1   0 1752.19 470.637  19
   6  -1   0 3532.47 598.638  14
   6  -1   0 3491.47 583.221   8
   6  -1   0 1874.08 335.698  18
  -6  -1   0 2133.50 505.879  17
  -6   1   0 1220.68 328.564  17
  -6   1   0 3655.16 592.598   4
  -6  -1   0 1414.83 439.060   4
   6   1   0 1842.98 349.676   6
  -6   1   0 3668.43 623.996  19
   6  -1   0 4303.76 586.362   6
   6   1   0 3240.62 655.734  14
  -6   1  -1 197.910 108.960   3
   6  -1   1 671.971 265.842  14
   6  -1  -1 693.667 261.784  14
   6  -1  -1 270.922 129.304  18
   6   1  -1 509.252 151.211  13
   6  -1  -1 669.432 265.585   1
   6  -1   1 872.180 265.548   6
   6   1  -1 691.554 310.463   1
  -6   1  -1 557.179 211.219  12
   6   1   1 633.230 281.280   8
  -6   1   1 189.035 114.615  12
  -6   1   1 747.328 274.735   5
  -6  -1  -1 191.578 111.616   5
  -6   1  -1 789.694 190.078   2
  -6  -1   1 474.287 248.750   5
   6  -1   1-45.2653 117.574  11
   6  -1   1 447.867 156.890  18
  -6   1  -1 688.303 272.178   5
  -6   1  -1 597.098 256.629  19
  -6  -1  -1 278.900 216.858  19
   6   1   1 625.808 236.417  18
  -6  -1   1 493.907 251.326   2
  -6  -1  -1 214.424 125.611   4
  -6  -1  -1 230.104 160.216  17
  -6  -1   1 271.692 148.833  17
   6   1  -1 756.041 268.936   8
  -6   1   1 680.157 272.869  19
  -6   1  -1 196.760 96.7225  17
   6  -1  -1-4.35174 113.063  11
  -6   1   1 323.190 155.272  17
   6   1   1 448.046 247.684  14
   6  -1  -1 547.555 221.882   8
  -6   1  -1 577.777 240.351   4
  -6  -1   1 428.525 226.735   4
   6   1  -1 755.862 265.571  18
  -6   1   1 621.066 230.729   4
  -6  -1   1 39.5596 152.290   7
   6   1   1 801.887 357.386   1
   6  -1   1 639.258 243.775   1
   6  -1  -1 779.333 245.742   6
  -6   1   1 676.146 203.504   2
   6  -1   1 637.875 254.633   8
  -6  -1   1 512.769 250.994  19
   6   1   1 276.957 127.888   6
   6   1  -1 548.896 251.977  14
   6   1  -1 425.137 156.048   6
   6   1  -2 439.958 147.399   6
   6  -1   2 766.677 292.363  14
   6  -1  -2 677.342 261.919  14
   6   1  -2 825.197 195.913  13
   6  -1   2 862.524 269.819   6
  -6   1  -2 352.962 159.212   3
  -6   1  -2 556.360 195.195  12
  -6  -1   2 420.874 125.708  12
   6   1  -2 1612.31 359.712  11
  -6   1  -2 759.947 182.499   2
  -6  -1   2 278.265 122.185   7
   6   1  -2 885.071 335.684   1
  -6   1   2 547.863 200.468   2
  -6   1  -2 503.521 250.502  19
   6  -1  -2 310.724 150.514  18
   6  -1  -2 9.78088 121.292  11
  -6   1  -2 645.859 265.344   5
  -6  -1  -2 193.701 187.675  19
  -6  -1   2 579.860 281.133  17
  -6   1  -2 290.033 140.020  17
  -6   1   2 788.120 276.681  19
  -6   1   2 634.455 252.994   4
  -6  -1   2 625.053 249.056   2
   6   1  -2 817.522 277.784   8
  -6  -1  -2-8.38355 151.014   4
  -6   1   2 696.283 265.907   5
   6  -1   2 737.506 282.562   1
   6   1   2 465.513 252.924   8
   6   1  -2 632.812 242.299  18
  -6  -1   2 478.974 242.462   4
   6   1   2 559.108 219.230  18
   6  -1   2 674.954 270.939   8
  -6   1   2 355.376 189.832  17
  -6   1  -2 623.636 263.720   4
   6   1   2 651.154 308.982   1
   6  -1  -2 619.593 245.214   8
   6  -1   2 493.561 153.224  18
   6  -1  -2 629.051 244.445   1
   6   1   2 231.938 101.925  16
  -6  -1   2 246.651 96.0928  15
   6  -1  -2 633.662 208.204   6
  -6  -1  -2 210.137 166.688  17
  -6  -1   2 387.197 245.410   5
   6   1   2 292.901 160.118   6
   6   1   2 523.164 280.957  14
  -6  -1   2 446.983 229.165  19
   6   1  -2 666.522 281.990  14
   6   1  -2 661.257 157.914  10
   6  -1   3-12.6121 84.2180  14
  -6   1  -3 43.9550 94.6967  20
   6  -1  -3 25.2775 76.3306  14
   6   1  -3 491.182 227.250   9
   6   1  -3-6.60167 20.7115   6
  -6   1  -3 33.8444 65.4603   3
   6  -1  -3 35.3012 50.7885   1
  -6   1  -3 77.0381 144.383  12
  -6   1   3-36.6164 68.8841   2
   6  -1  -3-54.3711 107.344   6
   6   1   3 95.1775 132.933   8
  -6  -1   3-2.38742 38.1386  12
  -6   1   3 46.9772 60.8600   5
   6   1  -3 121.270 156.221  11
   6  -1   3 38.6542 35.2937  18
  -6  -1   3 88.3531 219.753   5
   6   1  -3-19.7864 98.0659   1
   6  -1   3 88.8343 153.289   1
  -6   1  -3 4.78366 23.6829  10
  -6  -1   3-33.1183 72.1465  19
  -6   1  -3 94.8826 100.511  19
  -6   1   3-12.2443 96.7673  19
   6   1  -3 103.495 141.039  18
   6   1   3-41.2173 177.014  18
  -6  -1  -3-8.88361 115.707  17
   6  -1  -3-14.8981 63.2958  18
   6  -1   3 2.02792 50.1859   8
   6   1   3 62.0541 188.995   1
  -6   1  -3 9.77607 38.4444   5
  -6  -1   3 81.5359 71.3572  17
  -6  -1   3 29.2783 123.003   4
   6   1  -3 48.4065 100.348   8
  -6   1  -3-0.24676 38.8131  17
  -6   1  -3 64.6366 114.571   4
   6  -1  -3 60.6986 90.3983   8
  -6   1   3 8.08175 51.5947  17
   6  -1   3 0.62811 52.6797  16
  -6  -1  -3 60.8545 128.986  19
  -6  -1   3 47.0765 155.690   2
  -6  -1   3 92.0599 104.160   7
  -6   1   3 33.9161 30.6947   4
   6   1   3-63.3040 109.619  16
   6   1  -3 12.9896 50.6731  10
  -6  -1   3 19.7627 45.1608  15
   6   1   3-23.6402 49.8238   6
   6   1   3 84.0693 148.510  14
   6  -1   3 51.8117 94.2856   6
   6   1  -3 13.1686 119.215  14
   6   1  -4 131.731 88.3127  10
   6  -1  -4 175.554 123.813  14
  -6   1  -4 223.156 162.149   5
   6   1  -4 199.272 78.4517   6
   6  -1   4 393.895 208.462   6
  -6   1  -4 291.478 170.496  19
  -6   1  -4 88.0618 54.3952  10
   6  -1   4 428.726 234.172   1
   6  -1  -4 160.576 156.556   1
   6   1  -4 151.927 109.675   9
  -6   1  -4 242.191 171.612   3
  -6  -1   4 282.704 98.7423  16
   6   1  -4 338.535 153.989  11
  -6   1  -4 176.862 83.6308  20
  -6   1   4 181.360 131.313   5
  -6  -1   4 315.310 201.747   5
  -6  -1  -4 34.8438 50.9411  19
  -6   1  -4 79.8788 37.0621  17
  -6  -1   4 365.396 205.987   2
  -6   1   4 173.407 102.107  19
   6  -1   4 262.229 94.2926  18
   6   1  -4 277.694 193.590   1
   6  -1  -4 54.9865 59.3600  18
   6   1   4 188.809 151.781   8
  -6   1  -4 229.113 204.660   4
   6  -1   4 378.637 238.691   8
  -6  -1   4 201.252 146.813   4
   6   1  -4 298.366 163.358   8
  -6   1   4 166.327 143.646  17
  -6  -1   4 229.534 179.040  17
   6  -1   4 295.726 157.505  16
   6  -1  -4 121.491 83.2608   8
   6   1  -4 288.577 167.458  18
   6   1   4-6.51495 104.935  16
  -6   1   4 199.358 89.9205   4
  -6  -1   4 274.028 182.220  19
   6   1   4 166.735 156.225   6
   6   1   4 206.959 192.485  14
  -6   1   4 276.389 160.758   2
   6   1  -4 220.114 175.656  14
   6  -1   4 386.778 252.333  14
   6   1   4 139.645 151.474   1
   6  -1  -5 381.963 219.193   1
   6  -1  -5 577.153 229.789  14
   6  -1   5 770.213 142.953  18
  -6   1   5 488.606 203.789   2
   6   1   5 210.193 187.457   1
  -6   1  -5 437.623 243.710  19
  -6   1  -5 485.185 261.006   5
   6   1  -5 942.418 298.297  11
  -6   1  -5 416.448 181.005  20
  -6  -1   5 586.225 284.156   5
   6   1  -5 671.928 236.609   9
  -6  -1   5 786.263 320.231   2
   6   1  -5 189.954 108.114  10
  -6  -1   5 712.791 262.091  19
  -6   1  -5 130.284 65.1939  13
   6  -1   5 833.418 319.835   1
  -6   1  -5 1152.26 512.674   7
  -6   1   5 641.522 246.716   5
   6   1  -5 738.321 281.468  18
   6   1  -5 660.084 231.171   8
   6  -1  -5 105.666 87.3903  18
   6   1   5 410.210 231.474   8
   6  -1   5 910.463 348.571   8
  -6   1  -5 402.252 251.924   4
  -6   1  -5 68.2830 67.5495  10
  -6  -1   5 713.600 324.299  17
  -6   1  -5 278.413 108.058  17
   6   1  -5 772.191 314.049   1
  -6   1   5 385.964 217.721  17
  -6  -1   5 713.555 265.087   4
  -6  -1   5 722.379 175.041  16
  -6   1   5 656.591 231.733  19
   6  -1   5 877.595 288.205  16
  -6  -1  -5-115.417 229.246  19
   6  -1   5 986.562 369.908   6
  -6   1  -5 705.215 384.727  15
   6   1   5 59.8688 112.026  16
   6  -1   5 1011.77 371.643  14
   6   1   5 247.037 176.313   6
   6   1   5 582.122 332.896  14
   6   1  -5 592.407 270.355  14
   6   1  -6 321.805 190.277  14
  -6   1   6 161.934 93.8832   2
   6  -1   6 396.205 207.362   6
   6  -1  -6 236.169 134.902  14
   6  -1   6 457.287 256.471   8
   6   1   6 74.0768 120.706   8
  -6   1  -6 191.500 172.331  20
   6   1  -6 426.670 186.585  11
  -6   1  -6 0.96637 121.955  10
  -6   1   6 152.645 13.3478  19
   6  -1   6 375.400 91.3993  18
   6  -1  -6 253.550 171.283   1
  -6   1   6 178.472 86.6044   5
   6   1  -6 100.047 51.3564   9
  -6  -1   6 542.594 262.411   2
  -6   1  -6 230.424 155.299  19
   6  -1  -6 57.9467 26.4764  18
  -6   1  -6 182.571 117.116   4
   6   1  -6 302.964 177.533  18
  -6  -1   6 229.075 177.446  17
   6   1  -6 261.239 137.672   8
  -6   1   6 202.716 151.953  17
   6  -1   6 417.876 253.724   1
  -6  -1   6 353.310 193.491   4
  -6   1  -6 298.492 235.698  15
   6  -1   6 386.531 214.586  16
  -6  -1   6 270.993 119.217  16
  -6   1  -6 370.966 277.194   7
   6   1   6-6.91987 156.839  16
   6   1  -6 351.706 211.044   1
  -6  -1   6 365.876 171.751  19
   6   1   6 337.410 269.344  14
   6   1   6 19.3569 155.669   6
  -6  -1   6 455.425 233.554   5
   6   1  -6-36.8035 112.550  10
   6  -1   6 503.274 265.992  14
  -6   1   7 665.306 260.943   2
   6  -1   7 1379.33 433.113   6
   6   1  -7 944.625 340.650   1
   6  -1  -7 576.865 209.533  14
   1   6  -7 874.857 413.569  13
   1  -6   7 117.588 116.854   6
  -6  -1   7 1078.33 357.504   5
   6  -1  -7 63.3792 66.5047  18
   6  -1   7 1363.75 457.559  14
  -6  -1   7 1139.74 375.504   2
   6   1  -7 983.095 353.104  11
  -6  -1   7 1196.38 323.784  19
  -6   1  -7 284.253 172.931  20
   6   1  -7-141.972 214.946  10
  -6   1  -7 369.640 224.977  19
  -6  -1   7 1034.50 287.716   4
  -6   1   7 759.039 269.032   5
   6   1  -7 926.682 320.772  18
   6  -1   7 786.971 341.614   1
   6   1   7 426.466 106.646   8
  -6   1  -7 283.826 210.966   4
   6   1  -7 430.341 187.665   9
  -6  -1   7 781.269 338.471  17
   6  -1   7 1283.30 416.031   8
  -1   6  -7 340.191 171.771  13
  -6   1   7 595.302 284.169  17
   6  -1   7 1328.95 384.070  16
  -6  -1   7 893.727 247.838  16
   6   1  -7 392.826 158.188   8
   6  -1  -7 574.391 253.540   1
  -6   1  -7 846.002 417.463   7
   6   1   7 228.305 90.6541  16
  -1   6  -7 1181.85 400.643   3
  -6   1  -7 709.107 358.402  15
  -6   1  -7-10.8266 197.540  10
   6   1  -7 860.732 283.792  14
   6   1   7 331.030 117.440   6
   6   1   7 955.749 450.634  14
   6  -1   8 881.918 396.261   6
   6   1  -8 572.477 243.959  14
  -6   1   8 381.457 190.067   2
   6  -1  -8 321.337 173.493  14
  -1   6  -8 496.480 293.160  13
   1   6  -8 600.265 294.213  13
   6  -1  -8 206.296 142.966   1
  -1  -6   8 40.3919 58.2583   6
   6   1  -8 633.820 294.033   1
   6   1  -8 511.611 261.922  11
   1  -6   8 319.901 220.873   6
  -1   6  -8 720.132 267.070  12
  -6   1  -8 79.4974 122.274  20
   6  -1   8 171.630 162.217   1
  -6   1  -8 90.7737 95.6646  19
  -6  -1   8 602.864 281.009   5
   6  -1   8 706.417 296.461   8
   6   1  -8 283.464 225.610   9
  -6  -1   8 755.583 240.239   4
   6   1  -8-484.342 352.398  10
   6   1  -8 527.308 244.363  18
  -6   1  -8-67.9392 252.845   4
   6   1   8 204.245 230.194   8
   6  -1  -8-105.697 178.841  18
  -1  -6   8-4.03911 260.605  17
  -6  -1   8 762.654 385.730  17
  -6   1   8 431.976 214.988  17
  -6  -1   8 860.744 344.316   2
   6  -1   8 744.271 295.868  16
  -6  -1   8 597.768 227.613  16
  -6   1  -8 181.838 92.0463   7
   6   1   8 193.574 22.4136  16
  -6  -1   8 694.219 234.001  19
  -6   1  -8 120.669 210.811  15
   1   6  -8 781.967 320.215   3
  -1   6  -8 940.775 353.432   3
   6   1   8 157.550 233.870   6
   6   1   8 199.219 87.6039  14
   6  -1   8 975.807 407.349  14
   6   1  -9 457.168 212.587  14
   6   1   9-91.3417 454.791   8
  -6   1   9 420.396 187.565   2
  -1   6  -9 963.374 351.556   3
   6  -1  -9 310.264 177.958  14
  -1   6  -9 758.605 372.250  13
   1   6  -9 851.742 406.567  13
  -1   6  -9 823.038 298.543  12
   1  -6   9 332.900 199.467   6
   6   1  -9 620.402 282.071   1
   6  -1   9 575.072 131.420   2
   6   1  -9 39.4569 82.5051   9
   1   6  -9 524.909 232.160  18
  -6   1  -9 31.2090 75.3115  19
  -6  -1   9 819.488 305.054   5
  -1  -6   9 135.591 166.437   6
  -6  -1   9 314.195 135.620  19
   6   1  -9 458.737 216.603  18
   6  -1  -9-125.092 202.368  18
   1  -6   9-117.503 290.051  17
  -1  -6   9 139.687 143.242  17
  -6   1  -9-64.8999 403.674   7
   6  -1   9 627.419 285.895   8
   6  -1  -9 223.026 195.675   1
  -6  -1   9 762.904 343.415  17
  -6   1  -9-38.1961 244.075  20
  -6  -1   9 711.742 333.300   2
   6   1  -9 427.091 208.459  11
  -6   1   9 319.713 129.115  17
  -6  -1   9 620.898 228.879   4
   6  -1   9 776.531 347.412  16
  -6  -1   9 437.841 196.244  16
   6   1   9 259.117 158.844  16
  -6   1  -9-125.339 397.512  15
   1   6  -9 907.350 347.929   3
   6  -1   9 834.558 385.671  14
   6  -1   9 861.954 407.174   6
   6   1 -10 828.736 339.052  11
  -1   6 -10 1226.63 472.947  13
   1   6 -10 1562.03 510.351  13
   1  -6  10 1324.33 423.274   6
  -1  -6  10 615.927 285.853   6
   1   6 -10 1366.00 352.599  12
  -6  -1  10 1207.97 368.411   5
   6  -1 -10-103.442 227.517  18
   1   6 -10 1380.11 421.192  18
  -6  -1  10 1564.23 484.791   2
   6  -1  10 1235.41 212.597   2
  -1  -6  10 422.865 282.046  17
  -6   1 -10 107.447 116.791  19
   6   1 -10 1125.69 394.906   1
   6   1 -10 1000.44 366.079  18
  -1   6 -10 1336.56 367.751  18
   6  -1  10 1344.64 478.441   8
   6   1 -10-97.8710 282.486   9
  -6  -1  10 1487.49 531.862  17
  -6  -1  10 1227.78 303.533   4
  -6   1  10 661.138 267.045  17
  -6  -1  10 1082.06 348.412  16
   6  -1  10 1655.74 531.601  16
   1  -6  10 522.974 336.574  17
   6  -1  10 1751.97 567.930   6
   1   6 -10 1640.87 468.162   3
  -1   6 -10 1976.03 529.236   3
   6   1 -10 1022.85 304.920  14
   6  -1  10 1370.77 536.599  14
   6   1 -11 140.381 103.848  14
   1   6 -11 378.337 233.472   3
  -1   6 -11 368.579 216.042   3
   1   6 -11 267.651 206.701  13
  -1   6 -11 146.898 130.333  12
   1   6 -11 347.813 169.711  12
  -1  -6  11 155.523 147.044   6
   1  -6  11-212.706 405.610  16
  -1   6 -11 408.125 200.799  18
  -6   1 -11 130.415 190.945  19
   1  -6  11 0.32525 123.847   6
  -6  -1  11 302.454 199.611   5
   6  -1  11 168.070 169.689   8
   1   6 -11 271.032 209.658  18
   6  -1  11 217.576 75.0629   2
   6   1 -11 106.889 116.049  11
   6   1 -11 258.628 193.755   1
   6   1 -11 153.493 120.341  18
   6   1 -11-754.352 448.240   9
   1  -6  11 0.05064 97.5812  17
  -1  -6  11-38.6489 45.6755  17
  -6  -1  11 135.272 155.947  17
  -1  -6  11-359.141 406.137  16
  -6  -1  11 196.753 161.399   2
   6  -1  11 361.931 273.661  16
  -1   6 -11 274.403 75.9502   4
  -6  -1  11 110.732 106.181  16
  -6  -1  11 181.868 85.6575   4
  -1   6 -11 101.550 74.7257  13
   6  -1  11 171.442 221.128  14
   6  -1  11 199.243 90.4278   6
   6   1 -12 306.856 172.414  14
   1   6 -12 930.317 363.789   3
  -1   6 -12 808.816 346.686   3
   1  -6  12 813.031 315.089   6
  -1   6 -12 586.653 317.317  13
   1   6 -12 523.856 277.684  13
  -1  -6  12 356.009 210.014   6
  -6   1 -12-91.0471 191.042  19
   1   6 -12 911.584 302.354  12
  -1   6 -12 787.282 307.470  12
  -6  -1  12 708.340 297.268   5
   6   1 -12 344.193 238.058  11
  -1  -6  12 595.858 317.030  17
  -1   6 -12 1030.31 224.930   4
  -1   6 -12 823.565 292.899  18
   6   1 -12-664.262 518.258   9
   1   6 -12 895.352 332.835  18
   6  -1  12 565.302 311.374   8
   1  -6  12 445.215 145.459  14
   6   1 -12 406.754 235.927   1
  -6  -1  12 731.750 403.764  17
   6   1 -12 319.196 225.233  18
  -1  -6  12 433.054 273.945  16
   1  -6  12 310.099 226.399  16
   1  -6  12 548.998 297.056  17
  -6  -1  12 635.003 315.873   2
   6  -1  12 514.769 287.107  16
  -6  -1  12 647.813 299.865  16
  -6  -1  12 437.603 157.365   4
   6  -1  12 616.853 335.377  14
   6  -1  12 769.524 360.919   6
   6  -1  12 640.535 174.331   2
  -1  -6  13 722.113 356.759   6
   1  -6  13 1229.63 450.704   6
  -6  -1  13 1197.60 463.337   2
  -1   6 -13 1203.32 461.468  13
   1   6 -13 1165.27 457.971  13
  -1   6 -13 1478.47 408.059  12
   1   6 -13 1271.03 362.814  12
  -6  -1  13 1208.44 383.397   5
   6  -1  13 1296.05 277.133   2
   6   1 -13 338.134 256.363  11
  -6   1 -13 14.0302 123.611  19
   6   1 -13 705.954 324.015  18
   1  -6  13 1351.38 466.659  17
  -1   6 -13 1544.09 418.053  18
  -1   6 -13 1197.25 282.688   4
   1   6 -13 1596.84 495.999   3
   1   6 -13 1364.11 454.028  18
   6  -1  13 1188.15 454.778   8
  -6  -1  13 1362.54 554.810  17
  -1  -6  13 1245.28 487.618  17
  -1  -6  13 1015.68 471.619  16
   1  -6  13 823.412 433.728  16
   6   1 -13 589.577 227.626  14
   6   1 -13 434.971 253.101   1
   6  -1  13 1283.88 509.709  16
  -6  -1  13 1034.99 373.507  16
   1  -6  13 1298.10 252.120  14
  -1   6 -13 1386.98 458.165   3
   6  -1  13 706.501 303.622  14
   6  -1  13 1449.56 574.661   6
   1  -6  14 402.335 355.519  16
   1  -6  14 617.894 182.781  14
   6   1 -14 213.856 147.277  14
  -1  -6  14 387.981 286.088   6
  -1   6 -14 631.530 260.387  18
   1   6 -14 536.905 280.679   3
  -1   6 -14 232.278 213.021  13
  -1   6 -14 483.997 291.637   3
   1   6 -14 557.034 348.577  13
  -1   6 -14 549.021 251.722  12
   1   6 -14 563.467 262.468  12
   1  -6  14 483.270 279.061  17
  -1  -6  14 457.572 338.183  17
   6   1 -14 116.321 147.833  11
   6  -1  14 412.102 263.823   8
  -6  -1  14 543.764 239.018   5
   1  -6  14 424.412 249.035   6
   6   1 -14 185.959 169.344  18
  -1   6 -14 118.250 68.3778   4
  -6  -1  14 280.860 279.022  17
  -6  -1  14 288.815 192.900   2
   6  -1  14 569.794 374.180  16
  -6  -1  14 284.470 231.367  16
   6   1 -14 194.906 199.855   1
   1   6 -14 504.676 267.168  18
  -1  -6  14 351.481 274.963  16
   6  -1  14-107.190 514.109  14
   6  -1  14 455.914 310.652   6
  -6   1 -14 72.5586 204.210  19
   6  -1  14 484.630 177.951   2
   1  -6  15 382.042 146.604  14
   6   1 -15 181.755 130.237  14
  -1  -6  15 379.238 310.118   6
   1  -6  15 607.011 339.784   6
  -6  -1  15 436.490 229.714   5
  -1   6 -15 356.014 281.856  13
   1   6 -15 422.159 243.616  13
  -1   6 -15 399.937 220.179  12
   1   6 -15 342.041 186.227  12
   1   6 -15 666.754 360.837  11
  -1   6 -15 600.677 318.351  11
   6   1 -15 199.198 210.377  11
  -1  -6  15 157.949 154.304   2
  -6   1 -15-17.9423 140.438  19
   1   6 -15 467.880 251.027  18
  -1   6 -15 552.979 246.037  18
   6   1 -15 146.836 148.567  18
   6  -1  15 321.375 283.613   8
   1  -6  15 683.414 333.385  17
  -1   6 -15 380.072 227.390   3
  -1  -6  15 696.663 389.472  17
  -6  -1  15 303.253 179.893  17
  -1  -6  15 132.126 93.7059  16
   1  -6  15 193.406 243.481  16
   6  -1  15 286.360 228.446  16
  -6  -1  15 417.391 241.660  16
  -6  -1  15 278.079 237.695   2
   1   6 -15 743.403 548.358  15
   6  -1  15 427.762 181.544   2
   1   6 -15 286.046 206.239   3
   6  -1  15 669.206 406.915   6
   1  -6  15-26.7037 181.341   8
   6   1 -15 126.187 175.229   1
   6   1 -16 217.346 122.326  14
  -1  -6  16 538.725 370.910   6
   6   1 -16 308.145 257.485   1
   1  -6  16 960.606 457.376   6
   1  -6  16 195.178 41.5828   8
   1  -6  16 741.372 356.485  17
  -1   6 -16 492.192 323.411  13
   1   6 -16 727.953 394.644  13
   1   6 -16 702.975 343.777   3
  -1   6 -16 541.740 308.924   3
  -1   6 -16 603.125 298.586  12
   1   6 -16 702.065 304.270  12
   1   6 -16 1208.07 463.341  11
  -1   6 -16 1176.66 420.634  11
  -1  -6  16 553.057 404.442   2
   6  -1  16 646.223 457.621  16
  -6  -1  16 616.976 281.290   5
  -6   1 -16 55.7638 94.1652  19
   1   6 -16 694.674 341.986  18
  -1   6 -16 596.704 264.904  18
   6   1 -16 136.620 181.158  18
   6  -1  16 579.726 371.239   8
  -1  -6  16 942.994 436.563  17
  -6  -1  16 794.627 487.599  17
  -1  -6  16 506.108 331.303  16
   1  -6  16 709.388 437.923  16
   6   1 -16 46.5603 68.2526  11
  -6  -1  16 538.458 326.663  16
  -6  -1  16 711.565 385.798   2
   6  -1  16 775.692 275.638   2
  -1   6 -16 1323.67 720.842  20
   1   6 -16 915.573 682.649   7
  -1   6 -16 1250.82 780.806   7
   1   6 -16 627.327 443.172  15
  -1   6 -16 764.210 618.969  15
   6  -1  16 317.833 227.566   6
   1   6 -16 675.768 509.499  20
   1  -6  16 364.296 164.047  14
   1  -6  17 116.782 234.986   6
   6   1 -17 97.1433 100.696  14
  -1  -6  17-159.032 198.725   6
  -1   6 -17 508.934 483.470  20
  -1   6 -17 281.462 425.865  15
  -1   6 -17-160.363 96.9821  13
   1   6 -17-51.7658 210.404  13
   1   6 -17 89.8479 141.387   3
  -1   6 -17 2.20415 95.3353   3
  -1   6 -17 6.65711 53.8955  12
   1   6 -17-44.0886 99.2700  12
   6   1 -17-74.9408 187.553  18
   1   6 -17 342.562 283.269  11
  -1   6 -17 16.1572 157.661  11
   1   6 -17 129.536 393.360  20
   1  -6  17 79.6506 216.828   2
   6   1 -17-14.7256 138.546  11
  -1  -6  17 105.261 56.6985  17
   6   1 -17 19.2323 70.4040   1
  -6   1 -17 147.058 204.928  19
  -1  -6  17 169.900 280.824   2
  -6  -1  17 127.287 95.3737   5
   6  -1  17 75.6976 29.0882   8
   6  -1  17 50.3901 150.253  16
   1   6 -17 32.1134 126.142  18
  -1   6 -17 81.0319 171.201  18
   1  -6  17 44.5018 126.262  17
  -6  -1  17 125.927 192.593  17
  -1  -6  17 3.15753 111.730  16
   1  -6  17 128.881 218.835  16
   1  -6  17-50.8393 150.826   8
  -6  -1  17-45.9734 27.7256  16
   1   6 -17 59.0005 134.346   7
  -6  -1  17 175.215 256.477   2
  -1   6 -17 344.988 456.020   7
   1   6 -17 90.2682 241.188  15
   6  -1  17-329.891 532.230   6
   6  -1  17 4.11842 58.3921   2
   1  -6  18 537.909 385.289   6
   6   1 -18 212.032 237.454   1
  -1   6 -18 576.112 347.624  13
   1   6 -18 336.416 282.428  13
   1   6 -18 567.730 305.147   3
  -1   6 -18 476.986 294.846   3
  -1   6 -18 814.534 414.680  12
   1   6 -18 634.337 325.591  12
   6   1 -18-225.634 370.782  18
   1  -6  18 467.111 215.790   8
   1  -6  18 631.332 426.536   2
   1   6 -18 1171.36 460.308  11
  -1   6 -18 1289.70 449.344  11
  -1   6 -18 1464.91 728.344  20
   1   6 -18 373.782 593.940  20
  -6   1 -18-141.834 38.0382  19
   1   6 -18 1421.93 857.491  10
   1  -6  18 966.942 419.290  17
  -1  -6  18 739.014 498.488   2
   6  -1  18 337.668 313.195  16
   1   6 -18 724.365 341.089  18
  -1   6 -18 686.023 318.634  18
  -6  -1  18 662.400 282.099   5
   6  -1  18 494.914 344.393   8
   6   1 -18-323.149 472.051  11
  -1  -6  18 1319.85 627.253  17
  -6  -1  18 299.462 219.993  17
  -1  -6  18 812.776 484.067  16
   1  -6  18 696.881 429.434  16
   1   6 -18 233.239 157.374   7
  -6  -1  18 574.134 361.825  16
  -1   6 -18 887.889 621.292   7
  -6  -1  18 656.805 397.672   2
   1   6 -18 218.173 139.153  15
  -1   6 -18 653.826 523.696  15
   6  -1  18-163.021 657.000   6
   6  -1  18 711.156 295.529   2
  -1   6 -18 1614.59 829.859  10
  -1  -6  18 526.942 378.317   6
   1  -6  19 358.133 347.015   6
   6   1 -19 290.597 283.232   1
  -1   6 -19 101.697 217.440  13
   1   6 -19 389.651 351.763  13
   1   6 -19 212.841 185.548   3
   1   6 -19 352.690 212.813  18
  -1   6 -19 542.027 321.300  12
  -1   6 -19 354.790 273.655   3
   1   6 -19 323.510 165.826  12
  -1  -6  19 614.583 315.509  17
  -6   1 -19-355.195 339.181  19
   1   6 -19 586.530 315.973  11
  -1   6 -19 1132.57 475.853  11
   1  -6  19 300.849 312.431   2
  -1   6 -19 187.422 300.676  20
   1   6 -19 489.584 597.640  20
   1   6 -19 565.230 418.207  10
   1   6 -19 2390.71 1008.75   9
  -1   6 -19 401.041 241.480  18
  -6  -1  19 34.4192 233.836  17
   6  -1  19 443.429 383.260   8
  -1   6 -19 1721.68 924.919   9
   1  -6  19 635.216 351.867  17
  -1  -6  19 316.735 212.588  16
   1  -6  19 374.625 347.082  16
   1   6 -19-551.128 938.922   7
  -1   6 -19 16.4670 288.732   7
   6  -1  19 402.545 424.290  16
  -6  -1  19 398.314 347.270  16
  -6  -1  19 503.528 421.187   2
  -1   6 -19-165.196 422.459  15
  -1  -6  19 431.352 376.410   2
   6  -1  19 624.159 294.074   2
  -1   6 -19 625.761 636.217  10
  -1  -6  19-30.2522 95.6255   6
   6   2   0 1380.18 490.205   1
  -6   2   0 579.574 226.560  12
   6  -2   0 976.614 321.699   8
   6  -2   0 1076.56 326.449   1
  -6   2   0 1224.40 336.611   4
  -6   2   0 1296.74 354.472   5
  -6  -2   0 117.399 49.5634  19
   6   2   0 1009.01 348.673   8
  -6  -2   0 259.447 232.864  17
  -6   2   0 1262.82 358.323  19
   6  -2   0 1266.48 339.743   6
   6  -2   0 1039.11 333.539  14
   6   2   0 687.919 326.241  14
   6   2   0 1144.99 363.282  18
  -6  -2  -1 167.470 185.499  17
   6   2   1 3319.86 598.862  18
  -6   2  -1 3554.76 573.045  12
   6  -2   1 4424.16 641.614   1
   6  -2  -1 3395.42 595.216   1
   6   2   1 4479.17 910.576   1
  -6   2  -1 4819.70 668.692   5
  -6   2   1 4119.59 616.793   5
   6   2   1 2636.01 676.950  14
  -6   2   1 5016.65 724.141  19
  -6  -2  -1 34.2900 177.711  19
  -6  -2   1 1181.69 391.143  19
  -6   2   1 4009.59 598.724   4
   6   2  -1 4617.04 734.211  18
   6  -2  -1 3246.20 583.942   8
   6   2  -1 5070.98 915.875   1
  -6   2  -1 4751.16 713.622  19
   6   2  -1 4127.01 669.323   8
  -6   2  -1 4464.91 671.624   4
   6   2  -1 2584.05 661.882  14
   6  -2   1 5681.78 732.188   6
   6  -2  -1 3143.06 532.500   6
   6  -2   1 5010.72 723.357  14
   6  -2  -1 3843.82 617.031  14
  -6  -2   1 1562.59 471.309  17
   6   2   1 2862.72 622.508   8
   6  -2   1 4380.96 662.463   8
   6  -2   2 367.727 183.867  14
   6  -2  -2 275.759 172.648  14
   6   2  -2 262.651 133.637  13
   6  -2   2 367.910 167.535   6
  -6   2  -2 250.210 150.116  12
  -6   2  -2 405.138 197.074   5
  -6   2  -2 363.359 176.141  19
   6   2   2 231.632 126.495   1
   6  -2   2 344.100 179.314   1
  -6   2   2 403.584 211.131  19
   6   2  -2 347.928 189.265  18
  -6  -2   2 157.053 154.291  19
  -6   2   2 217.242 110.163   5
   6   2   2 66.5871 139.106   8
   6   2  -2 353.643 170.509   8
   6  -2  -2 186.372 143.560   1
  -6  -2   2-10.9002 160.124   4
   6  -2   2 359.257 178.212   8
  -6   2  -2 461.460 241.965   4
   6  -2  -2 84.4293 50.0816   8
  -6  -2   2 176.628 157.771  17
  -6  -2   2 166.866 189.670   5
   6   2  -2 470.883 283.542   1
   6   2   2 211.640 171.070  14
   6   2  -2 295.869 216.959  14
  -6   2  -2 239.496 81.1614   2
  -6   2  -2 94.1645 61.0499   3
  -6   2  -3 525.855 220.238   3
   6   2  -3 1178.44 295.422  13
  -6  -2   3 309.613 152.121   4
   6  -2  -3 123.107 101.952   8
   6  -2   3 1024.57 309.315   1
  -6   2  -3 889.314 295.355  12
   6  -2  -3 520.707 230.849  14
  -6   2  -3 952.796 325.849  19
  -6   2  -3 998.707 324.817   5
  -6  -2   3 482.860 256.904   5
   6   2   3 462.577 295.406   1
  -6   2   3 719.998 236.269   5
  -6   2   3 869.953 301.617  19
  -6  -2   3 758.533 317.622   2
  -6  -2   3 678.863 283.615  17
   6   2  -3 1175.60 357.099  18
  -6   2  -3 1034.02 339.694   4
   6  -2   3 1111.30 330.222   8
   6   2   3 110.624 125.287   8
   6   2  -3 1132.57 332.148   8
  -6  -2   3 714.463 281.206  19
   6  -2  -3 382.133 213.597   1
   6  -2   3 1161.22 345.479   6
   6  -2   3 1132.03 345.926  14
   6   2   3 537.036 295.201  14
   6   2  -3 594.601 294.000  14
   6   2  -3 927.660 386.861   1
  -6  -2   4 860.863 333.848  19
   6  -2  -4 506.034 219.826  14
   6   2  -4 1365.76 319.748  13
   6  -2  -4 393.404 208.723   1
  -6  -2   4 378.148 193.992   4
   6   2  -4 1222.61 427.316   1
  -6   2  -4 620.079 237.988   3
  -6   2  -4 929.055 305.517  12
   6  -2   4 1168.66 324.313   1
   6   2   4-42.7473 392.142   1
  -6   2  -4 1059.89 318.469   5
  -6  -2   4 722.131 336.468   5
   6   2  -4 1418.73 314.815  20
  -6  -2   4 943.004 381.566  17
  -6   2   4 917.558 287.656  19
   6   2  -4 1188.09 363.994  18
  -6  -2   4 1055.75 404.541   2
   6   2  -4 1441.94 342.238   8
   6  -2   4 1224.16 369.509   8
  -6   2  -4 1056.04 330.867   4
   6  -2   4 350.031 41.8963  16
  -6   2  -4 1162.42 348.280  19
   6  -2   4 1490.41 411.966   6
   6  -2   4 1257.77 370.641  14
   6   2   4 274.072 98.3466  14
   6   2  -4 818.414 330.227  14
   6  -2  -5 414.429 193.526  14
   6   2  -5 1061.45 296.542  13
  -6   2  -5 543.467 215.322   3
   6  -2   5 1196.27 381.137   6
  -6   2  -5 734.445 292.050  12
   6   2  -5 970.409 380.601   1
   6   2  -5 1384.79 401.516  11
  -6  -2   5 540.560 300.089   5
   6   2  -5 720.674 230.674  20
  -6   2  -5 857.196 312.247  19
  -6   2  -5 884.023 321.717   5
   6  -2   5 1127.82 320.662   1
  -6  -2   5 906.177 318.119  19
   6   2  -5 1044.60 346.924  18
  -6  -2   5 518.199 252.797   4
  -6  -2   5 936.646 368.300   2
  -6  -2   5 863.424 394.700  17
   6  -2   5 1115.97 370.593   8
  -6   2  -5 960.212 338.156   4
  -6  -2   5 290.599 63.6129  16
   6  -2   5 872.020 315.069  16
   6  -2  -5 175.578 107.909   1
   6  -2   5 1205.44 371.589  14
   6   2  -5 1194.14 296.389   8
   6   2  -5 552.286 280.763  14
   2   6  -6 1244.72 434.150  13
   6  -2   6 2659.94 514.998   1
   6   2  -6 2134.39 552.237   1
  -6   2  -6 1457.03 415.597  12
  -6   2  -6 1657.69 439.366   5
  -6  -2   6 1429.02 460.866   5
  -6  -2   6 1593.80 543.464  17
   6   2  -6 2294.09 531.168  11
  -6  -2   6 2237.30 571.918   2
   6   2  -6 1186.15 340.493  20
  -6   2  -6 1615.14 450.610  19
  -6   2  -6 2045.02 407.547  10
  -6   2  -6 1958.29 484.932  20
   6   2  -6 1946.95 438.540  10
   6   2  -6 2048.22 487.002  18
  -6   2  -6 1729.65 474.212   4
   6   2  -6 2069.44 368.405   8
   6  -2   6 2243.43 497.178   8
  -6  -2   6 1589.80 319.846  16
   6  -2   6 2107.42 524.505  16
  -6  -2   6 1911.32 411.730  19
   6  -2   6 2765.18 613.663   6
   6   2  -6 1835.88 241.443   3
   6   2  -6 1131.60 350.160  14
   6  -2   6 2622.97 562.126  14
  -6   2  -6 1101.91 341.728   3
  -6  -2   6 1266.37 365.936   4
   2   6  -7 1945.14 610.009  13
   6  -2   7 2569.87 525.912   1
   6   2  -7 2779.12 643.267   1
  -6   2  -7 531.946 182.374  13
  -2   6  -7 1996.76 472.066  12
   2  -6   7 295.736 219.597   6
  -6   2  -7 1601.72 462.512   5
  -6  -2   7 2223.67 585.763   5
  -6   2  -7 1596.05 290.172   9
   6   2  -7 3474.69 723.064  11
  -6  -2   7 2872.05 661.205   2
   6   2  -7 1603.95 464.002  20
  -6   2  -7 1667.75 370.230  10
   6   2  -7 4927.23 865.190   9
  -6   2  -7 1619.07 487.072   4
   6   2  -7 2845.73 601.396  18
  -6   2  -7 2727.92 772.349  15
   6  -2   7 2758.18 579.213   8
  -6   2  -7 1835.29 481.293  20
  -6  -2   7 2224.76 439.764  19
  -6  -2   7 2499.20 441.852  16
   6  -2   7 2325.94 560.913  16
  -6   2  -7 1778.25 502.465  19
  -2   6  -7 2378.88 578.432   3
   6  -2   7 3440.49 684.557   6
  -6   2  -7 1382.81 391.722   3
   6   2  -7 2111.15 364.013   8
   6   2  -7 1531.73 444.469  14
   6  -2   7 2968.75 617.631  14
   6   2  -7 2516.20 301.720   3
  -6  -2   7 1994.35 451.027   4
  -6  -2   7 2776.64 733.989  17
   6  -2   8 1198.21 377.522   1
   2   6  -8 1482.67 512.908  13
  -2   6  -8 630.788 310.799  13
   6   2  -8 1268.25 433.735   1
  -6   2  -8 441.799 178.533  13
  -2   6  -8 1473.71 401.812  12
   6   2  -8 124.166 146.383  20
   2  -6   8 411.837 246.143   6
  -6  -2   8 1273.01 431.655   2
  -2  -6   8 247.898 199.620   6
  -6  -2   8 1091.72 408.833   5
   6   2  -8 1496.71 439.787  11
  -6   2  -8 846.692 348.410  20
   6   2  -8 1658.30 480.516   9
  -6  -2   8 1505.23 343.200  19
  -6   2  -8 873.597 299.345  10
   6  -2   8 2020.47 530.558  14
  -6   2  -8 812.293 339.334  19
   2   6  -8 821.414 159.340  18
   6   2  -8 1287.77 394.611  18
  -6   2  -8 539.096 164.556   9
  -6  -2   8 1027.71 284.943   4
   6  -2   8 1620.82 473.083   8
   6   2  -8 705.849 209.331   8
  -2  -6   8-105.861 268.883  17
   6   2  -8 1059.83 346.184  10
  -6   2  -8 710.071 334.377   4
  -6  -2   8 1267.58 474.038  17
   6  -2   8 1645.48 477.618  16
  -6  -2   8 1194.11 311.308  16
  -6   2  -8 1702.75 677.704   7
   2   6  -8 1290.75 396.323   3
   6  -2   8 2048.10 568.880   6
  -2   6  -8 1548.31 469.213   3
  -6   2  -8 1372.17 558.225  15
   6   2  -8 594.283 252.658  14
  -6  -2   9 1906.54 396.153  19
   2   6  -9 2550.32 663.203  13
  -2   6  -9 1433.93 484.807  13
   6   2  -9 1799.45 496.748   1
  -2   6  -9 2282.67 502.708  12
   6   2  -9-129.327 373.942  20
   2  -6   9 1243.99 427.164   6
  -2  -6   9 492.691 228.634   6
  -6  -2   9 2267.47 551.646   5
   6   2  -9 2190.28 535.970  11
  -6  -2   9 2054.56 579.778   2
   6   2  -9 972.632 348.822  10
   6  -2   9 789.740 309.519   1
   6   2  -9 1748.89 479.166  18
   2   6  -9 1825.70 537.512  18
  -6  -2   9 1704.19 377.513   4
   6  -2   9 2578.17 590.771   8
  -6   2  -9 1038.14 297.548  10
  -6   2  -9 1208.41 394.410  19
  -6   2  -9 737.888 315.791   4
  -6  -2   9 2100.45 636.047  17
  -6   2  -9 1354.90 467.566  20
   6   2  -9 1883.07 526.111   9
  -6   2  -9 568.456 168.030   9
   6  -2   9 2579.00 608.677  16
  -6  -2   9 2036.91 438.738  16
  -6   2  -9 1964.90 685.836   7
   2   6  -9 2580.27 576.985   3
   6  -2   9 3062.15 723.525   6
  -6   2  -9 1447.25 562.873  15
  -2   6  -9 2961.31 639.955   3
   6  -2   9 2765.39 653.689  14
   6   2  -9 974.510 301.130  14
   2   6 -10 300.678 199.575   3
   6  -2  10 547.102 377.972   6
  -6  -2  10 630.809 266.097  16
  -2   6 -10 365.847 216.401   3
  -2   6 -10 251.086 235.065  13
   2   6 -10 118.300 42.2720  13
   2  -6  10 51.0246 57.4715   6
  -2  -6  10 69.2938 69.9381   6
   6  -2  10-206.613 467.126   1
  -2   6 -10 381.326 201.023  12
   6   2 -10 424.917 284.396  11
   2   6 -10 282.185 214.136  18
  -6   2 -10 337.003 273.391  20
  -6   2 -10 915.991 416.491  10
  -6   2 -10 302.319 298.491  19
  -2   6 -10 77.1835 87.1191  18
   6   2 -10 820.925 321.642  10
   6   2 -10 886.889 423.754   9
  -6  -2  10 1565.02 641.916  17
  -6   2 -10-307.184 402.776   4
   6   2 -10 392.149 268.088  18
   6  -2  10 278.420 153.661   2
   2  -6  10 310.020 239.017  17
  -2  -6  10-155.816 302.695  17
  -6  -2  10 563.243 248.018  19
   6  -2  10 601.423 350.611   8
  -6  -2  10 804.212 449.973   2
  -6   2 -10 804.466 287.871   9
   6   2 -10 211.572 194.942   1
  -6  -2  10 355.825 162.638   4
   6  -2  10 481.440 333.134  16
  -6   2 -10 324.385 328.831   7
  -6   2 -10 363.474 376.734  15
  -6  -2  10 411.817 282.674   5
   6  -2  10 481.131 309.442  14
   6   2 -10 297.611 185.234  14
   6   2 -11 3166.73 676.983  18
  -2   6 -11 2579.07 672.549  13
   2   6 -11 4355.93 881.226  13
   6   2 -11 3022.59 659.675   1
  -2   6 -11 4731.22 738.189  12
   2   6 -11 3339.98 546.930  12
  -6  -2  11 3676.19 698.604   5
   6   2 -11 3340.45 739.152  11
   6  -2  11 5369.51 579.164   2
  -6  -2  11 4304.09 859.007   2
  -6   2 -11 1340.39 500.198  20
  -6   2 -11 976.356 317.688  10
   6   2 -11 1592.16 532.425  10
   2  -6  11 1308.34 462.097  16
  -2   6 -11 3804.99 606.273  18
   2   6 -11 4187.54 796.424  18
  -6   2 -11 48.4532 287.904   9
  -6  -2  11 3869.27 557.168   4
   6  -2  11 4474.01 812.074   8
  -2   6 -11 4236.84 530.963   4
   2  -6  11 3030.00 669.460  17
  -6  -2  11 4375.42 947.050  17
  -2  -6  11 1976.09 666.598  17
  -6   2 -11 1402.29 424.271  19
   6  -2  11 4376.90 881.969  16
  -6  -2  11 3451.13 629.381  16
  -2  -6  11 1030.07 322.059  16
  -6   2 -11 1740.54 664.783   7
  -6   2 -11 1763.27 680.158  15
   6  -2  11 5595.98 1039.12   6
  -2  -6  11 2036.09 516.253   6
   2  -6  11 3655.08 755.833   6
   6  -2  11 5142.20 954.311  14
   2   6 -11 4836.33 798.305   3
   6   2 -11 1504.52 373.810  14
  -2   6 -11 4549.17 831.545   3
   2  -6  11 1995.81 364.373  14
   6   2 -11 2093.38 629.857   9
  -6   2 -12 58.8341 81.9257  20
   2  -6  12 469.175 180.350  14
   2   6 -12 850.748 343.065   3
   6  -2  12 758.404 358.221   8
   6   2 -12 266.123 154.286  14
  -2   6 -12 921.940 380.674   3
  -2   6 -12 528.726 284.327  13
   2  -6  12 648.953 357.711   6
  -2  -6  12 494.285 287.198   6
   2   6 -12 510.244 310.384  13
  -6  -2  12 773.642 396.388  17
  -2   6 -12 798.171 297.163  12
   2   6 -12 634.367 244.773  12
   6  -2  12 925.422 245.880   2
   6   2 -12 576.327 329.237  11
  -2   6 -12 821.893 244.494   4
  -6   2 -12 205.097 178.021  19
  -2  -6  12 164.842 174.813  16
  -6   2 -12 92.2090 125.059  10
   2   6 -12 903.753 378.345  18
   6   2 -12 541.573 284.084  18
  -6  -2  12 875.640 355.418   5
   2  -6  12 775.094 316.742  17
  -2  -6  12 670.503 379.654  17
   6   2 -12 91.6885 119.643  10
  -6  -2  12 798.104 388.357   2
  -6  -2  12 647.786 228.854   4
  -2   6 -12 718.077 251.538  18
   6  -2  12 838.522 424.499  16
  -6  -2  12 423.704 227.971  16
  -6   2 -12-136.011 398.271   7
  -6   2 -12-757.855 460.807  15
   6   2 -12 503.523 280.289   1
   6   2 -12 138.529 134.848   9
   6  -2  12 661.824 361.004  14
   2  -6  12 286.261 266.564  16
   6  -2  12 967.756 452.919   6
  -6   2 -13 14.2130 183.193  10
  -6  -2  13 1452.66 319.889   4
  -2  -6  13 667.656 267.859   6
   2  -6  13 768.146 362.268   6
   6   2 -13 904.570 384.708  11
   2   6 -13 1358.67 520.204  13
   2   6 -13 1273.65 348.878  12
   2  -6  13 1063.93 493.955  16
  -2   6 -13 1291.78 418.908  12
  -2   6 -13 729.430 339.707  13
  -6  -2  13 1342.25 412.511   5
   6  -2  13 1974.54 385.029   2
   6   2 -13 8.28278 226.681  10
  -6   2 -13 67.9496 117.517  19
   6   2 -13 809.932 351.158  18
  -2   6 -13 1703.60 367.748  18
   6   2 -13 308.378 103.056   9
   2   6 -13 1629.93 477.431  18
   6  -2  13 1366.72 445.375   8
   2  -6  13 1542.51 420.342  17
  -2  -6  13 1177.20 468.768  17
  -6   2 -13 101.679 164.028  20
  -6  -2  13 1616.86 584.499  17
  -6  -2  13 1445.78 535.258   2
  -2  -6  13 829.697 453.629  16
   2  -6  13 284.018 114.139   8
   6  -2  13 1507.41 590.054  16
  -6   2 -13-1080.70 600.225   7
  -6  -2  13 993.925 378.906  16
   6  -2  13 1658.77 597.724   6
  -2   6 -13 1401.47 336.601   4
   2  -6  13 1486.62 323.098  14
   2   6 -13 1750.30 514.942   3
  -2   6 -13 1416.87 487.529   3
   6  -2  13 1391.94 541.084  14
   6   2 -13 444.341 197.321  14
   6   2 -13 848.262 354.888   1
   2  -6  14 737.663 231.786  14
  -2  -6  14 452.113 285.192   6
   2  -6  14 856.213 394.745   6
   6   2 -14 508.117 311.806   1
   2   6 -14 898.983 368.000   3
  -2   6 -14 514.662 339.574  13
  -2   6 -14 680.031 314.635   3
   2   6 -14 703.886 387.757  13
  -2   6 -14 751.770 334.255  12
   2   6 -14 738.485 279.847  12
   2  -6  14 1121.04 370.057  17
  -6   2 -14-177.635 313.945  10
   6  -2  14 1057.13 314.535   2
   2  -6  14 587.615 415.444  16
  -6   2 -14-630.101 382.205  20
  -2  -6  14 473.391 355.648   2
   6   2 -14-356.683 421.438  10
  -6   2 -14 74.5175 133.652  19
   6   2 -14 451.268 294.576  11
  -6  -2  14 738.043 308.062   5
   6   2 -14 238.676 228.650   9
   2   6 -14 951.648 365.334  18
  -2   6 -14 798.136 291.609  18
   6  -2  14 732.096 414.322  14
   6   2 -14 440.144 264.657  18
   6  -2  14 752.310 366.257   8
  -2  -6  14 794.356 413.177  17
  -2   6 -14 606.771 253.039   4
  -2  -6  14 445.443 319.008  16
  -6  -2  14 772.203 435.187  17
  -6  -2  14 1044.72 477.667   2
   2  -6  14 307.642 155.240   8
  -6  -2  14 662.874 219.913   4
   6  -2  14 860.280 456.841  16
  -6  -2  14 585.885 300.743  16
   6  -2  14 1039.05 450.834   6
   6   2 -14 189.528 134.704  14
  -2  -6  15 991.796 451.771  16
  -2  -6  15 810.518 335.555   6
   2  -6  15 1301.45 544.809   6
   6   2 -15 782.176 379.625   1
   2   6 -15 1533.96 546.458  13
  -2   6 -15 1588.99 459.441  12
  -6  -2  15 1298.19 423.574   5
   2   6 -15 2055.39 603.904  11
  -2   6 -15 2023.38 537.287  11
   6  -2  15 2152.35 462.379   2
  -6  -2  15 1689.88 621.432   2
   6   2 -15 975.437 435.441  11
  -2   6 -15 1162.50 432.311  13
  -6   2 -15 38.5530 201.364  19
   2   6 -15 1418.29 401.012  12
  -2   6 -15 187.833 172.931   4
  -2  -6  15 997.425 490.221   2
  -2   6 -15 1578.21 396.768  18
   6  -2  15 1499.68 499.156   8
   2   6 -15 1609.59 501.948  18
  -6  -2  15 1395.74 313.379   4
   2  -6  15 863.795 277.657   8
   6   2 -15 1040.07 422.175  18
   2  -6  15 2154.03 544.002  17
   2   6 -15 1625.20 700.470  15
  -2  -6  15 1337.14 559.822  17
  -6  -2  15 2007.04 660.293  17
   2  -6  15 1378.75 552.104  16
   6   2 -15-294.944 488.860  10
   6  -2  15 1154.61 511.873  16
   6  -2  15 756.857 313.327  14
  -6  -2  15 1291.00 440.651  16
   2   6 -15 1933.97 862.651   7
   2  -6  15 1601.09 342.358  14
   6   2 -15 158.036 165.410   9
   2   6 -15 1661.02 512.492   3
  -2   6 -15 1552.94 547.899   3
   6  -2  15 1923.47 693.432   6
   6   2 -15 252.634 139.140  14
  -2  -6  16 7.36131 175.601   6
  -2   6 -16 150.562 187.813  13
   2   6 -16 100.549 166.174  13
   2   6 -16 179.352 220.727   3
  -2   6 -16 164.459 167.018   3
   6   2 -16 66.1024 104.625   1
  -2   6 -16-44.2365 88.9396  12
   2   6 -16 132.875 146.303  12
   2   6 -16 133.850 237.808  15
   2   6 -16 24.2750 216.040  11
  -2   6 -16 558.036 289.035  11
   6   2 -16 136.773 207.286  11
  -6   2 -16 164.203 157.515  19
  -6  -2  16 119.674 101.179   5
   6  -2  16 96.4382 55.4332   8
   2  -6  16 146.836 236.008   6
   2   6 -16 510.730 360.162  18
  -2   6 -16 167.712 113.210  18
   6   2 -16-95.6694 192.105  18
  -2   6 -16 595.073 422.831  20
   2   6 -16 532.949 554.754  20
  -2  -6  16-57.9036 86.6452   2
  -2  -6  16-10.1910 163.355  17
   2  -6  16 180.547 139.794  17
  -2   6 -16 712.157 601.540   7
  -6  -2  16-174.598 297.322  17
  -6  -2  16 294.433 331.840   2
   2  -6  16 101.439 125.735   8
  -2  -6  16 130.752 160.522  16
   2  -6  16-58.6140 233.364  16
  -6  -2  16 114.741 83.5217   4
   6  -2  16-72.9580 21.0410  16
  -6  -2  16 240.448 277.476  16
   2   6 -16-12.2252 181.966   7
  -2   6 -16 789.935 569.440  15
   6  -2  16-331.455 530.039  14
   6  -2  16 100.256 273.360   6
   2  -6  16 53.9038 31.7676  14
   6   2 -16 61.0325 71.4401  14
   6  -2  16 162.121 150.829   2
  -2  -6  17 370.042 286.384   6
   2  -6  17 1170.77 575.470   6
  -2   6 -17 604.579 365.445  13
   2   6 -17 869.689 370.676  13
   2   6 -17 1632.54 503.884   3
  -2   6 -17 940.281 419.366   3
  -2   6 -17 988.306 368.776  12
   6   2 -17 519.460 302.793   1
   2   6 -17 1435.54 406.257  12
  -6  -2  17 1445.53 424.866   5
   2   6 -17-383.101 475.463   1
   2   6 -17 1626.70 578.317  11
  -2   6 -17 1346.09 418.733  11
   6  -2  17 2419.07 515.314   2
  -2   6 -17 1913.66 805.000  20
   6   2 -17 570.841 416.538  11
  -6   2 -17 256.061 322.097  19
   6  -2  17 1660.62 564.061   8
  -2   6 -17 1254.52 379.370  18
   6   2 -17-757.032 761.190   9
   2   6 -17 1604.76 483.088  18
  -6  -2  17 1300.42 289.345   4
   2  -6  17 1131.98 321.910   8
  -2  -6  17 1462.38 539.555  17
   2  -6  17 1773.14 499.454  17
  -6  -2  17 1965.68 663.731  17
   6   2 -17 822.237 415.359  18
  -6  -2  17 1478.57 598.702   2
   2   6 -17 364.563 290.079  15
   2   6 -17 3216.76 1116.65  20
  -2  -6  17 1026.50 428.083  16
   2  -6  17 1539.15 660.381  16
  -2  -6  17 1127.47 567.642   2
   6  -2  17 1537.95 685.828  16
  -6  -2  17 1299.66 548.882  16
   2   6 -17 588.679 457.552   7
   6  -2  17 1734.42 681.238   6
  -2   6 -17 1918.80 924.680   7
  -2   6 -17 1621.54 780.514  15
   2  -6  17 689.810 253.744  14
   2  -6  18 128.368 222.431   6
  -2   6 -18 123.804 209.066  13
   2   6 -18 2.25995 16.3316  13
   2   6 -18 104.761 116.008   3
  -2   6 -18 221.572 311.260   3
  -2   6 -18 105.211 140.692  12
   2   6 -18 191.041 226.674  12
   6   2 -18 87.5798 121.118   1
   2   6 -18 394.873 257.813  11
  -2   6 -18 263.283 159.513  11
  -2   6 -18 337.628 323.786  20
   2   6 -18 132.215 110.237  20
   2   6 -18 1240.41 711.238  10
   2  -6  18-93.0474 207.956   2
   6   2 -18 84.2030 188.924  18
  -2   6 -18 667.332 544.434  10
  -2  -6  18 180.033 227.497   2
   6  -2  18 406.693 324.530   8
   2   6 -18 169.853 181.328  18
  -2   6 -18 216.667 191.407  18
  -6  -2  18 438.435 245.289   5
   6   2 -18 169.453 269.429  11
  -2  -6  18 542.915 403.894  17
   2  -6  18 399.001 225.707  17
  -6  -2  18 186.607 290.186  17
   6  -2  18 509.011 280.376   2
  -6  -2  18 352.399 260.215   2
   2  -6  18 147.637 107.167   8
  -2  -6  18 132.240 177.675  16
   2  -6  18 389.805 357.971  16
   6  -2  18 71.6972 152.098  16
  -6  -2  18 230.812 243.738  16
  -2   6 -18 163.138 216.988   7
  -2   6 -18 269.406 420.499  15
  -6   2 -18 116.857 257.070  19
   6  -2  18 169.515 75.9815   6
  -2  -6  18 189.708 224.924   6
   6  -3   0 557.081 225.389   1
   6  -3   0 399.131 199.524   6
  -6   3   0 1025.19 335.192  19
   6  -3   0 715.013 281.068  14
  -6  -3   0 9.64645 115.032  17
   6  -3   0 576.691 269.651   8
   6   3   0 1118.35 471.740   1
   6  -3   1 168.666 102.827   1
   6  -3   1 220.706 160.519  14
   6  -3  -1 158.026 117.371  14
   6  -3  -1 2.49232 177.252   8
   6  -3   1 207.883 135.303   6
  -6   3  -1 143.792 26.5889  12
  -6   3  -1 348.790 178.433  19
  -6   3   1 345.726 181.465  19
  -6  -3   1-69.0514 150.951  17
  -6   3  -1 198.681 103.378   5
   6   3  -1 188.813 84.3971  18
   6   3  -1 229.295 206.114   1
   6   3  -1 88.9411 193.172   8
   6   3   1 149.242 104.911   1
   6  -3   1 229.244 144.865   8
   6  -3  -1 55.1043 114.951   1
  -6   3  -1 187.197 82.8128   4
   6   3  -1-220.900 324.268  14
   6   3  -2 3296.27 774.177   1
  -6   3  -2 3146.70 591.536  19
  -6   3  -2 2318.60 509.094  12
   6  -3   2 2223.31 456.594   1
   6   3   2 854.550 296.794   1
  -6   3  -2 3173.81 529.221   5
  -6  -3   2-140.156 278.135  19
  -6   3  -2 2970.50 540.186   4
   6   3  -2 2098.53 481.907   8
   6  -3   2 2583.71 542.807   8
  -6  -3   2 532.311 360.765  17
   6   3  -2 3472.09 689.607  18
   6  -3   2 2655.05 562.600   6
   6  -3   2 2746.23 541.593  14
   6   3  -2-0.37658 171.943  14
   6  -3   3 35.5264 35.4109  14
   6   3  -3 74.1076 117.670  13
  -6  -3   3-19.0366 103.199  19
   6  -3   3 13.1866 75.5288   6
  -6   3  -3 8.79486 82.4346  12
  -6   3  -3 83.8555 66.3026   5
  -6   3  -3 107.013 77.3518  19
   6   3  -3 154.593 146.855  18
   6   3  -3 79.7764 96.0435   8
  -6  -3   3 17.5004 116.250  17
   6   3  -3 22.7416 48.7457   1
   6  -3   3 41.3823 67.5417   8
  -6   3  -3 62.4052 103.080   4
   6  -3   3 51.1068 90.9364   1
   6   3  -3-8.55430 87.9660  14
  -6   3  -3 40.0880 75.5172   3
  -6   3  -4 424.222 214.237   3
   6   3  -4 1163.82 341.768  13
   6   3  -4 970.965 302.548   8
  -6   3  -4 1068.45 358.495  12
   6  -3   4 1065.13 295.449   1
  -6   3  -4 1140.45 328.392   5
  -6   3  -4 1011.89 336.819  19
  -6  -3   4 358.068 220.379  19
   6   3  -4 1084.43 385.596  18
  -6   3  -4 1021.25 327.184   4
   6  -3   4 1132.81 358.961   8
  -6  -3   4 498.825 299.330  17
   6   3  -4 1167.98 471.087   1
   6  -3   4 1244.89 397.319   6
   6  -3   4 1195.26 365.424  14
   6   3  -5 1738.51 546.569   1
   6  -3   5 1831.54 399.696   1
  -6   3  -5 1689.45 441.708  12
   6  -3   5 1965.50 473.374  14
  -6   3  -5 1888.77 427.246   5
  -6   3  -5 1750.92 460.566   4
   6   3  -5 1850.10 495.789  18
   6   3  -5 2045.03 408.690   8
   6  -3   5 1710.27 449.385   8
  -6  -3   5 1083.82 468.235  17
  -6  -3   5 757.433 289.674  19
   6   3  -5 2177.66 458.177  13
  -6  -3   5 1183.99 449.654   2
   6  -3   5 2266.00 553.504   6
  -6   3  -5 1423.64 410.331   3
   6   3  -5 300.836 198.391  14
  -6   3  -5 1793.57 452.358  19
  -6   3  -6 1231.08 388.560   4
   3   6  -6 796.807 365.468  13
   6  -3   6 1344.44 321.929   1
  -6   3  -6 1055.35 345.969  12
   3  -6   6 134.399 151.737   6
  -6   3  -6 1351.57 379.493   5
  -6  -3   6 501.558 255.440   5
   6   3  -6 1592.01 399.388  13
  -6  -3   6 925.535 433.995   2
  -6   3  -6 1198.61 356.237  19
   6   3  -6 1496.84 442.793  18
   6   3  -6 1843.67 362.018   8
  -6  -3   6 848.683 377.777  17
   6  -3   6 1100.55 349.442   8
   6  -3   6 693.160 255.954  16
  -6  -3   6 1110.23 330.716  19
   6  -3   6 1632.44 467.585   6
   6  -3   6 1571.52 424.640  14
  -6   3  -6 924.538 336.290   3
   6   3  -6 322.050 224.173  14
   6   3  -6 1194.93 446.194   1
  -6   3  -7 1450.89 403.684  19
   3   6  -7 1641.35 550.628  13
   6   3  -7 1932.88 441.539  13
  -6   3  -7 1042.37 345.266   3
  -6   3  -7 1435.77 419.627  12
  -3   6  -7 1743.24 451.544  12
  -6   3  -7 1697.83 446.243   5
   6   3  -7 1481.97 503.281   1
  -6  -3   7 876.362 361.877   5
   6   3  -7 2149.23 533.213  20
  -6  -3   7 1440.11 377.352  19
  -6  -3   7 1415.76 491.902   2
   6   3  -7 1653.29 490.734  18
  -6   3  -7 1477.51 445.550   4
   6   3  -7 2029.47 348.404   8
   6  -3   7 2100.22 420.160   1
   6  -3   7 1498.60 431.873   8
  -6  -3   7 54.0065 142.625   4
   3  -6   7 225.034 203.549   6
  -6  -3   7 1230.10 497.602  17
  -3  -6   7-94.6787 297.118  17
   6  -3   7 1337.04 469.332  16
  -6  -3   7 667.295 220.411  16
  -3   6  -7 1762.27 516.338   3
   6   3  -7 1214.64 246.098   3
   6  -3   7 2093.22 559.188   6
   6  -3   7 1867.09 473.047  14
   6   3  -7 305.573 215.627  14
   3   6  -8 3335.38 792.756  13
   6   3  -8 3400.51 616.590  13
   6  -3   8 3405.79 547.079   1
   6   3  -8 2724.64 648.215   1
  -6   3  -8 2192.36 557.651  12
  -3   6  -8 3590.55 662.450  12
   3  -6   8 951.784 379.926   6
  -6  -3   8 1745.45 509.783   5
  -6   3  -8 2415.64 534.839   5
   6   3  -8 3203.03 668.062  18
   6   3  -8 3660.13 740.473  11
  -6  -3   8 2896.45 710.442   2
   6   3  -8 2642.28 613.944  20
  -6  -3   8 2568.95 473.187  19
  -6   3  -8 2165.62 503.452  19
   6  -3   8 2724.98 671.842  16
   3   6  -8 2022.08 610.861  18
  -6   3  -8 2404.61 584.414   4
  -3   6  -8 3399.55 711.475   3
   6  -3   8 2832.39 593.835   8
   6   3  -8 3047.67 408.669   8
  -6  -3   8 798.912 251.504   4
  -6  -3   8 2404.17 674.465  17
  -3  -6   8-30.4613 134.833  17
  -6  -3   8 1932.43 430.347  16
   6  -3   8 4011.63 777.351   6
   6   3  -8 3181.23 419.519   3
   6  -3   8 3636.14 679.368  14
  -6   3  -8 1985.55 504.749   3
   6   3  -8 395.268 227.594  14
   3  -6   9 198.090 118.121  14
   6  -3   9 1749.42 455.493   1
  -3   6  -9 458.052 301.993  13
   3   6  -9 1355.64 478.536  13
  -6   3  -9 1223.53 361.413  13
  -3   6  -9 1177.60 382.673  12
   3  -6   9 697.350 326.973   6
   6   3  -9 957.225 386.591   1
  -3  -6   9 253.107 169.220   6
  -6  -3   9 597.781 236.601   4
  -6   3  -9 1361.56 435.687   3
  -6   3  -9 1432.16 454.623   4
   6   3  -9 1641.95 514.898  11
  -6   3  -9 955.276 304.625   5
  -6  -3   9 1096.75 436.572   5
  -6   3  -9 1362.46 466.575  20
   6   3  -9 1024.96 376.268  20
  -6   3  -9 1093.54 482.652  19
  -6  -3   9 1602.06 475.892  16
   3   6  -9 925.947 386.530  18
  -3  -6   9 397.993 367.109  17
   6   3  -9 1692.58 482.539  10
  -6  -3   9 1642.29 571.940   2
  -6   3  -9 1184.43 358.444  10
   6   3  -9 1190.42 401.310  18
  -6  -3   9 1861.63 399.956  19
   6   3  -9 1047.54 256.139   8
   6  -3   9 1471.58 447.473   8
   6  -3   9 1420.36 559.437  16
   3   6  -9 1240.56 373.693   3
   6  -3   9 2016.21 574.990   6
  -3   6  -9 1430.40 453.678   3
   6  -3   9 1982.34 513.030  14
   6   3  -9 1379.91 286.674   3
   6   3  -9 522.471 289.287  14
  -6   3 -10 2020.73 567.265   4
   6  -3  10 1464.70 402.906   1
  -3   6 -10 1713.93 583.061  13
   3   6 -10 4083.95 835.293  13
  -3  -6  10 993.968 434.613  17
   6   3 -10 2995.68 690.207   1
   3  -6  10 1127.76 358.871  17
  -6   3 -10 1263.85 352.647  13
  -6   3 -10 2176.52 586.940  12
  -3   6 -10 3637.97 670.254  12
  -6  -3  10 2687.02 632.825   5
   6   3 -10 4198.22 803.885  11
  -6  -3  10 3747.90 875.362   2
  -6   3 -10 2877.30 747.766  20
   6   3 -10 2641.35 691.916  20
  -6   3 -10 2382.92 509.205  19
  -6  -3  10 2782.29 456.774  19
   6   3 -10 3224.99 728.439  10
  -6   3 -10 3666.37 610.381   9
  -3   6 -10 2414.48 408.932  18
   6   3 -10 3973.84 772.311  18
  -3  -6  10 1379.21 401.807   6
   6  -3  10 3675.02 696.011   8
   6  -3  10 4143.84 872.857  16
  -6  -3  10 3428.43 836.655  17
  -6   3 -10 2868.65 564.527  10
  -3   6 -10 3812.09 539.146   4
  -6  -3  10 2968.18 589.112  16
   3   6 -10 4282.53 735.947   3
  -6   3 -10 4114.89 1101.61   7
  -6   3 -10 4396.21 1008.53  15
   6  -3  10 5315.08 967.784   6
   3  -6  10 2208.03 622.000   6
   3   6 -10 3640.12 796.965  18
   6  -3  10 5234.01 871.378  14
  -3   6 -10 4175.49 802.627   3
   3  -6  10 1517.96 367.681  14
   6   3 -10 3722.99 494.505   3
  -6   3 -10 1815.47 495.491   3
   6   3 -10 324.576 184.702  14
   3   6 -11-22.2004 133.188   3
   6  -3  11 161.408 204.635   6
   6  -3  11 39.9733 113.760   8
   3  -6  11 114.875 97.4261  14
  -6  -3  11 40.1560 35.7001  19
  -3   6 -11-13.3952 63.4602  13
   3   6 -11 73.2682 112.375  13
  -3  -6  11 33.0703 143.143   6
   3  -6  11 52.3725 53.7646   6
  -6   3 -11 24.2686 72.9642  13
   6   3 -11 124.907 128.073   3
   6   3 -11 64.2271 40.5142  12
  -3   6 -11 100.763 138.369  12
   6  -3  11-60.5412 201.908   1
  -6  -3  11 59.0115 87.0493   4
   6   3 -11-51.1249 150.598  11
  -6   3 -11-98.0957 110.321  20
   6   3 -11 53.1700 192.970  20
  -6   3 -11 54.1375 42.4045  19
   6   3 -11-3.88671 88.4142  10
  -6   3 -11 35.6014 66.5496   9
  -3   6 -11 58.8177 12.5554   5
   3   6 -11-51.9843 96.2503  18
  -3  -6  11 72.3168 236.464  17
  -6  -3  11-57.0554 106.494   2
  -6   3 -11-84.0738 166.733   4
   3  -6  11 338.965 235.075  17
  -3   6 -11 111.591 61.5735   3
   6   3 -11 124.108 126.508   1
  -6  -3  11-20.8714 273.911  17
   6   3 -11 593.577 395.802   9
  -6  -3  11 5.74516 47.5644   5
  -6   3 -11 170.989 185.712  10
   6  -3  11 19.1975 157.923  16
  -3   6 -11 173.654 129.587   4
   6   3 -11 176.520 206.751  18
  -6  -3  11 104.676 122.804  16
  -6   3 -11 419.798 437.315   7
  -6   3 -11 349.704 352.848  15
   6   3 -11 37.2726 95.0387  14
   6  -3  11 233.055 182.618  14
  -3   6 -11 119.481 99.3605  18
   3   6 -12 2669.44 704.486  13
  -3  -6  12 1015.59 339.112   6
  -3   6 -12 1511.16 547.705  13
   6   3 -12 1896.91 552.462   1
  -6   3 -12 1053.29 397.394  13
   6   3 -12 2053.31 258.358  12
  -3   6 -12 2473.02 596.887  12
   3   6 -12 1984.36 399.326  12
  -6  -3  12 2094.05 570.760   5
  -3   6 -12 2613.87 315.456   5
   6   3 -12 2770.64 693.253  11
  -6  -3  12 2401.12 686.548   2
   6   3 -12 2364.07 730.288   9
  -6   3 -12 1683.11 576.866  20
   6   3 -12 624.832 294.990  20
   6   3 -12 1193.43 447.208  10
  -6   3 -12 1309.36 406.954  19
  -6   3 -12 1607.73 431.460  10
  -3   6 -12 2679.79 461.482  18
   3   6 -12 2926.99 728.325  18
   6   3 -12 2350.89 605.408  18
  -6   3 -12 1424.60 408.733   9
  -6   3 -12 1734.27 740.120  15
  -6   3 -12 121.127 213.156   4
   3  -6  12 984.456 317.239   8
  -6  -3  12 1416.61 332.642   4
   3  -6  12 2675.16 538.689  17
  -6  -3  12 2777.25 792.313  17
  -3  -6  12 1655.22 649.567  17
   6  -3  12 2395.24 703.997  16
  -6  -3  12 2345.18 568.906  16
  -3  -6  12 978.211 371.145  16
   3  -6  12 1347.96 520.917  16
  -6   3 -12 1922.09 763.509   7
  -3   6 -12 3295.28 535.563   4
   6  -3  12 3600.07 855.984   6
   3  -6  12 1994.91 637.761   6
   6  -3  12 3271.74 742.858  14
   3   6 -12 2921.94 624.466   3
   3  -6  12 2250.99 450.754  14
  -3   6 -12 2258.77 613.671   3
  -6  -3  12 489.245 111.286  19
   6  -3  12 3029.98 636.874   8
   6  -3  13 1091.70 465.023   6
   3  -6  13 940.483 285.254  14
  -3   6 -13 975.564 269.665  18
  -6  -3  13 897.788 411.386   2
   3   6 -13 802.867 332.533   3
   3  -6  13 464.792 353.590   6
  -3   6 -13 737.708 344.696   3
   3   6 -13 710.367 366.873  13
  -3   6 -13 712.470 309.702  12
  -3   6 -13 602.355 160.920   5
   3   6 -13 697.131 243.259  12
   3   6 -13-278.851 424.531   1
   6   3 -13 846.023 398.784  11
  -6  -3  13 535.575 206.774   4
  -3   6 -13 399.598 301.747  13
  -6  -3  13 525.170 276.420   5
   6   3 -13-48.8683 351.407  20
   6  -3  13 1190.24 432.237   8
   6  -3  13 752.787 283.763   2
  -6   3 -13 289.454 114.528   9
  -6   3 -13 330.420 224.069  20
  -6   3 -13 447.586 247.941  10
   6   3 -13 606.330 323.582   1
   6   3 -13 533.744 377.616   9
   3   6 -13 963.681 418.728  18
  -3  -6  13 463.209 249.067   6
   6   3 -13 831.069 352.783  18
   3  -6  13 936.774 329.275  17
  -3  -6  13 681.526 377.295  17
  -6  -3  13 1208.08 498.766  17
  -3   6 -13 818.599 299.536   4
   6   3 -13 313.737 249.173  10
   3  -6  13 602.299 374.995  16
  -3  -6  13 449.153 275.687  16
   3  -6  13 400.053 164.522   8
   6  -3  13 879.502 424.009  16
  -6  -3  13 688.275 321.959  16
  -6   3 -13 257.078 284.229   7
  -6   3 -13 246.088 250.068  15
  -6   3 -13 479.524 263.151  19
   6   3 -13-4.22216 87.2242  14
   6  -3  13 1010.79 412.258  14
   6  -3  14 2159.86 702.367   6
  -6  -3  14 1546.64 570.260   2
  -3  -6  14 520.630 254.832   6
   3  -6  14 1956.03 607.962   6
  -3   6 -14 943.768 413.763  13
  -3   6 -14 1153.90 450.290   3
   3   6 -14 1711.61 596.440  13
   3   6 -14 1504.85 385.414  12
  -3   6 -14 1491.06 481.178  12
   6  -3  14 1847.29 460.931   2
   3   6 -14-139.342 282.198   1
   6   3 -14 1349.69 552.391  11
   6  -3  14 1828.49 672.149  16
  -6   3 -14 522.154 401.379  20
  -6  -3  14 1371.97 444.263   5
   6   3 -14-196.437 467.053  20
  -3  -6  14 1007.22 498.455   2
  -6   3 -14 443.603 243.846   9
  -6   3 -14 577.103 319.594  19
  -6  -3  14 1610.33 475.340  16
  -6   3 -14 664.336 293.648  10
   6   3 -14 443.937 241.548  10
  -3   6 -14 1847.06 368.616  18
   6   3 -14 1111.70 520.098   9
   6   3 -14 898.036 388.273   1
  -6  -3  14 1087.42 280.794   4
   3   6 -14 1804.75 532.286  18
   6  -3  14 2120.35 595.269   8
   6   3 -14 1296.09 466.899  18
  -3  -6  14 923.008 435.576  16
   3  -6  14 1994.07 469.364  17
  -3   6 -14 1034.46 362.948   4
  -3  -6  14 1224.26 578.254  17
  -6  -3  14 1819.54 654.172  17
   3  -6  14 911.620 483.814  16
  -6   3 -14 415.902 280.835   7
   3  -6  14 901.795 307.466   8
   3   6 -14 2014.80 764.634  15
  -6   3 -14 417.697 177.615  15
   3  -6  14 1765.76 376.568  14
   3   6 -14 1650.93 470.672   3
   6   3 -14 79.4623 65.9352  14
   6  -3  14 1703.39 586.975  14
   3  -6  15 512.930 206.449  14
  -3  -6  15 292.390 263.358   6
  -3   6 -15 297.803 251.414  13
   3   6 -15 561.687 354.249  13
  -3   6 -15 109.541 89.5899   3
  -3   6 -15 417.148 222.501  12
   3   6 -15 384.568 173.721  12
  -3  -6  15 689.712 435.130  17
   3   6 -15-41.4745 154.995   1
   3   6 -15 572.506 315.780  11
  -3   6 -15 737.125 275.578  11
  -6   3 -15 334.196 342.665  20
  -3  -6  15 406.900 338.530   2
  -6  -3  15 486.803 325.251   2
   6   3 -15 158.183 203.442  10
  -6   3 -15 187.973 182.514  10
   6  -3  15 542.280 319.472   2
  -6   3 -15 28.4438 204.438   9
   6   3 -15 360.732 256.562  11
   6   3 -15 367.226 290.034   1
  -3   6 -15 261.378 158.145  18
  -3   6 -15 234.757 182.919   4
   6   3 -15 416.376 281.566  18
   6  -3  15 673.515 361.919   8
   3  -6  15 596.636 279.159  17
  -6  -3  15 380.132 177.607   4
   6  -3  15 563.998 376.254  14
   3  -6  15 287.721 156.018   8
   3  -6  15 391.301 298.462  16
   6  -3  15 561.913 364.924  16
  -6  -3  15 697.343 335.547  16
   3  -6  15 394.050 341.216   6
  -6   3 -15-500.036 683.701   7
   3   6 -15 710.141 514.291   7
   3   6 -15 407.256 250.742   3
  -6   3 -15-307.667 583.729  15
  -6   3 -15 241.536 193.533  19
   3   6 -15 435.102 279.338  15
  -6  -3  15 379.143 241.606   5
  -6  -3  15 257.645 294.825  17
   6   3 -15 178.229 239.425   9
   6   3 -15 112.508 129.670  14
   3   6 -15 380.886 282.562  18
   6  -3  15 887.133 529.571   6
  -3  -6  16 272.776 214.044   6
   3  -6  16 1329.42 582.210   6
   3   6 -16 1103.29 399.374   3
   3   6 -16 914.302 437.056  13
  -3   6 -16 912.162 448.939   3
   3   6 -16 1107.34 342.043  12
  -3   6 -16 872.623 417.670  13
  -3   6 -16 716.135 362.133  12
   6   3 -16 1045.22 423.653  18
   6  -3  16 1718.00 522.171   2
   3   6 -16 1383.67 605.535  11
  -3   6 -16 1684.33 451.101  11
   3   6 -16 1445.13 810.757  20
  -6  -3  16 1380.03 538.397   2
  -6  -3  16 1373.48 448.837   5
   6   3 -16 399.352 246.716   1
  -6   3 -16 273.711 154.673  19
  -3  -6  16 829.285 481.736   2
  -3   6 -16 1664.33 752.439  20
   6   3 -16 922.416 430.619  11
  -3   6 -16-6.37748 119.733  19
  -6   3 -16-102.265 329.877   9
   6   3 -16 629.092 422.449   9
   3   6 -16 237.783 303.146   1
   3   6 -16 1289.99 479.737  18
  -3   6 -16 1001.08 290.487  18
   3  -6  16 878.616 325.352   8
  -3  -6  16 960.397 488.669  17
   3  -6  16 1456.43 411.284  17
  -6  -3  16 972.875 249.569   4
  -6   3 -16 155.987 94.6871  20
  -6  -3  16 1354.79 611.869  17
   6   3 -16 174.329 208.402  10
  -3  -6  16 567.316 357.671  16
   3  -6  16 990.087 525.419  16
   6  -3  16 1268.55 614.583  16
  -6  -3  16 1334.05 495.575  16
   3   6 -16 588.468 468.332   7
   6  -3  16 1550.01 528.871   8
   3   6 -16 373.456 277.714  15
  -3   6 -16 1692.15 797.084  15
   6  -3  16 1210.56 540.327  14
  -6   3 -16 94.7721 89.3160  10
   6  -3  16 1552.49 627.293   6
   3  -6  16 1164.42 368.349  14
  -6  -3  17-118.011 205.506   2
  -3   6 -17 793.065 678.756  10
  -6  -3  17-22.3327 120.284   5
   3  -6  17 91.3975 235.421   6
   6   3 -17-407.684 427.489  10
  -3   6 -17 116.681 213.359  13
   3   6 -17 238.041 477.677  13
   3   6 -17 393.591 400.168   3
  -3   6 -17 294.374 316.825   3
  -6  -3  17 202.743 354.381  17
  -3   6 -17 300.711 270.141  12
   3   6 -17 195.118 271.066  12
   6  -3  17 180.450 326.749   8
   3   6 -17 64.3517 257.390  11
  -3   6 -17 202.940 494.393  20
  -3   6 -17 351.857 232.157  11
   3   6 -17-52.2317 359.125  20
   6   3 -17-65.2690 109.867  11
   6   3 -17-52.0407 67.3558   1
  -3  -6  17 171.124 411.475   2
  -6   3 -17 189.447 204.381  19
   3   6 -17 178.715 360.760  18
  -3   6 -17 31.5525 65.5544  18
   6   3 -17 88.0462 91.8655  18
  -6   3 -17-673.529 439.930  20
  -3  -6  17 811.915 668.447  17
  -6   3 -17-117.381 213.245  10
   3   6 -17-136.948 215.915   7
   3  -6  17-59.5454 180.064  17
   6  -3  17 230.468 384.459  16
   3   6 -17 156.123 302.237   1
   3   6 -17 1122.20 886.577  10
   3  -6  17-18.5642 107.057   8
  -3  -6  17 442.651 403.517  16
   3  -6  17-133.529 171.340  16
  -6  -3  17 58.5788 233.571  16
   6  -3  17 172.740 262.570   2
   6   3 -17 216.930 332.777   9
  -3   6 -17 838.503 731.334   7
   3   6 -17-90.6797 190.720  15
  -3   6 -17 635.770 606.308  15
   6  -3  17 33.7964 70.9667  14
   3  -6  17 20.9807 98.8494  14
   6  -3  17 294.035 403.264   6
  -3  -6  17 521.430 554.740   6
   3  -6  18 1793.45 750.815   6
  -3   6 -18 714.258 403.679  13
   3   6 -18 1046.46 416.592  13
   3   6 -18 1444.15 503.856   3
   3   6 -18 1892.23 468.781  12
  -3   6 -18 788.174 440.594   3
  -3   6 -18 1118.01 450.928  12
  -6  -3  18 1606.86 488.297   5
   6  -3  18 2833.14 667.145   2
   3   6 -18 1484.19 597.025  11
  -3   6 -18 1974.35 524.325  11
  -3  -6  18 2187.14 733.610  17
   3   6 -18 1139.51 763.255  20
   6   3 -18 865.667 443.806  11
   6  -3  18 2028.66 627.873   8
   6   3 -18-269.624 423.373  10
  -6   3 -18 213.369 240.045  19
  -3   6 -18 1157.08 338.466  18
   3   6 -18-121.698 224.432   1
   3  -6  18 1754.90 447.854  17
   3   6 -18 1649.67 541.721  18
   6   3 -18 63.3726 115.391   9
  -6   3 -18-132.324 358.104  10
   3   6 -18 2133.14 802.002  10
   6   3 -18 934.435 444.639  18
   6   3 -18 447.345 297.016   1
  -3   6 -18 2045.41 719.845  10
  -6  -3  18 1742.23 702.104   2
  -6  -3  18 1784.47 794.459  17
  -3   6 -18 1652.97 759.425  20
  -3  -6  18 1644.85 661.325  16
   3  -6  18 1878.71 744.453  16
   6  -3  18 1981.78 824.756  16
  -6  -3  18 1381.12 506.479  16
  -3   6 -18 970.902 707.911   7
  -3   6 -18 1295.38 707.961  15
  -3  -6  18 1821.84 796.865   2
   6  -3  18 146.164 484.748  14
   6  -3  18 2295.01 784.355   6
  -3  -6  18-120.200 221.175   6
  -6   3 -18-716.943 467.843  20
   3  -6  18 1570.64 404.991   8
   6  -4   1 175.967 145.517  14
   6   4  -1 31.3179 252.407   1
  -6   4  -1 187.702 40.5333  19
   6  -4   1 21.5523 205.088   8
   6  -4   2 78.1460 100.954  14
   6  -4   2 19.7053 148.484   1
   6  -4   2 117.106 106.967   6
  -6   4  -2 150.120 124.369  19
  -6   4  -2-23.8480 196.226  12
   6   4  -2 71.8458 143.946   1
   6   4  -2-215.523 369.433  18
  -6  -4   2 45.7565 347.082  17
   6  -4   2 23.6444 27.9656   8
   6  -4   3 697.643 279.107  14
  -6   4  -3 797.330 306.771  12
   6  -4   3 522.264 270.817   6
   6  -4   3 352.696 176.888   1
  -6   4  -3 891.878 326.753  19
   6   4  -3 771.325 434.641   1
   6   4  -3 825.415 373.436  18
  -6   4  -3 609.435 215.437   5
  -6  -4   3 110.670 64.2504  17
   6  -4   3 564.503 274.211   8
  -6   4  -3 690.860 247.322   4
   6  -4   4 5.12197 84.7151  14
   6   4  -4 72.9133 51.6601  18
   6   4  -4-56.8328 118.035  13
   6  -4   4-16.4752 92.9216   6
  -6   4  -4-62.5743 116.194  12
  -6  -4   4-46.0189 219.896  17
   6   4  -4-88.0948 219.942   8
  -6   4  -4 107.206 113.517  19
  -6   4  -4-23.8460 86.1145   5
   6   4  -4 161.594 228.249   1
   6  -4   4-25.6521 71.9345   8
  -6  -4   4-235.943 345.045  19
  -6   4  -4 12.8658 18.2941   4
   6  -4   4-4.82267 46.4735   1
  -6   4  -4 23.5190 31.9521   3
  -6   4  -5 374.545 215.120   3
   6   4  -5 822.938 313.247  13
   6  -4   5 797.374 361.113   6
   6  -4   5 529.223 219.083   1
   6  -4   5 701.668 289.211  14
  -6   4  -5 749.157 290.901  12
  -6  -4   5 88.2945 159.715  19
   6  -4   5 533.140 270.112   8
  -6   4  -5 750.724 260.751   5
   6   4  -5 743.599 400.077  18
  -6   4  -5 756.454 300.354  19
   6   4  -5 560.568 251.561   8
   6   4  -5 486.132 335.858   1
  -6  -4   5 341.810 193.436  17
  -6   4  -5 645.190 261.050   4
  -6   4  -6 852.959 324.793   3
   6   4  -6 1355.53 408.221  13
   4   6  -6 904.820 384.388  13
   6  -4   6 1286.98 420.997   6
   6  -4   6 1071.32 298.660   1
   4  -6   6 174.855 159.979   6
  -6   4  -6 1142.32 381.121  12
  -6   4  -6 1214.00 329.437   5
  -4   6  -6 906.021 334.307  12
  -4  -6   6-234.455 369.455  17
  -6   4  -6 1104.50 360.399  19
   6   4  -6 965.711 292.480   8
   6   4  -6 1294.57 455.955  18
  -6   4  -6 1199.10 365.465   4
  -6  -4   6 285.647 192.634  19
   6  -4   6 815.968 315.877   8
   6  -4   6 1018.29 350.615  14
   6   4  -6 1021.30 458.192   1
  -4   6  -6 682.729 289.104   3
  -6  -4   6 436.630 268.823  17
   6   4  -7 1271.10 432.616  13
  -6   4  -7 855.329 337.499   3
   4   6  -7 1210.75 454.643  13
   6  -4   7 1361.11 455.923   6
   6  -4   7 1279.92 315.435   1
  -4   6  -7 1117.43 386.639  12
   4  -6   7 296.772 199.956   6
  -6   4  -7 961.220 316.386  12
  -6   4  -7 907.453 282.747   5
   4   6  -7 461.164 110.127  18
  -4   6  -7 1233.18 437.139   3
  -6   4  -7 1272.97 398.583   4
  -6   4  -7 997.752 329.351  19
  -6  -4   7 182.910 122.176  19
   6   4  -7 1362.04 498.355  18
  -4  -6   7-58.8379 157.155  17
   6   4  -7 1188.12 286.423   8
   6  -4   7 1132.01 382.544   8
   6   4  -7 968.691 463.613   1
  -6  -4   7 513.745 364.868  17
  -6  -4   7 753.802 437.969   2
   6  -4   7 1110.80 378.444  14
  -4   6  -8 988.797 399.943   3
  -6   4  -8 32.3461 144.735  13
   4   6  -8 1347.23 486.881  13
  -6   4  -8 949.126 404.040   3
   6  -4   8 1199.68 461.642   6
   6   4  -8 1375.78 415.594  13
  -4   6  -8 1291.58 412.761  12
   4  -6   8 436.267 285.237   6
  -6   4  -8 903.723 337.202  12
  -4  -6   8 62.3630 78.8601   6
  -6   4  -8 1212.53 353.040   5
  -6  -4   8 795.624 380.129   2
   6   4  -8 1390.18 297.256   8
  -6  -4   8 774.879 259.159  19
  -6   4  -8 998.404 341.859  19
   4   6  -8 873.531 444.928  18
   6  -4   8 1198.79 304.271   1
  -4  -6   8 7.60135 173.711  17
   6   4  -8 1531.24 553.958  18
   6  -4   8 1076.09 386.032   8
  -6   4  -8 1056.27 371.627   4
   6  -4   8 49.3807 388.285  16
   6   4  -8 783.893 369.647   1
   6   4  -8 804.061 241.165   3
  -6  -4   8 570.010 354.523  17
   6  -4   8 1251.76 390.743  14
   4  -6   9 567.081 242.534  14
   4   6  -9 1950.25 582.164  13
   6   4  -9 1970.69 510.977  13
  -4   6  -9 117.843 86.4386  13
  -6   4  -9 53.0737 93.0574  13
   6  -4   9 1855.92 378.803   1
   4   6  -9 1332.78 390.145   3
  -6   4  -9 1021.58 391.258   3
   4  -6   9 681.772 396.978   6
  -4   6  -9 1647.79 486.192  12
  -4  -6   9 361.002 205.430   6
  -6   4  -9 1295.59 426.746  12
  -6   4  -9 1554.08 404.145   5
  -6   4  -9 1737.36 228.104  11
  -4  -6   9 203.377 286.592  17
  -6   4  -9 1534.55 414.611  19
  -6  -4   9 1190.35 310.004  19
   6   4  -9 1705.31 520.763  18
   4   6  -9 1619.97 583.051  18
  -6   4  -9 1356.20 436.628   4
  -4   6  -9 1288.30 339.769   4
   6  -4   9 1692.00 460.811   8
  -6  -4   9 1069.32 480.433  17
  -6  -4   9 425.192 105.050  16
   4  -6   9 191.577 88.8338   8
   6   4  -9 1308.28 495.134   1
   6   4  -9 1515.33 265.082   8
   6   4  -9 1367.42 327.410   3
   6  -4   9 2029.88 599.688   6
  -4   6  -9 1680.05 526.252   3
   6  -4   9 1942.19 499.021  14
   6  -4   9 1172.87 491.495  16
  -6  -4   9 1098.39 511.172   2
   6  -4  10 133.934 104.592  14
   4  -6  10 73.3927 72.3997  14
  -4   6 -10 37.4442 57.3697   3
   6   4 -10 37.6275 63.0002   3
   6  -4  10 84.8514 110.649   6
  -4   6 -10 47.1493 73.1625  13
   6   4 -10-9.69911 85.4883  18
  -6   4 -10-14.4151 54.6291  13
   4   6 -10 97.8552 123.401  13
   6   4 -10 40.0920 87.1361  13
   4  -6  10 76.8243 178.271   6
  -4  -6  10 5.79208 60.3004   6
  -6   4 -10 1.17457 121.661   3
  -6   4 -10 31.4149 94.4067  12
  -4   6 -10 65.9301 122.019  12
   4   6 -10-707.366 428.418   1
   4   6 -10 98.5573 140.827  18
   6   4 -10-6.30013 96.5877  11
  -6   4 -10 80.8875 9.40444  11
  -6   4 -10 59.7567 97.7142   5
  -6  -4  10 156.862 133.313  19
  -6   4 -10 126.549 104.583  19
   6   4 -10 164.878 227.096  20
  -4   6 -10 27.4880 70.8931   5
   4  -6  10-122.160 189.806  17
  -6  -4  10 33.5047 44.7061  17
  -6   4 -10 71.1625 107.480   4
   6  -4  10 39.2266 93.4924   8
   6   4 -10 61.8796 62.2328   8
  -6  -4  10 15.1912 17.2858  16
   6  -4  10-17.4704 151.918  16
  -4  -6  10-300.112 376.830  17
   4  -6  10-83.5657 150.037   8
  -4   6 -10 62.0624 76.0737   4
   6   4 -10 79.2937 156.249   1
   6  -4  10 66.0399 102.836   1
  -6  -4  10 71.5186 204.823   2
   4   6 -10 81.9714 70.6392   3
   6  -4  11 2869.05 736.740   6
   4   6 -11 2333.77 649.376  13
   6   4 -11 2634.91 615.902  13
  -4   6 -11 725.817 346.428  13
  -4  -6  11 758.073 283.548   6
  -6   4 -11 1585.21 490.197   4
  -6   4 -11 545.253 241.268  13
   4  -6  11 1282.46 555.880   6
  -4   6 -11 2191.72 562.617  12
  -6   4 -11 1138.00 435.243   3
  -6   4 -11 1105.07 424.881  12
   4  -6  11 971.660 187.142   1
  -4   6 -11 2281.33 349.707   5
  -4   6 -11 2000.77 364.979  18
   6   4 -11 2824.26 723.031  11
  -6   4 -11 1261.46 211.048  11
  -6  -4  11 773.170 328.891   5
  -6   4 -11 1076.04 381.664   5
   4   6 -11-613.298 388.889   1
  -6   4 -11 2397.71 709.938  20
  -6   4 -11 1756.26 453.151  19
  -6  -4  11 1471.34 333.511  19
   6  -4  11 950.496 290.534   1
   4   6 -11 2223.65 618.445  18
   6   4 -11 2153.31 593.164  18
  -4  -6  11 966.564 524.802  17
  -4   6 -11 2507.15 497.862   4
   6  -4  11 1908.33 486.563   8
   4  -6  11 956.759 340.684   8
   4  -6  11 1657.75 428.379  17
  -6  -4  11 1977.14 715.727  17
   6   4 -11 1695.99 593.341  20
  -6  -4  11 1406.05 442.203  16
   6  -4  11 1973.65 641.943  16
   4  -6  11 360.253 114.480  16
  -6  -4  11 1566.82 602.085   2
   4   6 -11 2270.12 532.059   3
   6  -4  11 2649.08 605.508  14
  -4   6 -11 1736.93 577.925   3
   4  -6  11 1639.48 395.608  14
   6   4 -11 2491.08 440.986   3
  -4  -6  11 603.247 181.762  19
   6   4 -11 1547.59 525.297   1
   6   4 -12 505.714 296.045   1
   4   6 -12-51.7444 226.828   1
   4  -6  12 799.069 301.549  14
   4   6 -12 922.609 343.766   3
   6  -4  12 1246.35 504.150   6
  -4  -6  12 307.976 188.101   6
  -4   6 -12 742.700 370.655   3
  -4   6 -12 238.527 234.970  13
   4  -6  12 817.999 380.135   6
   6   4 -12 803.400 428.284  10
   4   6 -12 840.624 359.101  13
  -6   4 -12 361.777 225.773  13
   6   4 -12 903.861 270.346   3
   6   4 -12 943.026 375.385  13
  -6   4 -12 600.352 321.326  12
  -6   4 -12 414.228 312.085   3
  -4   6 -12 772.156 342.719  12
  -4   6 -12 824.860 214.589   5
  -6   4 -12 390.806 276.187   4
   6   4 -12 94.4045 40.2356  12
  -6  -4  12 506.875 286.798   5
   6   4 -12 1051.60 464.921  11
   6  -4  12 14.5166 163.292   1
  -6   4 -12 780.129 424.066  20
   6   4 -12 797.922 426.537  20
  -6   4 -12 231.512 71.6614  11
  -4  -6  12 448.384 127.334  19
  -6  -4  12 882.028 448.788   2
  -4   6 -12 917.790 225.690  18
   4   6 -12 1019.65 439.323  18
  -6   4 -12 1310.45 455.889  10
   6   4 -12 924.076 398.575  18
  -6  -4  12 355.428 139.523  19
   4  -6  12 859.208 270.876  17
  -4  -6  12 369.345 336.599  17
  -6   4 -12 569.146 253.005  19
  -6  -4  12 699.001 393.584  17
  -4   6 -12 957.799 303.632   4
  -4   6 -12 233.561 45.1690  19
   4  -6  12 269.449 213.050  16
   4  -6  12 593.881 262.686   8
  -6  -4  12 686.352 335.679  16
   6  -4  12 711.293 417.678  16
  -4  -6  12-6.05523 330.385  16
   6  -4  12 790.041 328.119   8
  -6   4 -12 967.142 637.781  15
   6  -4  12 1261.95 431.670  14
   6  -4  13 747.771 402.955   6
  -4  -6  13 222.241 183.537   6
   6   4 -13 441.165 310.608   1
   4  -6  13 304.331 232.551   6
  -4   6 -13 392.181 263.083   3
   4   6 -13 427.150 276.438  13
   6   4 -13 235.310 163.535   3
  -6   4 -13 412.603 304.488  12
  -4   6 -13 384.895 248.230  12
  -6   4 -13 291.770 283.584   3
   6   4 -13 272.587 95.8641  12
   4  -6  13 565.418 247.818  14
   4   6 -13 100.151 109.342  12
  -6  -4  13 262.330 217.418   5
   6   4 -13 618.281 332.291  11
  -4   6 -13 330.743 150.550   5
  -6   4 -13 341.545 316.862  20
  -4  -6  13 360.003 333.991   2
   6   4 -13 481.023 428.884  20
   4   6 -13 344.654 209.333   3
   4   6 -13-4.20188 176.483   1
   6   4 -13 609.329 413.968  10
  -6   4 -13 151.505 177.686  13
  -6   4 -13 398.297 235.781  19
  -4   6 -13 170.080 80.0568  19
  -6   4 -13 983.835 500.080   9
   4  -6  13 610.406 252.740  17
  -4   6 -13 160.825 243.672  13
   4   6 -13 298.309 190.737  18
  -4   6 -13 441.481 186.577  18
  -6  -4  13 349.907 323.154   2
   6   4 -13 368.270 223.549  18
  -6   4 -13-6.20779 133.288  11
  -6   4 -13 199.214 150.605   4
  -4  -6  13 296.679 338.418  17
  -6  -4  13 323.848 334.767  17
   4  -6  13 258.917 191.577   8
  -4   6 -13 481.187 254.303   4
   6  -4  13 354.684 241.325   8
   4  -6  13 31.9228 86.1120  16
  -6   4 -13 127.084 161.715  10
  -4  -6  13 29.1510 203.271  16
  -6  -4  13 291.531 214.966  16
   6   4 -13 1432.94 725.118   9
  -6  -4  13-18.3847 129.494  19
  -6   4 -13 537.768 569.774   7
  -6   4 -13 560.328 471.831  15
   6  -4  13 384.104 377.147  16
   6  -4  13 532.897 259.065  14
  -4  -6  14 622.366 353.371  16
   4  -6  14 976.313 327.329  14
   6  -4  14 1153.32 528.392   6
   4  -6  14 1164.67 496.391   6
   4   6 -14 1022.32 373.821   3
   6   4 -14 628.532 321.875   1
  -4   6 -14 146.849 153.469  13
  -4   6 -14 606.023 336.803   3
   4   6 -14 959.662 435.548  13
  -6   4 -14 143.663 203.134  13
   6   4 -14 828.486 186.430  12
   4   6 -14 730.683 238.625  12
   6   4 -14 895.744 302.529   3
  -4   6 -14 760.096 327.822  12
  -6   4 -14 413.296 309.389   3
  -4   6 -14 1616.85 390.243  11
  -6  -4  14 513.650 260.949   5
   6   4 -14 1295.44 519.642  11
  -6   4 -14 1026.76 411.286  10
   6   4 -14 1252.56 599.409  10
  -4   6 -14 404.011 179.169  19
   6   4 -14 1990.51 773.077   9
  -6   4 -14 706.794 325.122   9
  -6   4 -14 925.791 655.959   7
  -6   4 -14-238.221 455.805   4
   4   6 -14 817.374 424.081  18
  -4   6 -14 982.567 246.862  18
  -6  -4  14 896.177 489.850   2
   6   4 -14 888.698 375.264  18
  -4  -6  14 848.912 418.046  17
  -4   6 -14 791.135 333.792   4
   4  -6  14 1258.58 352.815  17
  -6  -4  14 853.529 440.461  17
   6  -4  14 1151.05 415.192   8
   4  -6  14 577.224 217.312   8
   4  -6  14 719.408 427.776  16
  -6   4 -14 479.434 260.421  19
  -6  -4  14 778.701 350.992  16
   6  -4  14 847.766 499.113  16
  -6   4 -14 786.237 475.815  12
   4   6 -14 926.621 551.260   7
   4   6 -14 815.197 438.653  15
  -6   4 -14 553.500 433.151  15
   6   4 -14 613.998 489.689  20
  -4  -6  14 670.337 464.002   2
  -6   4 -14 526.675 372.625  20
   6  -4  14 1132.62 433.540  14
  -4  -6  15 150.239 229.169   6
   6  -4  15 1103.47 528.698   6
   4  -6  15 567.510 392.295   6
   4   6 -15 788.959 339.253   3
  -4   6 -15 183.887 148.808  13
   4   6 -15 723.276 351.498  13
  -4   6 -15 429.749 257.166   3
   6   4 -15 610.456 334.418   1
  -6   4 -15 307.843 250.590  13
  -4   6 -15 319.239 166.389  19
  -6   4 -15 599.573 501.860  12
   6   4 -15 762.979 187.862  12
  -4   6 -15 734.502 358.366  12
   6   4 -15 787.785 329.650   3
   4   6 -15 688.308 242.200  12
  -6   4 -15 577.409 430.474   3
   4   6 -15 1082.87 514.120  11
  -4   6 -15 1320.08 371.309  11
  -6  -4  15 444.068 255.420   5
   6   4 -15 867.068 443.969  11
  -4  -6  15 690.890 411.986  16
   4   6 -15 1085.42 709.798  20
  -6   4 -15 806.427 515.243  20
   6   4 -15 238.402 71.7800  20
  -4  -6  15 596.441 455.297   2
   6   4 -15 610.151 355.756  10
  -6   4 -15 493.046 255.225  19
   4   6 -15 141.431 126.355   1
   6   4 -15 1095.34 592.426   9
  -6   4 -15 635.889 360.662   9
   4   6 -15 696.275 350.693  18
  -6   4 -15 1091.47 471.066  10
   6   4 -15 994.521 435.700  18
  -6  -4  15 1045.34 532.379   2
  -4   6 -15 742.265 359.876   4
  -4  -6  15 900.098 544.630  17
   4  -6  15 1050.53 297.058  17
  -6  -4  15 852.827 481.630  17
   6  -4  15 900.854 380.476   8
   4  -6  15 607.031 286.702   8
   4  -6  15 660.180 433.160  16
  -6  -4  15 795.613 397.672  16
   6  -4  15 858.259 519.545  16
  -4   6 -15 615.475 198.354  18
   4   6 -15 178.939 46.4475   7
  -6   4 -15 679.950 598.333   7
   4   6 -15 261.837 218.246  15
  -6   4 -15 723.398 512.731  15
   6  -4  15 1267.32 505.598  14
   4  -6  15 797.777 287.889  14
   6  -4  16-180.099 212.965   6
   4  -6  16-19.6924 218.476   6
   4   6 -16 2.76289 134.664   3
  -4   6 -16-58.6101 146.678  13
   4   6 -16-97.2474 42.6652  13
  -6   4 -16 170.563 282.264  13
  -4   6 -16 4.96267 120.017   3
   6   4 -16 817.118 580.777   1
  -4   6 -16-69.8518 179.744  12
   6   4 -16 347.094 326.154   3
   4   6 -16-36.8973 145.628  12
   4   6 -16-106.578 296.183  11
  -4   6 -16 303.646 205.628  11
  -6  -4  16 616.163 488.848   5
   6   4 -16 1069.72 743.596  11
  -4   6 -16 498.279 589.950  20
   4   6 -16 32.0631 235.516  20
   6  -4  16-53.3511 216.269   2
   6   4 -16 745.012 801.378  20
  -6   4 -16-167.143 164.117  10
  -4  -6  16 111.804 216.765   2
   6   4 -16 655.525 739.716  10
  -6   4 -16 181.583 158.808  19
  -4   6 -16-2.74372 30.4416  19
   6   4 -16 2121.23 1072.19   9
   4   6 -16-25.3722 175.684   1
  -6   4 -16-91.0761 22.9420   9
   4   6 -16-11.6934 167.004  18
  -4   6 -16 129.680 112.135  18
   6   4 -16 506.331 458.812  18
  -6  -4  16 920.714 742.536   2
  -6  -4  16 2516.25 1071.22  17
  -4   6 -16-318.374 381.720   4
  -4  -6  16 3.98720 370.550  17
   6  -4  16 88.0874 154.995   8
   4  -6  16 40.9501 48.5620  17
   4  -6  16 16.6451 87.4064   8
  -4  -6  16-79.7633 111.848  16
   4  -6  16-244.498 263.767  16
   6  -4  16 54.7998 111.589  16
  -6  -4  16 988.835 558.237  16
  -6   4 -16-177.588 307.636   7
  -6   4 -16-164.774 318.991  15
  -4   6 -16 840.784 715.539  15
  -6   4 -16-165.723 294.798  20
   6  -4  16 60.1374 64.7122  14
  -4  -6  16-98.3641 209.391   6
   4  -6  16 56.9200 75.7343  14
   4   6 -17 369.232 548.874  20
   4  -6  17 548.088 282.550   6
  -4   6 -17 369.865 296.043  13
   4   6 -17 532.132 320.357   3
   4   6 -17 128.519 225.938  13
  -6   4 -17 603.227 443.650  13
  -4   6 -17 360.658 304.072   3
  -6   4 -17 68.0608 42.0277  19
  -4   6 -17 215.292 258.166  12
   6   4 -17 436.268 345.187   1
   4   6 -17 688.360 290.993  12
   6   4 -17 282.916 149.079   3
   4   6 -17 910.268 565.801  11
  -4   6 -17 844.436 315.541  11
  -6  -4  17 244.414 179.893   5
   6   4 -17-0.77052 315.010  20
   6   4 -17 830.141 596.297  11
  -4   6 -17 341.680 449.907  20
  -6   4 -17 18.5533 114.658  20
   6   4 -17-61.5006 143.313  10
   6  -4  17 476.521 286.333   2
   6   4 -17 876.068 503.534   9
  -4   6 -17 1393.40 675.459  10
  -6   4 -17-145.044 339.091  10
  -4  -6  17 552.087 411.206   2
  -4   6 -17 308.246 171.781  19
  -6   4 -17 106.305 95.6646   9
   4   6 -17 16.1937 158.783   1
   4   6 -17 328.838 317.315  18
   6   4 -17 305.666 280.055  18
  -4  -6  17 564.648 457.165  17
  -4   6 -17 1156.65 684.203  15
  -6  -4  17 529.065 390.197   2
   6  -4  17 606.613 283.852   8
  -6  -4  17 1516.08 709.157  17
   4  -6  17 422.307 164.496  17
  -6   4 -17-775.105 740.253  15
   4  -6  17 433.658 224.912   8
   4   6 -17 1942.97 953.945  10
  -4  -6  17 351.956 280.651  16
   4  -6  17 455.703 404.665  16
   6  -4  17 438.062 358.433  16
  -6  -4  17 147.026 168.266  16
  -6   4 -17-961.822 638.637   7
  -4   6 -17 1291.07 941.850   7
   6  -4  17 141.671 153.774  14
  -4  -6  17-264.590 157.500   6
   4  -6  17 425.978 283.333  14
   6  -4  17 745.827 430.493   6
   6  -5   3-7.33828 12.7212   6
   6   5  -3-326.857 534.900   1
  -6  -5   3-264.289 414.716  17
   6  -5   4 136.770 147.054  14
   6  -5   4-0.65062 102.933   6
  -6   5  -4 151.825 102.410  12
   6   5  -4-27.4915 222.434  18
   6   5  -4-50.4868 315.876   1
  -6  -5   4-153.505 286.224  17
   6  -5   4-70.4250 210.399   8
  -6   5  -4 120.646 115.567  19
   6  -5   5-17.8863 127.051   1
   6   5  -5 172.308 176.868  13
   6  -5   5 22.0347 101.896  14
  -6   5  -5 162.209 96.5832  19
   6  -5   5 4.93464 111.615   6
  -6   5  -5 124.367 149.564  12
   6   5  -5 139.579 218.082   1
   6   5  -5 174.339 221.280  18
  -5  -6   5-33.1408 470.549  17
  -6  -5   5-17.8295 93.3605  17
   6  -5   5 57.2148 118.586   8
  -6   5  -5 101.406 134.929   4
  -6   5  -5 99.3024 39.7739   3
   6  -5   6-4.83225 15.9360  14
   5   6  -6-121.233 231.110  13
   6   5  -6 96.1076 106.546  13
   6  -5   6 41.5511 124.597   6
   6   5  -6 237.781 305.924   1
   5  -6   6 67.3581 112.761   6
  -6   5  -6 47.6360 49.8224  12
  -5   6  -6-34.3804 142.854  12
   6  -5   6 3.16207 14.7814   1
  -6   5  -6 70.1125 78.8286  19
   5   6  -6-293.737 512.550  18
  -6   5  -6-31.6676 122.294   5
  -5  -6   6-86.5590 142.106  17
  -6  -5   6 215.653 189.624  17
   6  -5   6 122.413 147.618   8
  -6   5  -6 77.8786 114.834   4
   6   5  -6 140.363 220.911  18
  -5   6  -6-144.292 272.039   3
  -6   5  -6 73.0485 139.257   3
  -6   5  -7 354.933 231.697   3
   6  -5   7 354.466 177.595   1
   6  -5   7 554.283 257.849  14
   6   5  -7 346.091 62.4061   8
   5   6  -7 571.139 294.913  13
   6   5  -7 623.653 293.211  13
   6  -5   7 353.932 259.012   6
   5  -6   7 214.976 172.145   6
  -6  -5   7-28.3854 70.6182   6
  -6   5  -7 451.248 228.895  12
  -5   6  -7 716.193 308.534  12
  -6  -5   7-210.726 217.247  19
  -6   5  -7 639.386 268.403  19
  -6   5  -7 501.616 211.362   5
   6   5  -7 234.031 143.100   1
   5   6  -7 461.153 241.447  18
   6   5  -7 432.138 268.616  18
  -5  -6   7-171.869 278.624  17
  -6  -5   7-209.271 412.216  17
   6  -5   7 276.490 201.156   8
   5  -6   7-80.7278 269.796   8
  -6   5  -7 518.365 252.143   4
  -5   6  -7 529.615 294.195   3
  -5   6  -8 360.476 261.244   3
   6  -5   8 312.408 202.702  14
  -6   5  -8 188.237 183.831   3
   5  -6   8 202.553 165.944  14
   5   6  -8 209.862 188.994  13
   6   5  -8 341.160 224.554  13
  -6  -5   8 123.508 92.5512   6
   6  -5   8 245.418 195.198   6
   5  -6   8 276.560 259.854   6
  -5  -6   8-20.7323 94.1761   6
  -6   5  -8 435.539 233.958  12
  -5   6  -8 271.766 226.278  12
   5   6  -8 230.028 223.003  18
  -6   5  -8 335.726 181.842   5
  -6   5  -8 299.270 182.192  19
  -5  -6   8-202.484 374.648  17
   6   5  -8 379.585 265.485  18
   6   5  -8 210.756 218.542   1
   6  -5   8 158.769 114.103   8
   6   5  -8 411.478 186.308   8
  -6  -5   8 305.062 308.888  17
  -6   5  -8 361.354 202.392   4
   5  -6   8 58.5791 167.322   8
  -5   6  -8 221.968 55.1268   4
   6  -5   8 310.797 157.689   1
  -6  -5   8 243.719 188.119  19
  -5  -6   9 250.187 328.779  17
  -5   6  -9 251.987 190.645   3
   6  -5   9 239.704 197.779  14
   5  -6   9 167.286 141.072  14
  -6  -5   9 73.9148 71.9726   6
  -6   5  -9 281.354 220.833   3
  -6   5  -9-334.814 255.365  13
   5   6  -9 291.901 232.766  13
   6   5  -9 278.257 165.668  13
   6  -5   9 120.445 165.224   6
   5  -6   9 193.854 218.750   6
   6  -5   9 253.809 142.681   1
  -5  -6   9 49.8013 108.422   6
  -6  -5   9-19.4930 114.765  17
  -6   5  -9 330.491 238.130  12
  -5   6  -9 222.703 194.468  12
   5   6  -9 204.344 201.489  18
   5   6  -9-183.590 390.029   1
  -5   6  -9 121.702 34.6202   5
  -6   5  -9 211.749 156.884  19
  -6   5  -9 58.1671 42.8918  18
   6   5  -9 187.169 114.238  18
   6   5  -9 183.495 175.555   1
   6  -5   9 149.429 87.2473  17
   6   5  -9 250.011 127.319   8
  -6  -5   9 6.31828 80.0275  19
   6  -5   9 176.617 173.185   8
  -6   5  -9 307.052 186.940   4
   5  -6   9 127.520 48.4431   8
  -5   6  -9 186.438 144.665   4
  -6   5  -9 230.386 124.378   5
   5  -6   9-10.6391 127.370   1
   6  -5  10 289.132 197.138  14
   5  -6  10 259.011 198.673  14
  -5   6 -10 333.757 242.171   3
  -5   6 -10-2.23118 151.597  13
  -6   5 -10 67.3500 100.456  13
  -6   5 -10 206.904 208.605   3
   6  -5  10 298.863 225.508   6
   5   6 -10 250.390 194.624  13
   6   5 -10 254.977 225.754  13
  -5  -6  10 53.8243 65.7751   6
   5  -6  10 181.542 150.491   6
   5  -6  10 124.697 77.5038   1
  -6   5 -10 234.148 199.364  12
  -5   6 -10 235.603 203.419  12
   5   6 -10-31.5407 213.950   1
  -6  -5  10 71.1484 96.1296   2
  -5  -6  10 150.373 151.583  19
  -6   5 -10 393.898 205.176  19
  -5   6 -10 265.774 140.929   5
  -6   5 -10 189.256 115.173   5
  -5   6 -10 13.9550 132.080  19
   5   6 -10 358.533 303.041  18
   6   5 -10 105.876 37.3972  18
   6   5 -10 137.002 146.511   1
   6  -5  10 189.641 119.184   1
   5   6 -10 125.589 16.4633   8
   5  -6  10 51.2100 40.9014  17
  -5  -6  10 71.9879 56.6827  17
   6  -5  10 329.613 104.242  17
  -6  -5  10 207.618 270.395  17
   6   5 -10 318.854 139.105   8
  -6   5 -10 211.236 164.856   4
   6  -5  10 195.371 195.775   8
   6  -5  10-138.425 415.782  16
   6   5 -10 90.3583 91.3507   7
   5  -6  10 104.081 122.193   8
  -5   6 -10 286.692 178.627   4
  -6  -5  10 200.401 163.892  19
   6   5 -10 79.9174 49.5802  15
   5   6 -10 167.374 77.8377   3
   6   5 -10 224.500 147.954   3
  -6  -5  10-11.0928 54.4875   6
   6   5 -11 345.946 163.434   3
   6  -5  11 389.314 237.277  14
   5  -6  11 307.956 224.445  14
  -6  -5  11 193.575 228.193  17
  -5   6 -11 217.787 137.510   3
  -5  -6  11 175.200 128.743   6
  -5   6 -11 10.1831 73.2961  13
   6  -5  11 489.383 284.935   6
  -6   5 -11 59.1664 60.7751  13
   6  -5  11 259.033 127.224   1
  -6   5 -11 277.808 244.472   3
   5   6 -11 458.405 287.441  13
   5  -6  11 483.244 347.303   6
   6   5 -11 555.043 345.294  13
  -6   5 -11 219.485 172.315  12
  -5   6 -11 332.526 254.979  12
  -6  -5  11 322.657 381.093   2
  -6   5 -11 711.455 218.018  11
   6  -5  11 317.927 98.4238  17
  -6   5 -11 487.098 259.935   5
   5   6 -11 79.8039 71.7974   1
  -5  -6  11 165.457 116.884  19
  -5   6 -11 232.989 104.460  19
  -5   6 -11 384.864 176.302   5
  -6  -5  11 223.457 123.181  19
  -6   5 -11 282.944 167.399  19
   5   6 -11 352.407 238.978  18
   6   5 -11 586.519 344.403  18
  -5   6 -11 355.730 142.629  18
   5  -6  11 303.778 192.651  17
  -6  -5  11-142.931 270.113  16
   5  -6  11 250.476 112.368   1
   6  -5  11 286.193 67.0143  16
   6   5 -11 361.738 320.361   1
  -6   5 -11 364.889 275.780   4
   6  -5  11 445.223 272.595   8
   6   5 -11 228.775 96.1178   8
  -5   6 -11 354.309 223.187   4
   5  -6  11 132.435 148.097   8
  -5  -6  11 2.02750 58.8237  17
  -6  -5  11 21.7225 52.0200   6
   5   6 -11 362.850 212.430   3
   6  -5  12 261.717 222.786  14
   5   6 -12 41.8465 83.8498   3
   5  -6  12 79.9026 122.187  14
  -5  -6  12-48.6382 14.9377   6
   6  -5  12 128.193 166.544   6
  -5   6 -12 75.2271 157.773   3
  -5   6 -12 176.547 186.372  13
   6   5 -12 94.1224 80.6691   3
   5  -6  12 37.1879 86.8578   6
  -6   5 -12 180.613 187.146  13
   5   6 -12 273.645 215.691  13
  -6   5 -12 99.4484 127.899   3
   6   5 -12 250.093 169.117  13
  -5  -6  12 116.273 249.602  17
  -5  -6  12 143.550 93.2636  19
   5  -6  12 148.626 104.812   8
  -6   5 -12-80.6000 95.9743  12
  -5   6 -12 86.0359 115.085  12
   6   5 -12 508.499 469.191  11
  -6   5 -12 125.314 48.6705  11
  -6   5 -12 77.9196 144.904   5
   6   5 -12 481.022 451.158  20
  -5   6 -12 211.832 153.387   5
  -6  -5  12 270.513 317.184   2
   5   6 -12-117.932 228.752   1
  -6   5 -12 193.766 122.355  19
   5   6 -12 47.5608 196.806  18
   6   5 -12 271.957 242.576  18
   6  -5  12 125.994 175.594   8
   5  -6  12 171.203 97.4622  17
  -5   6 -12 93.3105 63.4239  19
  -6  -5  12 349.479 344.079  17
  -6   5 -12 185.885 176.463   4
   6  -5  12 62.2808 41.7397  17
   6  -5  12 10.7104 42.3560   1
  -5   6 -12 115.931 149.872   4
   6   5 -12 96.5418 44.2313   1
   5  -6  12-284.493 465.751  16
   6  -5  12 208.892 235.733  16
   5  -6  12 84.7825 77.1169   1
  -6  -5  12-64.0575 155.883  16
  -6  -5  12 25.3308 24.4117  19
  -6  -5  12-188.488 232.177   6
  -5   6 -12 155.373 86.8676  18
   5  -6  13 802.767 337.089  14
   6   5 -13 706.419 504.680  20
  -5  -6  13 161.895 175.175   6
   5   6 -13 618.550 308.117   3
   6  -5  13 1074.59 494.428   6
   6   5 -13 844.170 305.423   3
   5  -6  13 913.423 446.483   6
  -5   6 -13 516.006 305.884   3
  -5   6 -13 550.441 377.945  13
   5   6 -13 596.368 345.247  13
   6   5 -13 870.961 405.992  13
  -6   5 -13 219.464 102.771   3
   5   6 -13 990.111 489.244  18
  -6   5 -13 361.882 236.670  12
  -5   6 -13 492.854 296.004  12
  -6   5 -13 608.044 258.856  19
   6   5 -13 908.896 451.876  11
  -6   5 -13 674.003 153.038  11
   6  -5  13-30.5031 110.786   1
  -5   6 -13 673.337 258.852   5
  -6   5 -13 1174.25 604.718  20
  -5  -6  13 404.727 378.234   2
  -6  -5  13 831.996 506.296   2
  -6  -5  13 265.607 127.940  19
  -5   6 -13 512.095 234.461  19
   5   6 -13 111.949 110.859   1
  -5   6 -13 751.372 180.923  18
   6   5 -13 1095.51 475.073  18
  -6   5 -13 439.351 260.900   4
  -5  -6  13 473.244 470.433  17
  -6  -5  13 762.117 463.806  17
  -5   6 -13 758.576 337.964   4
  -5  -6  13 398.105 135.527  19
   6  -5  13 541.175 256.446   8
  -5  -6  13-139.100 326.328  16
   5  -6  13 264.857 227.841  16
   5  -6  13 438.339 220.344   8
  -6  -5  13 456.321 285.748  16
   6  -5  13 483.019 323.346  16
   6   5 -13 255.607 167.252   1
   5   6 -13 866.989 477.016   7
   5   6 -13 884.365 457.533  15
   5  -6  13 857.185 241.109  17
   6  -5  13 811.832 341.262  14
   5  -6  14 60.6391 109.618  14
   6   5 -14 96.8954 165.330  18
   5   6 -14 1.46649 17.2006   3
   5  -6  14 126.323 226.902   6
   6   5 -14-0.32146 58.3936   3
  -5   6 -14-156.665 235.226  13
  -5   6 -14-21.1887 72.5681   3
  -6   5 -14-11.1466 95.9983  13
   5   6 -14-81.7408 146.467  13
   6   5 -14 176.036 244.330  13
  -6   5 -14-128.040 199.345   3
  -6   5 -14 9.23581 44.1772  12
  -5   6 -14 109.340 192.471  12
   5   6 -14 496.810 467.870  11
  -5   6 -14 199.068 170.899  11
   6   5 -14 70.1150 116.598  11
   6   5 -14-119.809 284.576  20
  -6   5 -14 87.9972 72.5113  11
   6   5 -14 628.612 511.539  10
  -6   5 -14 31.4780 68.7730   4
  -6  -5  14-30.0354 210.508   2
  -5   6 -14-16.9991 71.1575  19
  -6  -5  14-120.323 152.682  19
   5   6 -14-29.6410 215.938   1
  -5  -6  14-158.942 170.134   2
   5   6 -14 4.99656 57.4465  18
   6  -5  14 69.5401 163.220   6
  -5   6 -14 23.2770 25.3531  18
  -5   6 -14 56.1291 141.958   4
  -5  -6  14-87.6578 243.246  17
  -6  -5  14 179.124 201.358  17
   5  -6  14 18.9983 44.6996  17
   6  -5  14 111.210 142.772   8
  -6   5 -14 471.200 377.420  10
   5  -6  14-58.0009 130.161   8
  -5  -6  14-99.0150 186.782  16
  -6   5 -14 2.74709 39.7038  20
   5  -6  14-152.171 273.889  16
  -6  -5  14-111.961 148.390  16
   6  -5  14-40.6851 137.895  16
   6   5 -14-44.4947 162.364   1
   5   6 -14-215.550 238.795   7
   5   6 -14-320.354 383.024  15
  -6   5 -14 606.388 593.820  15
  -6   5 -14-96.8716 101.219  19
   6  -5  14 89.8696 147.984  14
  -5  -6  14 65.8534 80.7731   6
  -5  -6  15 377.149 389.599  17
   5   6 -15 108.143 77.2841  20
  -6   5 -15 430.364 275.895  10
   6  -5  15 745.209 389.491   6
   5  -6  15 388.216 293.382   6
  -6   5 -15 44.3097 243.639   4
   5   6 -15 564.745 306.213   3
  -5   6 -15-27.9161 232.819  13
   6   5 -15 631.984 335.294   3
  -6   5 -15 204.882 203.122  13
   5   6 -15 432.405 294.003  13
  -5   6 -15 369.627 310.544   3
   6   5 -15 593.522 426.617  13
  -5   6 -15 470.585 314.870   4
  -6   5 -15 280.758 211.760   3
  -6   5 -15 216.473 185.821  12
  -5   6 -15 282.518 183.787  12
   5   6 -15 192.401 94.1142  12
   5   6 -15 311.065 58.9034  11
  -5   6 -15 943.873 289.037  11
   6   5 -15 726.924 510.148  11
  -6   5 -15 545.783 362.839  20
   5   6 -15 516.341 288.952  18
  -6   5 -15 237.974 19.0216  11
   6   5 -15 88.7227 110.952  20
  -6   5 -15 391.259 257.546  19
  -5   6 -15 475.650 211.111  19
  -6   5 -15 1115.81 550.159   9
   6   5 -15 361.279 175.151  10
  -6  -5  15 147.582 112.157   2
   6   5 -15 523.758 314.349  18
   5   6 -15 180.019 162.097   1
  -6  -5  15 686.243 632.134  17
   5  -6  15 680.803 225.277  17
   6  -5  15 494.777 238.788   8
   5  -6  15 500.416 289.146   8
  -5  -6  15 293.346 178.307  16
   5  -6  15 491.292 393.791  16
  -6  -5  15 461.900 378.283  16
   6  -5  15 408.772 314.863  16
   6   5 -15 327.791 351.968   1
  -6   5 -15 818.278 682.554   7
  -6   5 -15 755.834 569.681  15
  -5  -6  15 342.951 308.298   2
  -5  -6  15-157.461 201.864   6
   6  -5  15 755.435 353.217  14
   5  -6  15 791.860 318.144  14
   6  -5  16 315.007 269.473   6
   5  -6  16 363.054 189.438   6
   6   5 -16 2304.49 811.251  13
   6   5 -16 2456.19 847.405   1
  -5   6 -16 630.443 386.348  13
  -6   5 -16 111.431 190.746  13
   5   6 -16 1390.68 573.125  13
  -5   6 -16 602.616 455.025   3
  -6   5 -16 109.160 195.459  12
  -6   5 -16 159.876 265.947   3
  -5   6 -16 211.163 407.688  12
  -6   5 -16 215.145 147.690  19
  -6  -5  16 3663.60 1159.14   2
   5   6 -16 4268.08 1398.29  10
   5   6 -16 2092.24 865.026  11
  -5   6 -16 438.355 209.948  11
   6   5 -16 3443.83 1417.51  20
  -5   6 -16 678.642 594.220  20
   5   6 -16 1940.34 824.617  20
  -6   5 -16 76.0403 76.8264  20
  -5   6 -16 414.468 248.230  19
  -6   5 -16 269.878 290.255   9
   6   5 -16 1594.48 823.538  18
   5   6 -16 1082.36 662.778  18
  -5  -6  16 1453.65 862.035   2
   5   6 -16 1389.65 762.030   1
  -5   6 -16 7.16901 121.767   4
   6  -5  16 248.186 251.593   8
   5  -6  16 225.962 230.435   8
  -5  -6  16 1418.03 651.124  16
   5  -6  16 8.80421 47.6509  16
   6  -5  16 201.428 311.872  16
  -6   5 -16-83.3016 248.244  10
  -6   5 -16 348.450 616.960   7
  -6   5 -16 204.783 228.334  15
  -5   6 -16 1120.51 769.897  15
   5   6 -16 2078.28 606.212   3
  -5  -6  16 1173.61 621.549   6
   6  -5  16 314.523 284.281  14
  -6   5 -17 401.042 558.917  20
   6  -5  17 121.504 261.466   6
   5  -6  17-73.7764 199.437   6
   5   6 -17-66.8792 37.3753   3
  -5   6 -17-91.3993 211.678  13
  -6   5 -17-52.4422 205.892  13
   5   6 -17 192.898 307.780  13
   6   5 -17 469.140 389.540  13
   6   5 -17-63.5336 116.313   3
  -5   6 -17 8.22626 107.372   3
  -6   5 -17 64.0094 244.281  12
  -5   6 -17 99.7290 210.853  12
  -6   5 -17 53.4235 237.125   3
   5   6 -17-61.1717 65.4610  11
   6   5 -17 471.041 433.869  11
  -5   6 -17 119.978 123.579  11
  -5   6 -17 179.560 72.6806  20
   5   6 -17-77.9592 52.5146  20
   6   5 -17 136.211 433.373  20
  -5   6 -17 644.901 513.232  10
   5   6 -17 208.989 388.451  10
  -6   5 -17 164.341 457.338  10
   6   5 -17 480.482 578.509  10
  -6   5 -17 33.1115 42.0077  19
  -5   6 -17 120.004 139.804  19
   6   5 -17 1122.60 793.654   9
  -6   5 -17-210.663 106.620   9
   5   6 -17-40.3818 130.280  18
   6   5 -17 25.9881 32.4433  18
   5   6 -17 143.227 237.060   1
  -5  -6  17 172.062 317.008  17
  -6  -5  17 21.3928 286.043  17
  -5  -6  17-158.694 283.965   2
   6  -5  17-26.1539 104.258   8
   5  -6  17 129.162 220.458   8
  -5  -6  17 109.361 227.922  16
   5  -6  17 98.9436 301.563  16
  -6  -5  17-66.8502 125.886  16
   6  -5  17 327.607 389.773  16
  -6   5 -17 350.953 525.775   7
  -6  -5  17-214.190 164.020   2
  -5   6 -17 541.897 697.867   7
  -6   5 -17 114.317 290.134  15
  -5   6 -17 106.686 410.892  15
   6   5 -17 155.324 266.709   1
  -5  -6  17-33.0609 198.837   6
   6  -5  17-49.6061 140.070  14
   5  -6  17 205.799 169.139  14
  -6  -6   4-301.587 553.524  17
  -6  -6   5-32.7049 350.455  17
   6  -6   5 43.5910 111.426   6
  -6   6  -5-147.468 236.897  12
   6   6  -5-354.517 420.059  18
   6   6  -6 216.590 57.8427  13
   6  -6   6 177.225 221.771   6
   6   6  -6-240.788 583.973   1
  -6   6  -6 632.929 304.772  12
   6   6  -6 504.479 347.889  18
  -6  -6   6-145.330 269.683  17
   6  -6   6-133.951 285.231   8
   6  -6   7 28.7781 60.8509  14
   6   6  -7 9.55966 51.4004  13
   6   6  -7-34.8925 143.146  18
  -6  -6   7 134.990 272.782  17
   6  -6   7 14.9990 48.1657   6
  -6   6  -7 2.78826 31.1456  12
   6   6  -7-198.562 349.577   1
   6  -6   7-149.244 249.748   8
  -6   6  -7-105.423 209.515   4
  -6   6  -7 12.4785 27.5053   3
  -6   6  -8 292.452 272.568   3
   6   6  -8 447.268 288.199  13
   6  -6   8 229.248 272.720   6
   6  -6   8 46.0556 17.4341   1
  -6  -6   8-42.7465 103.404   6
  -6   6  -8 315.676 230.785  12
   6   6  -8 78.1783 113.923   1
  -6   6  -8 72.1000 145.288  19
  -6   6  -8 128.738 64.8776   5
   6   6  -8 307.682 290.298  18
   6  -6   8 145.638 68.3434   8
  -6   6  -8 214.355 177.357   4
  -6  -6   8 164.690 297.070  17
  -6   6  -9 14.8766 60.5672   5
   6  -6   9 31.5597 107.150  14
   6   6  -9-0.37124 108.103  13
   6  -6   9 11.4436 70.9840   6
  -6  -6   9 25.2121 50.5129   6
  -6  -6   9-24.9310 88.6215  19
  -6   6  -9-87.5133 124.717  12
   6   6  -9-15.9423 128.630   1
   6   6  -9-82.8518 149.541   8
  -6   6  -9-51.4977 145.969  19
  -6  -6   9 95.6601 214.308  17
   6  -6   9-39.3338 124.055   8
   6   6  -9-57.0793 51.4334  18
  -6   6  -9-29.7184 43.5336   4
   6  -6   9 1.14832 29.7425   1
  -6   6  -9-8.24176 25.6478   3
   6  -6  10 53.2769 135.453  14
  -6   6 -10-49.6143 161.702   3
  -6  -6  10 22.7606 18.4739   6
   6   6 -10-59.0033 30.0944  13
   6  -6  10 15.2920 82.0493   6
  -6   6 -10 116.554 185.017  12
  -6  -6  10 24.5445 137.805  19
   6   6 -10-15.0938 84.2187   1
  -6   6 -10 57.6657 97.9718   5
   6  -6  10 0.02508 68.8855  17
   6   6 -10-12.4335 143.604  18
   6   6 -10 49.9484 85.3124   8
  -6  -6  10-10.8876 164.148  17
   6  -6  10 1.64268 20.6774   1
  -6   6 -10-68.6761 133.635  19
   6  -6  10-20.7771 84.7569   8
  -6   6 -10-8.08146 66.1897   4
   6  -6  11-6.98473 82.2428  14
  -6  -6  11-33.4626 51.5675   6
  -6   6 -11-6.04943 21.3468   3
  -6   6 -11-122.386 250.310  13
   6   6 -11 50.7628 93.3409  13
   6  -6  11 26.5168 154.048   6
  -6   6 -11 9.80138 94.0094  12
  -6   6 -11-6.71284 92.5874  19
  -6   6 -11 8.02070 47.2278   5
  -6  -6  11 110.109 148.525  19
   6   6 -11-46.7388 80.0815   1
  -6   6 -11-2.37649 26.6672  18
   6   6 -11 69.3877 152.721  18
   6  -6  11 40.7590 94.7998  17
  -6  -6  11-96.1500 201.944  17
   6   6 -11 5.77839 50.9743   8
  -6   6 -11-19.4610 140.445   4
   6  -6  11-27.3416 74.7806   8
   6  -6  11 74.3583 79.1640   1
   6   6 -11-63.8560 121.453   3
  -6  -6  12 63.3453 86.0467   6
   6  -6  12 471.560 264.256  14
  -6   6 -12 402.074 321.566   3
  -6   6 -12 23.2021 124.989  13
   6  -6  12 440.906 326.493   6
   6   6 -12 766.545 368.776  13
  -6   6 -12 550.133 299.833  12
  -6   6 -12 467.353 228.556  19
   6   6 -12 411.544 266.638   1
   6  -6  12 363.253 150.134   1
  -6   6 -12 555.350 235.131   5
  -6  -6  12 376.405 161.877  19
   6   6 -12 477.072 298.579  18
   6  -6  12 741.253 209.085  17
  -6  -6  12 153.941 282.713  17
  -6   6 -12 557.264 303.370   4
   6  -6  12-189.911 545.169  16
   6  -6  12 450.848 236.706   8
   6   6 -12 585.663 328.466   7
   6   6 -12 381.843 249.615  15
   6   6 -12 431.301 232.017   3
   6   6 -13-0.61227 54.0539   3
   6  -6  13 64.4378 29.4873  14
   6  -6  13 135.719 246.295   6
  -6   6 -13-55.6544 47.2564   3
  -6   6 -13 25.0218 64.7870  13
   6   6 -13-90.0412 125.963  13
  -6   6 -13-79.3655 112.076  12
  -6   6 -13 101.654 164.549  11
  -6   6 -13-80.7124 58.7200   5
  -6  -6  13 151.653 272.492   2
  -6  -6  13 36.3087 80.1862  19
   6   6 -13-128.811 206.856   1
  -6   6 -13 29.9792 105.341  19
   6   6 -13-181.512 207.262  18
  -6  -6  13-5.25923 108.374  17
  -6   6 -13 33.6898 29.5857   4
   6  -6  13 15.9902 105.207   8
   6  -6  13 81.6306 117.895   1
  -6  -6  13 90.6701 134.971   6
   6  -6  14 702.580 319.332  14
   6   6 -14 567.763 309.666   3
   6  -6  14 893.464 514.762   6
  -6   6 -14 117.002 86.8598  13
  -6   6 -14 302.834 253.490   3
   6   6 -14 1169.72 576.876  13
  -6   6 -14 355.886 248.831  12
   6   6 -14 244.825 222.114  11
  -6   6 -14 473.854 225.088  19
  -6   6 -14 775.333 246.858  11
   6   6 -14 429.048 102.310  20
  -6   6 -14 352.002 196.385   4
  -6  -6  14 204.125 272.230   2
   6   6 -14 636.504 403.371  18
   6   6 -14-76.1670 167.764   1
   6  -6  14 517.474 273.366   8
   6  -6  14 210.859 91.4903  16
  -6  -6  14 347.039 550.680  17
  -6  -6  14-193.983 215.501   6
  -6  -6  14-243.552 397.944  16
   6  -6  15-102.201 29.5466   6
   6   6 -15 1605.63 848.465  13
  -6   6 -15-42.9756 189.833  13
  -6   6 -15-159.171 240.634   3
  -6   6 -15-55.8600 224.931  12
   6   6 -15 1924.36 1046.86  11
  -6   6 -15 567.643 429.536  20
   6   6 -15 2029.38 988.841  20
  -6  -6  15 1523.47 1004.13   2
   6   6 -15 1921.14 808.159   1
  -6   6 -15 203.549 192.866   4
  -6   6 -15 5.81838 118.802  19
   6  -6  15-68.8883 60.3884   8
   6   6 -15 1296.01 682.418  18
  -6  -6  15 619.848 500.747  16
   6  -6  15 171.379 356.240  16
   6  -6  15-78.9885 114.659  14
   6  -6  16 71.7073 95.9075   6
   6   6 -16 202.023 200.288   3
  -6   6 -16 363.076 319.466  13
   6   6 -16 331.833 350.567  13
  -6   6 -16-51.9608 205.375   3
  -6   6 -16 216.174 245.925  12
   6   6 -16 197.721 241.797  11
   6   6 -16 515.235 423.479  20
  -6   6 -16 1033.05 604.522  10
   6   6 -16 300.469 493.806  10
  -6  -6  16 376.977 491.197   2
   6   6 -16 94.6701 97.2733  18
  -6   6 -16 72.7866 70.7348   4
   6   6 -16 88.5280 254.583   1
  -6  -6  16 700.656 618.495  17
   6  -6  16 253.820 268.263   8
  -6  -6  16 312.781 282.723  16
   6  -6  16 531.382 496.374  16
  -6   6 -16 16.2566 99.1644  19
  -6   6 -16 606.462 417.722  20
  -6   6 -16 934.940 819.852   7
  -6   6 -16 938.642 740.915  15
   6  -6  16 233.835 182.807  14
   7   0   0-6.63683 29.4974   6
  -7   0   0-81.1330 114.170  12
   7   0   0 0.53331 17.6832  11
   7   0   0 65.1258 152.164   8
   7   0   0 17.6451 80.9159   1
  -7   0   0-47.4746 105.223  19
  -7   0   0 20.8282 126.823   5
  -7   0   0 38.2275 84.8847   2
   7   0   0-23.0558 67.2846  18
  -7   0   0-8.30795 56.4776  17
  -7   0   0-25.4954 146.838   4
   7   0   0-69.1295 80.7041  14
  -7   0   0 13.2490 11.5843   3
   7   0   1 632.161 246.980   6
   7   0  -1 588.904 139.684  13
   7   0  -1 591.889 216.393   6
  -7   0  -1 150.132 78.3798   3
  -7   0  -1 418.380 210.580  12
  -7   0   1 345.920 140.682  12
   7   0   1 541.644 268.792   1
  -7   0  -1 347.342 210.482   4
   7   0   1 789.624 182.146  11
   7   0  -1 648.548 186.784  11
  -7   0   1 481.226 258.518   5
  -7   0  -1 377.590 199.372   2
   7   0  -1 376.294 179.506  18
  -7   0   1 521.362 267.975  19
  -7   0   1 276.159 168.220  17
   7   0   1 551.415 200.003  18
  -7   0   1 531.912 221.573   2
  -7   0  -1 227.285 188.749   5
   7   0   1 531.942 264.002   8
  -7   0  -1 336.703 205.255  19
   7   0  -1 443.517 215.289   8
  -7   0   1 295.968 180.855   4
  -7   0  -1 623.772 331.018   7
  -7   0  -1 418.754 274.066  15
  -7   0  -1 290.402 181.391  17
   7   0  -1 502.199 264.944   1
   7   0   1 451.656 269.191  14
   7   0  -1 499.189 246.806  14
   7   0  -2 24.1283 85.6062  14
   7   0   2 67.8494 95.3509   6
   7   0   2-92.8206 119.411   1
   7   0  -2-14.5522 32.2950   6
  -7   0  -2 80.9635 117.728   3
  -7   0   2-32.8429 38.2774   2
  -7   0   2-12.7930 42.3109  12
   7   0   2 26.5666 35.9315  11
  -7   0  -2-28.6393 38.4945   5
   7   0  -2-4.63968 31.0197  11
  -7   0  -2 1.93306 63.1639  19
  -7   0   2-47.8989 98.2154  19
   7   0   2-21.2730 61.3516  18
   7   0  -2 55.2804 62.4579  18
  -7   0  -2-37.5661 40.6451   4
   7   0   2 39.0792 102.152   8
  -7   0  -2 6.09430 88.7487  17
  -7   0  -2-27.8997 103.667  15
   7   0  -2-33.8513 9.94940   1
  -7   0   2-7.69766 11.8926  17
   7   0  -2 7.05726 12.4250   8
  -7   0   2 98.3981 132.534   4
   7   0   2-13.0334 43.5726  16
  -7   0  -2 40.9296 138.623   7
   7   0   2-52.1620 116.018  14
  -7   0   2-63.0682 128.271   5
   7   0  -3 867.010 318.970  14
   7   0   3 756.683 284.163   6
   7   0   3 1063.59 408.795   1
  -7   0  -3 439.522 281.657  19
  -7   0  -3 429.938 279.913   4
  -7   0  -3 499.758 279.220   5
  -7   0   3 969.553 316.164   2
   7   0   3 946.372 345.438   8
  -7   0   3 875.373 334.244  19
   7   0  -3 841.123 247.810  11
   7   0   3 928.984 232.879  18
  -7   0   3 896.442 317.439   4
  -7   0   3 871.025 337.008   5
   7   0  -3 637.799 258.979  18
  -7   0  -3 369.388 167.344  17
  -7   0   3 549.501 281.571  17
   7   0  -3 811.290 279.892   8
   7   0   3 880.154 240.768  16
  -7   0  -3 562.685 320.820   7
  -7   0  -3 374.053 231.143  15
   7   0  -3 873.641 326.338   1
   7   0  -3 984.621 231.042   6
   7   0   3 927.866 386.186  14
   7   0   4 3.61520 49.4078   6
  -7   0   4 47.1389 78.6177   2
   7   0  -4 96.9485 107.556  14
   7   0  -4 69.8757 107.571   1
   7   0  -4-6.34760 39.9109   6
   7   0  -4-57.6119 115.715  11
  -7   0  -4 26.9638 145.684  19
  -7   0   4 2.60261 43.0436  19
   7   0   4 74.6888 80.5194  18
   7   0  -4 9.32302 80.8934  18
  -7   0  -4 29.1483 52.1324   4
   7   0   4 16.3904 12.2822   8
  -7   0  -4 31.5068 78.9192  17
  -7   0   4 48.4178 33.6327  17
  -7   0   4 23.1170 36.9764   5
   7   0  -4 10.1750 101.473   8
  -7   0   4 29.4314 95.4528   4
   7   0   4-4.46808 50.7088   1
   7   0   4-42.3522 80.4395  16
  -7   0  -4-59.3739 217.013   7
  -7   0   4 31.6014 34.1068  16
  -7   0  -4-493.152 284.947  15
   7   0   4-36.8016 102.076  14
   7   0  -5 54.2802 78.1488  14
   7   0  -5 13.7868 26.8170   6
   7   0  -5 60.8636 102.673   1
  -7   0  -5 11.6695 110.587  19
  -7   0  -5-179.387 282.843  15
   7   0  -5 54.3348 47.9759  11
  -7   0   5-73.5351 110.472   5
  -7   0   5 131.976 123.235  19
   7   0   5 80.3715 114.507  18
  -7   0  -5-83.1180 183.366   4
  -7   0  -5 182.255 168.016  17
   7   0   5 192.146 235.940   8
   7   0   5 0.38227 113.137   1
  -7   0   5 84.0152 63.3908  17
  -7   0   5 138.577 137.105   2
   7   0  -5 65.7580 80.2589   8
  -7   0   5 137.372 129.104   4
  -7   0  -5-168.077 284.910   7
   7   0   5 74.2354 92.8026  16
  -7   0   5 50.8954 47.1830  16
   7   0  -5 45.3775 41.7738  18
   7   0   5 131.080 223.956  14
   7   0   5 144.884 181.920   6
   7   0  -6 78.9636 91.1778  14
  -7   0  -6 56.1335 118.297  17
   7   0  -6-122.175 124.536   6
  -7   0   6 40.3047 68.2306  16
   7   0   6-13.4143 60.8695  18
  -7   0  -6 69.9421 185.459  19
   7   0  -6-21.8973 32.2454  11
  -7   0   6 27.8176 52.8152   5
  -7   0   6-5.62717 52.7526  19
   7   0   6-108.509 192.474   1
   7   0  -6-31.2246 118.323   1
   7   0  -6 0.59432 48.2025  18
   7   0   6 41.7297 60.9000   8
  -7   0   6-59.3431 106.769  17
   7   0  -6-130.848 114.074   8
  -7   0   6 90.3950 130.523   2
  -7   0   6-17.4578 97.1597   4
   7   0   6 9.85746 100.162  16
   7   0   6-30.6520 57.8293  14
   7   0   6 8.82879 63.2667   6
   7   0  -7 106.136 103.886  14
   7   0  -7-119.843 187.569  11
   7   0   7 146.617 62.9277   1
  -7   0   7 263.335 161.901  19
   7   0  -7 144.298 145.639   1
   7   0   7 301.720 225.761   8
   7   0  -7 114.355 116.968  18
  -7   0   7 274.276 186.293   5
  -7   0  -7-8.15650 89.1653  17
  -7   0  -7-90.4680 159.304  19
  -7   0   7 193.333 192.212  17
  -7   0   7 213.780 159.593   4
  -7   0   7 203.199 175.802   2
   7   0   7 173.907 123.276  16
  -7   0   7 151.567 99.1595  16
   7   0   7 166.603 168.725  14
   7   0   7 154.153 66.6081   6
   7   0  -8 185.309 147.435  14
   0   7  -8-116.705 340.990  13
   7   0   8-156.387 367.722   1
   7   0  -8-110.906 176.677  11
  -7   0   8 75.9461 132.047   5
  -7   0   8-22.5554 110.089  19
   7   0  -8-6.32006 65.9928  18
   7   0   8 56.0483 173.701   8
  -7   0   8 137.256 159.966  17
   7   0  -8 128.209 155.473   1
   7   0   8 4.83502 105.186  16
  -7   0   8 10.5365 70.4262   4
  -7   0  -8 578.855 382.822  19
  -7   0   8-39.8697 86.7269  16
  -7   0   8-54.5471 107.165   2
   7   0   8 116.857 198.820  14
   7   0   8 60.1048 152.927   6
   7   0  -9 21.2720 85.3985  18
   7   0  -9-59.6530 84.9079  14
   0   7  -9-102.502 239.269  13
   0  -7   9 59.1598 141.350   6
   7   0  -9 0.94010 107.568  11
  -7   0  -9-49.2879 116.845  19
  -7   0   9 37.6533 102.856   5
   7   0   9-28.6836 63.9713   8
  -7   0   9-42.8896 91.8771  17
   7   0   9 79.7251 90.8943  16
  -7   0   9-84.2523 150.048   4
  -7   0   9 15.4946 79.2222  16
  -7   0   9-39.5343 43.3352   2
   7   0  -9 36.9200 68.1594   1
   7   0   9-9.95915 173.917  14
   7   0   9 31.6977 91.3678   6
   0   7  -9 14.4419 55.6128   3
   7   0 -10 24.0415 78.0557  14
   7   0 -10 24.1089 76.9156   1
   0   7 -10-16.9767 14.2893  13
   0  -7  10 32.0329 77.9530   6
   7   0 -10 15.7000 151.750  11
  -7   0 -10-40.3591 204.116  19
  -7   0  10-3.35452 25.3439   5
   7   0 -10 2.64304 92.3509  18
   0  -7  10 45.8183 211.790  17
   7   0  10-84.1675 78.5612   8
  -7   0  10-92.6827 145.901  17
   7   0  10 60.1158 141.013  16
  -7   0  10 6.54336 17.7529  16
  -7   0  10 2.65147 87.1328   2
   7   0  10-33.8822 87.4409  14
   7   0  10-18.3654 83.7736   6
   0   7 -10 31.5976 110.480   3
   7   0 -11 504.599 250.836  14
   0  -7  11-78.8743 144.789  17
   0   7 -11 1155.61 475.960  13
   0  -7  11 514.374 297.677   6
   0   7 -11 1081.80 351.350  12
   7   0 -11 486.840 272.599   1
   7   0 -11 180.208 141.857  11
  -7   0 -11 21.9598 168.377  19
  -7   0  11 992.737 357.622   5
   7   0  11 1185.95 516.599   8
   7   0 -11 181.853 153.991  18
  -7   0  11 916.987 410.280  17
   7   0  11 941.818 416.194  16
  -7   0  11 492.070 249.223  16
   0   7 -11 1127.70 402.463  18
  -7   0  11 1143.03 436.605   2
   0   7 -11 1434.07 487.530   3
   7   0  11 855.623 435.976  14
   7   0  11 1149.38 485.610   6
   0   7 -12 41.6333 133.837   3
   7   0 -12-46.6255 79.0043  14
   0   7 -12 12.9657 86.6202  18
   0   7 -12 115.373 199.745  13
   0  -7  12-63.6960 112.643   6
   0   7 -12-14.9234 37.3308  12
   7   0 -12-86.9322 86.0174   1
  -7   0 -12-26.3014 203.341  19
  -7   0  12-57.7634 89.8716   5
   7   0 -12-21.2657 194.163  11
   7   0 -12-5.44165 107.500  18
   7   0  12 98.5735 156.031   8
   0  -7  12-56.4228 212.520  17
   7   0  12 201.522 289.905  16
  -7   0  12 20.4615 83.4442  16
  -7   0  12 73.9975 116.709   2
   7   0  12-308.034 462.027  14
   7   0  12 34.7738 109.890   6
  -7   0  12-92.6384 160.692  17
   7   0 -13 569.872 264.563  14
   0   7 -13 1705.85 599.319  13
   0  -7  13 1238.32 427.929   6
   7   0 -13 527.255 281.860   1
   0   7 -13 2034.91 491.013  12
  -7   0  13 1695.64 475.729   5
  -7   0  13 1612.94 587.651   2
   7   0 -13 19.9981 234.245  11
  -7   0 -13-443.252 438.989  19
   0   7 -13 1936.14 534.558  18
   0   7 -13 1806.90 292.469   4
   7   0 -13 237.577 67.6796  18
   7   0  13 1532.50 610.050   8
   0  -7  13 826.621 415.872  17
  -7   0  13 1539.86 586.968  17
   0  -7  13-517.887 357.899  16
   7   0  13 1333.15 530.612  16
   0   7 -13 1829.12 565.450   3
   7   0  13 1239.11 516.284   6
  -7   0  13 828.711 357.567  16
   7   0 -14-10.7022 70.5148  14
   0  -7  14-5.60380 64.6377  14
   0   7 -14-76.5337 138.708   3
   0  -7  14-15.5837 115.790   6
   0   7 -14-47.0927 160.088  13
   0   7 -14-58.0137 108.262  12
   0   7 -14-50.0127 151.884  18
  -7   0 -14-280.628 336.644  19
  -7   0  14 3.86029 24.0913   5
   7   0 -14-6.12116 158.730   1
   7   0 -14-70.6288 265.312  18
   7   0  14-13.8409 75.8550   8
   0   7 -14 39.0357 32.2814   4
   0  -7  14-2.49935 122.899  17
  -7   0  14-236.253 327.835  17
   0  -7  14-370.891 373.577  16
   7   0  14 17.0846 86.1126  16
  -7   0  14 287.058 237.255  16
  -7   0  14-65.9080 125.189   2
   7   0  14-495.597 539.797   6
   7   0 -15 269.637 237.153   1
   7   0 -15 164.062 155.744  14
   0  -7  15 421.522 142.577  14
   0  -7  15 872.508 446.841   6
   0   7 -15 855.168 468.801  13
   0   7 -15 777.637 319.645  12
   0   7 -15 943.473 357.828  18
   7   0 -15-107.652 358.617  18
   7   0  15 513.103 354.201   8
  -7   0  15 657.104 298.964   5
   0  -7  15 936.511 449.247  17
  -7   0  15 437.199 210.995  17
   0  -7  15 372.539 295.529  16
   7   0  15 620.131 398.657  16
  -7   0  15 679.932 388.598   2
   7   0  15-810.617 471.689   6
   0   7 -15 1516.48 554.550   3
  -7   0 -15-597.214 503.842  19
   0  -7  16 267.040 278.637   6
   0   7 -16 11.3834 35.3877   3
   0   7 -16-140.633 204.904  13
   0   7 -16-18.5957 44.4008  12
  -7   0 -16-494.411 508.114  19
   0   7 -16 159.604 217.501  18
   7   0  16 7.37817 120.311   8
   0  -7  16-32.2647 178.759  16
   7   0  16-70.7120 159.768  16
  -7   0  16 295.436 297.026   2
   0  -7  16 221.753 283.487  17
   0  -7  17 262.245 213.762   6
   0   7 -17 415.228 331.779   3
   0   7 -17 177.660 315.002  13
   0   7 -17 100.398 192.430  12
   0   7 -17 100.295 166.204  11
  -7   0 -17-555.919 580.342  19
   0   7 -17 40.7892 161.005  18
   7   0  17-91.0574 92.2655   8
   0  -7  17-98.8535 271.031  17
   0  -7  17 197.257 227.093  16
   7   0  17 222.359 365.479  16
   0   7 -17 937.777 682.875  15
   0  -7  18-137.531 277.626   6
   0   7 -18 34.5287 116.060   3
   0  -7  18-32.1030 151.307  16
   0   7 -18-1.14151 155.670  13
   0   7 -18 35.9499 68.0401  12
   0   7 -18-43.7883 158.594  11
   0   7 -18 90.4425 288.225  20
  -7   0 -18-550.974 628.384  19
   7   0  18-63.3004 185.985   8
   7   0  18 355.122 575.634  16
   0   7 -18 150.192 444.885   7
   0   7 -18 75.4736 396.595  15
   0  -7  18 24.1781 128.673  17
   0   7 -18 8.98639 15.6754  18
   7   1   0 2125.27 512.399   8
   7   1   0 2347.09 609.214   1
   7  -1   0 1795.40 465.378   1
  -7   1   0 924.648 266.727  12
  -7   1   0 1775.72 482.594   5
  -7  -1   0 1096.15 393.759   5
  -7   1   0 1860.48 344.118   2
  -7   1   0 1842.69 501.321  19
  -7  -1   0 967.615 381.865  19
   7   1   0 2002.59 431.202  18
   7  -1   0 980.519 269.038  18
   7  -1   0 1834.24 464.230   8
  -7  -1   0 860.939 361.032   4
  -7  -1   0 882.084 324.798  17
  -7   1   0 729.515 263.591  17
  -7   1   0 1859.69 471.818   4
   7   1   0 984.310 298.478   6
   7  -1   0 2272.08 441.317   6
   7   1   0 1662.47 519.000  14
   7  -1   0 2036.75 498.448  14
   7  -1   1 723.156 281.204  14
   7  -1  -1 344.780 156.383  18
   7  -1  -1 594.088 270.124  14
   7   1  -1 391.143 142.177  13
   7  -1   1 836.437 269.953   6
   7   1  -1 694.154 305.593   1
   7  -1  -1 589.912 248.820   1
  -7  -1   1 492.861 179.060  12
  -7   1  -1 395.159 188.106  12
  -7   1   1 219.576 133.783  12
  -7  -1  -1 278.097 212.427   5
  -7   1  -1 802.720 214.338   2
  -7   1   1 708.466 219.187   2
  -7  -1   1 470.593 259.905   5
   7  -1   1-73.6963 115.718  11
   7  -1  -1-107.798 126.407  11
  -7   1   1 723.300 288.275   5
  -7   1  -1 618.464 283.938   5
  -7  -1   1 448.847 268.676   2
  -7   1  -1 584.853 286.186  19
  -7  -1   1 481.308 252.801  19
  -7   1   1 675.578 324.045  19
   7   1   1 683.003 294.849   8
   7   1   1 691.528 261.813  18
   7   1  -1 804.139 280.475  18
   7  -1   1 451.814 159.140  18
  -7  -1  -1 165.128 163.905   4
  -7  -1   1 543.194 274.150   4
  -7  -1  -1 411.839 209.644  17
  -7  -1   1 534.838 248.066  17
   7   1  -1 773.747 306.352   8
   7  -1   1 654.859 264.229   1
  -7   1  -1 257.615 122.407  17
   7  -1   1 563.680 258.836   8
  -7   1   1 288.217 135.034  17
   7  -1  -1 710.996 291.135   8
  -7   1  -1 541.722 265.992   4
  -7  -1  -1 204.129 75.0864  19
  -7   1   1 716.544 284.621   4
  -7  -1   1 36.6291 199.939   7
   7   1   1 587.138 324.170   1
   7  -1  -1 794.900 260.564   6
   7   1   1 769.836 346.297  14
   7   1   1 313.176 164.104   6
   7   1  -1 682.999 298.132  14
   7   1  -1 413.832 175.745   6
  -7   1  -1 46.1567 53.7043   3
   7  -1   2 534.986 253.713  14
   7  -1  -2 386.985 216.847  14
   7   1  -2 641.756 187.322  13
  -7   1  -2 215.441 122.200   3
   7  -1   2 603.489 242.134   6
   7  -1  -2 451.136 187.568   6
  -7   1  -2 235.994 149.319  12
  -7  -1   2 242.725 110.840  12
   7   1  -2 573.383 284.344   1
   7   1  -2 925.003 284.062  11
  -7   1  -2 364.797 135.415  20
   7  -1   2-110.148 117.855  11
  -7   1  -2 384.005 241.038   5
   7  -1  -2 464.827 246.458   1
   7   1  -2 44.7672 22.0774  10
  -7  -1   2 444.992 250.094  19
  -7   1  -2 269.340 192.145  19
  -7   1   2 391.116 207.441   5
  -7   1   2 420.877 221.448  19
  -7  -1   2 622.967 283.081   2
   7   1   2 411.196 187.527  18
   7   1  -2 562.561 242.843  18
   7  -1   2 298.618 129.506  18
   7  -1  -2 203.836 130.833  18
  -7  -1  -2-0.71377 211.529   4
  -7   1   2 274.353 149.414  17
   7   1   2 538.083 291.168   8
  -7  -1  -2 212.780 167.224  17
   7   1  -2 765.450 246.888   9
  -7  -1   2 393.826 233.448   4
  -7  -1   2 303.042 216.581  17
   7   1  -2 507.897 233.430   8
   7  -1   2 405.935 210.484   8
  -7   1  -2 477.814 170.088   2
  -7   1  -2 173.036 111.129  17
  -7   1  -2 327.180 198.818   4
   7  -1  -2 381.477 202.396   8
  -7  -1  -2 68.3800 109.907  19
   7   1   2 560.454 322.583   1
  -7   1   2 368.193 199.739   4
  -7  -1   2 217.467 107.739   7
   7   1   2 259.719 118.658  16
  -7   1   2 431.566 174.859   2
  -7  -1   2 58.5638 112.714  15
  -7  -1   2 290.262 200.341   5
   7   1   2 258.610 162.247   6
   7   1   2 322.420 255.800  14
   7  -1   2 489.910 243.874   1
   7   1  -2 502.789 254.781  14
   7   1  -2 275.032 123.749   6
   7   1  -3 335.529 128.744   6
   7  -1  -3 454.992 219.453  14
   7  -1   3 546.881 280.194   6
   7   1  -3 653.569 199.300  13
  -7   1  -3 174.606 105.636   3
  -7   1  -3 320.853 177.538  12
   7  -1  -3 351.852 156.987   6
   7  -1   3 398.416 238.928   8
   7   1  -3 822.991 271.459  11
   7  -1   3 504.821 250.447   1
  -7   1  -3 412.798 159.885  20
  -7   1  -3 425.069 247.810   5
  -7  -1   3 175.491 165.321   5
   7   1  -3 514.755 248.105   1
  -7  -1  -3 89.8108 171.252  19
  -7   1  -3 198.730 156.688  19
  -7  -1   3 188.684 155.363  19
   7   1  -3-252.181 152.135  10
  -7   1   3 367.469 222.036   5
  -7   1   3 409.259 208.513  19
   7   1  -3 371.537 158.919   9
  -7  -1   3 407.572 219.401   2
   7   1  -3 353.231 200.022  18
   7  -1   3 357.928 130.760  18
   7  -1  -3 205.095 132.678  18
  -7  -1  -3 24.2610 43.7308  17
   7  -1  -3 438.086 214.803   1
   7   1   3 372.964 249.926   1
   7   1   3 306.567 181.948  18
   7   1   3 297.938 231.529   8
  -7  -1   3 407.767 243.707  17
  -7  -1   3 276.626 178.128   4
  -7   1  -3 334.952 208.882   4
   7   1  -3 529.494 232.946   8
  -7   1  -3 75.5589 22.6429  17
  -7   1   3 177.085 153.652  17
   7  -1   3 107.156 124.918  16
   7  -1  -3 256.537 173.744   8
  -7   1   3 332.448 192.754   4
  -7  -1   3 322.497 161.872   7
   7   1   3 242.200 128.391  16
  -7  -1   3 271.940 138.485  15
  -7   1   3 382.038 188.856   2
   7   1   3 177.415 152.556   6
   7   1   3 314.743 232.057  14
   7   1  -3 355.757 210.629  14
   7  -1   3 519.155 248.287  14
   7   1  -4 35.4501 22.3682   6
   7  -1  -4 23.7142 20.2183  14
   7  -1   4 26.6770 80.6140   6
   7  -1   4 69.6569 109.002   1
  -7   1  -4 141.852 191.121  12
  -7   1  -4 8.31811 71.5908  19
  -7   1  -4 49.4259 102.364   3
   7  -1  -4-22.4913 74.5879   6
   7   1  -4 81.1231 68.4801  11
  -7   1  -4 143.258 172.584   5
  -7   1  -4 41.2390 29.3993  20
  -7  -1   4 5.84000 71.1450   5
   7   1  -4 7.69310 65.0028  18
  -7  -1   4 48.3299 6.97334  19
  -7   1   4 56.5031 105.061  19
  -7   1   4 64.9529 102.603   5
   7   1   4 6.34683 99.2827  18
  -7  -1  -4-49.9715 24.2474  17
   7   1  -4 134.254 145.653   1
   7   1  -4-72.9986 69.9359   9
   7   1   4-6.53766 120.447   1
   7  -1   4 22.6428 40.5060  18
  -7  -1   4 34.6788 83.2224   2
   7  -1  -4-8.69647 27.2870  18
   7   1   4 65.9129 166.111   8
  -7   1  -4 4.51764 62.8738   4
  -7  -1  -4 16.3714 129.004  19
   7  -1   4 24.1586 42.5593   8
  -7  -1   4 9.22732 50.1126  17
  -7   1  -4 41.0490 77.5955  17
  -7  -1   4 39.4648 135.859   4
   7   1  -4 53.6290 110.284   8
  -7   1   4-46.2752 68.8477  17
   7  -1   4 13.4980 39.2107  16
   7  -1  -4 8.83187 91.4808   8
  -7   1   4 39.1343 74.9486   4
   7   1   4 113.087 113.328  16
  -7  -1   4 124.712 110.632  15
  -7   1  -4 175.384 256.154  15
  -7   1   4 81.0577 104.538   2
   7  -1  -4 23.1770 57.3543   1
   7   1   4 96.1471 124.109   6
   7   1   4 40.2224 91.9418  14
   7   1  -4 8.95562 96.2222  14
   7  -1   4-41.0268 100.027  14
   7  -1  -5 138.211 119.266  14
   7  -1   5 365.374 216.779   6
   7   1  -5 220.262 87.5167   6
   7   1   5 217.425 202.986   1
  -7   1  -5 118.620 86.0242  20
   7  -1  -5 163.510 167.692   1
  -7  -1  -5 62.7795 94.9555  19
  -7   1  -5 233.267 194.535   5
   7   1  -5 200.271 160.094  11
  -7  -1   5 316.404 211.669   5
  -7   1   5 249.391 183.118   5
  -7   1  -5 247.719 234.488  19
  -7  -1   5 332.744 172.507  19
  -7   1   5 274.918 187.317  19
   7   1  -5 277.996 149.348   9
   7   1  -5 312.406 229.498   1
   7  -1   5 302.380 108.207  18
   7   1  -5 153.776 130.582  18
   7  -1  -5 16.0611 27.6465  18
  -7  -1  -5 56.5059 91.7799  17
   7   1   5 184.460 134.044   8
  -7  -1   5 300.064 199.346   2
  -7   1  -5 186.007 205.583   4
   7  -1   5 321.190 226.839   8
  -7  -1   5 159.551 105.625  17
  -7   1  -5 115.737 86.7308  17
  -7  -1   5 226.302 162.258   4
  -7   1   5 104.898 97.0060  17
   7   1  -5 383.247 181.568   8
  -7  -1   5 271.541 105.473  16
   7  -1   5 325.894 195.632  16
   7  -1  -5-71.5291 195.032   8
  -7   1   5 162.834 110.371   4
   7   1   5 188.042 154.902  16
  -7   1  -5 407.727 363.256   7
  -7   1  -5 355.074 292.626  15
  -7   1   5 275.047 174.951   2
   7   1   5 213.890 187.203   6
   7   1   5 279.845 244.644  14
   7  -1   5 381.126 262.235   1
   7  -1   5 340.850 275.833  14
   7   1  -5 376.270 214.955  14
   7  -1   6 291.296 172.931   6
   7  -1  -6 116.149 125.159  14
   7   1  -6 235.850 83.1728   6
  -7   1  -6 73.8986 78.9517  13
  -7   1  -6 73.5790 111.012   5
   7   1   6-80.0894 298.477   1
   7   1  -6 459.317 238.284  11
   7   1  -6 324.714 195.487  18
  -7   1  -6 131.146 140.905  19
  -7  -1   6 242.826 162.672  19
  -7   1   6 159.670 148.145  19
  -7   1   6 242.617 169.694   5
   7   1  -6 93.7479 95.7016   9
   7  -1  -6 67.5336 96.1633   1
   7  -1   6 253.695 85.9619  18
   7  -1  -6 0.80362 62.3667  18
   7   1   6 297.737 248.570   8
  -7   1  -6 32.6577 61.6627  20
  -7   1  -6 4.41934 117.884   4
  -7  -1   6 263.076 185.645   2
   7  -1   6 275.667 221.241   8
  -7   1  -6 83.4811 50.5534  17
  -7  -1   6 56.5154 36.9103  17
  -7   1   6 165.607 129.694  17
   7   1  -6 168.833 113.158   1
  -7  -1   6 232.084 150.234   4
   7   1  -6 256.600 147.431   8
  -7  -1   6 161.759 146.085   5
   7  -1   6 283.257 179.291   1
   7  -1   6 329.171 184.940  16
  -7  -1   6 233.227 111.789  16
  -7   1  -6 441.914 321.774   7
   7   1   6 171.229 146.269  16
  -7  -1  -6 146.915 227.157  19
  -7   1   6 36.8180 76.1044   4
  -7   1  -6 86.1701 104.731  15
   7   1   6 44.3362 140.599   6
   7   1   6 136.622 185.289  14
  -7   1   6 176.261 122.993   2
   7  -1   6 214.527 179.579  14
   7   1  -6 249.074 188.748  14
   7  -1   7 335.684 233.439   6
   7   1  -7-368.103 228.277   9
   7  -1  -7 68.0099 88.5941  14
   7   1  -7 90.1687 107.067  11
  -7   1  -7-93.8048 205.461  20
  -7  -1  -7-165.034 250.624  19
  -7  -1   7 213.011 195.833   5
  -7   1  -7 57.0858 116.187  19
  -7   1   7 181.994 179.634   5
   7  -1   7 331.210 96.8672  18
   7   1  -7 272.676 183.255  18
   7  -1  -7-3.41903 67.3656  18
  -7   1  -7-3.23415 169.016   4
   7   1   7 232.033 244.050   8
   7  -1   7 231.301 123.752   1
   7  -1   7 316.488 256.312   8
  -7   1  -7 32.6152 35.9675  17
  -7  -1   7 270.204 205.123   2
  -7  -1   7 216.608 195.888  17
  -7   1   7 427.842 283.270  17
  -7  -1   7 294.870 159.774   4
   7   1  -7 115.450 88.4882   8
   7  -1   7 377.761 215.523  16
  -7  -1   7 231.550 99.9961  16
  -7   1  -7 19.9229 150.804   7
   7  -1  -7 83.8742 128.167   1
   7   1   7 148.755 156.312  16
   7   1  -7 202.044 155.105   1
  -7   1  -7 156.028 195.034  15
   7   1   7-16.3062 172.056   6
   7   1   7 191.019 222.567  14
  -7  -1   7 179.436 116.654  19
  -7   1   7 291.802 213.003   2
   7  -1   7 421.807 269.233  14
   7   1  -7 159.492 130.257  14
   7   1  -8 644.472 264.381  14
   7  -1   8 709.057 412.187   6
   7  -1  -8 191.362 171.209   1
   7  -1  -8 305.601 183.393  14
   1   7  -8 333.106 188.937  13
  -7   1  -8-262.310 429.466  15
  -7  -1   8 1014.91 344.034  19
   7   1  -8 714.244 325.215  11
  -7   1  -8-253.691 381.754  20
  -7  -1  -8-352.657 480.306  19
  -7   1  -8 460.431 383.190  19
   7  -1   8 957.102 519.269   1
   7  -1   8 575.995 125.599  18
  -7   1   8 386.012 222.433   5
   7   1  -8-392.333 324.252   9
   7   1  -8 630.526 341.329  18
  -7   1  -8 63.1475 171.258   4
   7   1   8 351.160 262.828   8
   7  -1  -8-1.95876 91.5521  18
   7  -1   8 672.493 327.229   8
  -7  -1   8 1263.73 519.569  17
  -7  -1   8 862.629 398.203   2
  -7   1   8 220.919 87.7370  17
  -7  -1   8 486.429 218.485   4
   7  -1   8 701.795 339.715  16
  -7  -1   8 584.472 223.995  16
  -7  -1   8 737.395 344.758   5
  -7   1  -8 371.598 239.152   7
   7   1   8 432.283 294.421  16
   7   1   8 185.337 218.725   6
   7   1   8 341.392 271.951  14
  -1   7  -8 429.473 205.010   3
   7  -1   8 950.995 455.811  14
  -7   1   8 404.997 246.250   2
   7   1  -8 727.312 371.717   1
   7   1  -9 868.015 312.249  14
   7  -1  -9 586.669 239.487  14
  -1   7  -9 829.868 404.479  13
   1   7  -9 991.722 440.034  13
   7   1  -9 1001.35 392.812   1
  -7   1   9 980.520 384.544   2
   1  -7   9 76.8478 152.805   6
  -1  -7   9 86.3705 114.019   6
   7  -1   9 1337.03 486.129   8
  -7   1  -9 173.083 133.461  19
  -7   1   9 1125.86 363.361   5
   7  -1   9 161.762 206.327   1
   7  -1  -9 534.517 268.167   1
  -7  -1   9 1026.72 322.462  19
  -7  -1   9 1050.32 367.976   5
   7   1  -9-477.348 358.560   9
  -7  -1   9 1317.13 359.505   4
   7   1  -9 928.117 339.335  18
   7   1   9 699.029 390.186   8
   7  -1  -9-220.325 168.774  18
  -1  -7   9-48.2184 206.579  17
   7   1  -9 582.938 229.482  11
  -7  -1   9 1097.24 449.025  17
  -7   1   9 678.042 306.535  17
  -7  -1   9 1198.36 425.961   2
  -7  -1   9 1007.77 297.305  16
   7  -1   9 1587.24 460.022  16
  -7   1  -9-65.8060 393.345   7
   7   1   9 697.773 326.019  16
  -7   1  -9-184.115 453.949  15
   1   7  -9 1374.16 451.637   3
  -1   7  -9 1503.63 493.915   3
   7   1   9 377.674 147.191   6
   7   1   9 588.686 249.437  14
   7  -1   9 1735.40 565.967  14
   7  -1   9 1707.88 547.365   6
  -1   7 -10 707.764 321.710   3
   7   1 -10 316.558 194.382  14
   7  -1 -10 140.720 115.251  14
  -1   7 -10 400.240 246.009  13
   1   7 -10 488.189 325.724  13
   1  -7  10 117.112 134.824   6
  -1  -7  10 41.9998 106.444   6
   7   1 -10 356.400 230.327   1
  -1   7 -10 628.690 248.184  12
   7   1 -10 276.731 186.833  11
  -7  -1  10 338.933 205.807   5
  -7  -1  10-53.7806 183.808  19
   1   7 -10 0.76588 264.673  18
  -7   1  10 197.379 74.5552   5
   7   1 -10-602.932 491.203   9
   7  -1 -10 219.363 165.380   1
   7   1 -10 262.314 176.907  18
   7   1  10 117.602 136.682   8
   7  -1 -10-146.686 234.147  18
   1  -7  10-15.7971 176.658  17
  -1  -7  10-5.11549 197.919  17
   7  -1  10 532.096 302.709   8
  -7   1 -10 83.2961 163.795  19
  -7  -1  10 354.989 270.067  17
  -7   1  10 96.9613 146.788  17
  -7  -1  10 596.321 364.998   2
  -7  -1  10 425.372 204.151   4
   7  -1  10 511.577 292.862  16
  -7  -1  10 421.184 217.033  16
   7   1  10 325.775 284.581  16
   7  -1  10 784.444 399.129  14
   1   7 -10 489.889 219.840   3
   7  -1  10 367.885 260.432   6
  -7   1  10 342.948 206.699   2
   1   7 -11 775.406 358.602   3
   7   1 -11 280.489 174.737  14
  -1   7 -11 862.393 387.526   3
  -1   7 -11 620.087 371.660  13
   1   7 -11 902.892 432.344  13
   1   7 -11 641.784 322.611  18
   1  -7  11 365.795 261.286   6
  -1  -7  11 148.804 188.610   6
  -1   7 -11 695.135 286.485  12
   7   1 -11 388.046 246.944   1
   7   1 -11 215.516 166.017  11
  -7   1 -11-28.0437 73.6587  19
  -7  -1  11 718.878 318.569   5
   7   1 -11-812.798 550.817   9
  -1   7 -11 432.215 176.503  18
   7   1  11 96.3308 294.571   8
   7   1 -11 413.052 247.032  18
   1  -7  11 155.836 253.563  17
  -1  -7  11 81.9853 288.148  17
   7  -1  11 845.852 390.428   8
  -7  -1  11 518.337 278.879  17
   7  -1 -11 117.556 154.766   1
  -7   1  11 113.930 146.103  17
  -7  -1  11 579.875 329.385   2
   7  -1  11 588.502 146.494   2
  -7  -1  11 577.383 241.631   4
   7  -1  11 620.592 354.952  16
  -7  -1  11 609.513 278.364  16
   7   1  11 403.185 355.156  16
   7  -1  11 761.300 392.262  14
   7  -1  11 727.984 370.423   6
  -7   1  11 457.652 273.526   2
   7   1 -12 573.214 245.822  14
   7   1 -12 364.704 272.590  11
  -1   7 -12 1000.15 467.430  13
   1   7 -12 1317.68 512.425  13
  -1  -7  12 289.520 208.069   6
   1  -7  12 640.124 323.017   6
  -1   7 -12 1226.76 403.422  12
   1   7 -12 1013.35 325.866  12
  -7   1 -12 191.619 253.913  19
  -7  -1  12 1238.85 413.425   5
   7  -1  12 1110.68 230.674   2
  -1   7 -12 1375.47 399.672  18
   1   7 -12 1146.47 450.972  18
  -7  -1  12 1039.39 309.115   4
   7   1 -12 604.015 301.645  18
   7   1  12 326.979 47.3497   8
   1  -7  12 623.813 392.112  17
   7  -1  12 1266.16 499.219   8
  -1  -7  12 417.160 268.099  17
  -7  -1  12 1026.52 458.115  17
  -7  -1  12 1158.63 473.272   2
   7   1 -12 583.491 327.956   1
   7  -1  12 1133.03 463.364  16
  -7  -1  12 879.771 340.434  16
   1   7 -12 1469.98 477.395   3
  -1   7 -12 1340.52 479.241   3
   7  -1  12 1334.31 553.813  14
   7  -1  12 1386.31 534.989   6
   7   1 -13 156.728 136.603  14
   1  -7  13 340.818 342.004  17
   1   7 -13 544.794 288.372   3
   1  -7  13 47.7459 65.7650  14
  -1   7 -13 429.718 272.758   3
  -1   7 -13 346.036 242.683  13
   1   7 -13 428.059 232.096  13
  -1  -7  13 206.931 241.908   6
   1  -7  13 180.030 134.361   6
  -1   7 -13 545.364 267.761  12
   1   7 -13 511.073 228.890  12
   7   1 -13 174.321 152.422   1
  -7   1 -13-19.0461 186.718  19
  -7  -1  13 385.613 194.975   4
   7   1 -13 150.144 215.325  11
  -1   7 -13 538.605 222.013  18
   1   7 -13 586.781 308.262  18
   7   1  13-172.214 560.542   8
   7   1 -13 200.197 182.807  18
   7  -1  13 368.583 262.388   8
  -1  -7  13-12.8191 260.225  17
  -7  -1  13 412.483 253.015   5
  -7  -1  13 571.924 360.145  17
  -7  -1  13 415.146 287.541   2
  -1   7 -13 563.570 190.415   4
   7  -1  13 480.967 369.837  16
  -7  -1  13 422.701 283.235  16
   1   7 -13 248.857 87.1958   4
   7  -1  13 455.995 163.855   2
   7  -1  13 502.981 290.570  14
   7  -1  13 622.708 407.609   6
   7   1 -14 532.270 237.604  14
  -1  -7  14 682.762 315.490   6
   1  -7  14 966.993 412.985   6
  -1   7 -14 1460.85 553.054  13
   1   7 -14 1364.54 553.093  13
  -1   7 -14 1598.78 473.696  12
   1   7 -14 1526.04 439.018  12
   1  -7  14 242.597 287.654  16
  -7  -1  14 1552.53 484.124   5
   1   7 -14 1882.43 551.859  18
   7  -1  14 1769.13 335.053   2
   7   1 -14 627.837 348.809  11
   7   1 -14 644.777 345.697  18
  -1   7 -14 1815.93 466.290  18
  -1   7 -14 1883.23 357.012   4
   7   1 -14 731.144 348.696   1
  -7  -1  14 1232.09 321.548   4
   7  -1  14 1683.60 602.807   8
   1  -7  14 1135.90 474.578  17
  -1  -7  14 1384.81 575.931  17
  -7  -1  14 1552.04 631.585  17
  -7   1 -14 37.4841 87.9788  19
  -1  -7  14 414.256 107.430  16
  -7  -1  14 1662.53 584.304   2
   7  -1  14 1625.41 620.199  16
  -7  -1  14 1240.13 435.822  16
   1   7 -14 2117.03 601.621   3
  -1   7 -14 1902.06 586.464   3
   1  -7  14 922.006 242.687  14
   7  -1  14 869.849 347.732  14
   7  -1  14 1700.02 655.350   6
   7   1 -15 101.820 97.6752  14
  -7  -1  15 204.457 225.897  17
   1  -7  15 257.507 141.934  14
  -1  -7  15 47.6976 44.3578  14
  -1  -7  15 312.317 273.654   6
   1   7 -15 351.496 256.407   3
   1  -7  15 214.820 250.620   6
  -1   7 -15 335.247 276.600   3
  -1   7 -15 206.300 142.137  13
   1   7 -15 383.031 335.531  13
  -7  -1  15 304.902 252.445   2
  -1   7 -15 401.663 246.691  12
   1   7 -15 317.221 186.285  12
   7   1 -15 14.5748 132.224  11
  -7   1 -15 52.2366 272.605  19
  -1   7 -15 446.735 282.092  18
   1   7 -15 410.327 284.863  18
   7  -1  15 203.031 212.227   8
   7   1 -15 93.2966 154.350  18
   1  -7  15 420.886 270.055  17
  -1  -7  15 579.447 390.309  17
  -7  -1  15 348.065 225.193   5
  -1  -7  15-1.60068 145.620  16
   1  -7  15-175.578 218.606  16
   7  -1  15 298.017 241.306  16
  -7  -1  15 241.031 205.214  16
  -7  -1  15 142.793 81.0048   4
   7   1 -15 136.323 169.386   1
   7  -1  15 341.498 126.985   2
   7  -1  15-406.014 578.986  14
   7  -1  15 370.538 307.538   6
   1  -7  16 346.164 139.897  14
   7   1 -16 168.715 137.664  14
  -7  -1  16 761.841 425.461  16
  -1  -7  16 265.045 186.432   6
   1  -7  16 378.975 315.800   6
   1   7 -16 586.719 359.467   3
  -1   7 -16 658.910 365.553   3
  -1   7 -16 413.324 255.456  13
   1   7 -16 74.4720 131.250  13
   7   1 -16 62.7556 195.408  11
   7  -1  16 414.608 198.305   8
  -1   7 -16 552.029 319.788  12
   1   7 -16 431.309 247.311  12
  -7   1 -16 299.450 313.170  19
   1   7 -16 395.174 229.272  18
  -1   7 -16 534.454 299.160  18
   7   1 -16 60.3160 75.2210  18
  -7  -1  16 573.901 375.242   5
  -1  -7  16 526.709 346.555  17
   1  -7  16 527.310 293.475  17
   7   1 -16 192.016 211.721   1
  -7  -1  16 1036.90 554.137  17
  -1  -7  16 165.130 105.362  16
   1  -7  16 148.359 181.962  16
  -7  -1  16 544.178 440.326   2
   7  -1  16 315.738 355.108  16
   7  -1  16 532.649 227.501   2
   7  -1  16 527.910 224.112   6
   7   1 -17 58.5330 110.901  14
  -1  -7  17 157.730 219.165   6
   1  -7  17 409.930 298.704   6
   1   7 -17 854.107 485.222   3
  -1   7 -17 471.231 322.366   3
  -1   7 -17 419.384 361.409  13
   1   7 -17 776.806 511.004  13
  -1   7 -17 482.652 300.701  12
   1   7 -17 824.162 416.566  12
   1   7 -17 742.649 386.619  11
  -1   7 -17 945.782 399.114  11
  -7   1 -17-321.500 275.264  19
  -7  -1  17 365.739 251.160   5
   1   7 -17 608.168 369.537  18
  -1   7 -17 629.127 325.993  18
   7   1 -17 23.9083 133.806  18
   7  -1  17 564.487 404.594   8
  -1  -7  17 827.895 434.205  17
   7   1 -17 103.000 189.320   1
  -7  -1  17 796.546 424.188  17
  -1  -7  17 396.417 348.696  16
   1  -7  17 531.449 382.924  16
  -7  -1  17 515.204 367.479   2
   7   1 -17-46.8835 244.394  11
   7  -1  17 647.461 418.636  16
  -7  -1  17 387.887 308.831  16
   1   7 -17 1271.35 835.901   7
   1   7 -17 1225.01 760.809  15
  -1   7 -17 1522.33 864.191  15
   7  -1  17 618.218 244.387   2
   7  -1  17-8.57761 504.083   6
   1  -7  17 463.746 287.516  17
  -1  -7  18-213.644 269.008   6
   1  -7  18 33.3777 66.6270   6
   1   7 -18 99.5556 230.207   3
  -1   7 -18 176.404 201.546   3
  -1   7 -18 133.729 288.667  13
   1   7 -18 248.600 311.531  13
  -1   7 -18-25.3370 125.695  12
   1   7 -18 72.2999 95.8616  12
   1   7 -18 139.270 241.063  11
  -1   7 -18 634.694 349.908  11
  -7   1 -18-110.830 253.096  19
  -7  -1  18-75.3641 114.973   5
   7  -1  18-10.4106 175.458   8
   1   7 -18-238.378 193.498  18
  -1   7 -18 177.190 208.769  18
   7   1 -18-258.443 388.739  18
  -1  -7  18-151.627 186.018  17
   1  -7  18 44.7316 158.942  17
  -7  -1  18-404.003 470.379  17
   7   1 -18-13.9115 106.338   1
  -1  -7  18 48.5700 236.723  16
   1  -7  18 33.7308 212.555  16
  -7  -1  18 17.2802 144.311   2
   7  -1  18 39.3799 124.749  16
  -7  -1  18-41.6809 72.5591  16
   1   7 -18 146.463 412.970   7
  -1   7 -18 863.406 830.709   7
   1   7 -18 207.794 581.065  15
  -1   7 -18 263.182 623.190  15
   7  -1  18-798.671 668.831   6
   7   2   0 2767.81 698.332   1
  -7   2   0 879.241 295.002  12
   7  -2   0 2137.72 497.232   1
  -7   2   0 2190.55 523.620  19
  -7   2   0 2326.61 508.959   5
  -7   2   0 1826.15 317.619   2
   7   2   0 2586.29 557.926  18
   7   2   0 2396.24 566.205   8
  -7   2   0 2150.28 487.645   4
   7  -2   0 2069.21 509.076   8
  -7  -2   0 460.037 271.423  17
  -7  -2   0 316.241 209.405  19
   7   2   0 1668.86 549.611  14
   7  -2   0 2467.53 497.017   6
   7  -2   0 2037.47 490.587  14
   7   2   1 2244.29 666.052   1
   7   2  -1 2564.16 668.021   1
  -7   2  -1 1407.00 383.230  12
   7  -2   1 2066.24 489.351   1
   7  -2  -1 1720.45 454.295   1
  -7   2  -1 2379.76 518.734   5
  -7   2   1 1990.08 475.586   5
   7  -2  -1 1503.08 425.655   8
  -7   2   1 1345.67 292.766   2
  -7   2   1 2273.62 535.335  19
  -7  -2  -1 24.0855 101.544  19
  -7  -2   1 783.912 351.505  19
   7   2   1 2106.14 520.082  18
   7   2  -1 2355.83 496.356  18
  -7   2  -1 2189.53 507.454   4
   7   2  -1 2183.03 512.324   8
  -7   2   1 1905.82 455.261   4
   7  -2   1 2019.04 482.378   8
  -7  -2   1 131.716 203.839   4
  -7  -2  -1 342.389 255.555  17
  -7  -2   1 699.635 339.276  17
   7   2   1 1353.55 444.924   8
  -7   2  -1 1860.72 294.478   2
  -7   2  -1 2023.93 492.412  19
   7   2  -1 1535.31 503.658  14
   7  -2   1 2780.25 539.842   6
   7  -2  -1 1903.59 436.663   6
   7  -2   1 2341.50 526.395  14
   7  -2  -1 1688.76 472.340  14
   7   2   1 1266.88 485.758  14
   7  -2   2 960.826 346.848  14
  -7   2   2 472.518 161.085   2
   7  -2  -2 803.948 308.401  14
   7   2  -2 618.543 215.077  13
  -7  -2   2 456.662 285.500  17
   7  -2   2 1074.00 349.087   1
   7  -2  -2 623.005 239.463   6
  -7   2  -2 772.632 283.118  12
  -7   2  -2 1018.90 357.637   5
  -7   2   2 853.026 306.565   5
  -7  -2   2 495.750 290.512   5
  -7   2  -2 988.152 193.714   2
  -7  -2   2 255.287 177.515  19
  -7   2  -2 930.465 349.527  19
  -7  -2  -2 17.4410 149.157  19
   7   2   2 669.561 237.302  18
   7   2  -2 1254.24 368.054  18
   7   2   2 1013.08 445.048   1
   7   2  -2 1162.31 366.635   8
  -7  -2   2 127.265 72.1246   4
   7   2   2 851.202 367.716   8
  -7   2   2 816.116 291.574   4
   7  -2  -2 685.520 301.926   1
  -7  -2  -2 66.3088 169.572  17
  -7   2   2 1028.73 346.856  19
   7  -2   2 955.009 341.293   8
  -7   2  -2 905.802 316.855   4
   7  -2  -2 464.637 246.681   8
   7  -2   2 1211.65 379.007   6
   7   2  -2 1198.51 433.365   1
   7   2   2 630.653 357.085  14
   7   2  -2 827.650 354.349  14
  -7   2  -2 175.792 117.009   3
   7  -2   3 132.329 173.119  14
   7  -2  -3-26.0062 107.945   1
  -7   2   3-75.3174 138.174   2
  -7   2  -3 2.64425 75.7739   3
   7  -2  -3 108.639 116.878  14
  -7  -2  -3-5.40774 200.745  19
  -7   2   3 155.252 133.906  19
   7   2  -3 22.1804 37.0965  13
   7  -2   3 130.475 131.913   6
  -7  -2   3 26.3872 47.9565  12
  -7   2  -3 149.920 129.597  12
   7  -2  -3-117.585 194.809   6
  -7  -2   3 88.5485 148.493   5
   7   2  -3 131.995 98.4966  20
  -7   2  -3 321.931 238.680   5
  -7  -2   3 213.592 186.936   2
  -7  -2   3 36.5277 61.0279  19
   7   2   3 222.787 284.138   1
  -7   2  -3 176.266 185.469  19
  -7   2   3 79.6501 82.4143   5
   7   2  -3-15.0489 69.1904  18
   7   2   3 64.4629 88.8136   8
  -7  -2   3-31.3424 132.607   4
  -7  -2  -3-17.4414 126.346  17
  -7  -2   3 55.0648 133.585  17
  -7   2  -3 105.945 64.7745   2
   7   2  -3 159.748 153.653   8
   7  -2   3 70.7831 79.7610   8
  -7   2  -3 231.418 230.836   4
   7  -2  -3-20.8307 107.703   8
   7  -2   3 106.357 92.9696   1
  -7   2   3-46.4673 151.883   4
   7   2   3 73.3689 151.905  14
   7   2  -3 113.265 132.508  14
   7   2  -3 17.8576 139.411   1
   7  -2   4 852.351 332.706  14
   7  -2  -4 330.393 211.852  14
   7   2  -4 990.026 266.482  13
   7   2  -4 885.436 394.945   1
  -7   2  -4 317.372 187.517   3
   7  -2   4 883.003 330.188   6
  -7   2  -4 488.878 216.648  12
  -7  -2   4 77.1805 45.3428  12
  -7  -2   4 322.162 179.267   5
   7   2   4 378.071 287.523   1
  -7  -2   4 547.659 278.618  19
   7   2  -4 351.674 147.647  20
  -7   2  -4 722.924 309.661   5
  -7   2  -4 556.657 277.529  19
  -7  -2   4 568.945 327.246   2
  -7   2   4 585.162 255.143  19
  -7   2   4 442.455 208.549   5
   7   2  -4 743.117 300.502  18
   7  -2  -4 267.620 174.888   1
   7  -2   4 747.662 294.356   1
   7   2   4 190.767 37.1620   8
  -7  -2  -4-243.612 428.304  19
  -7  -2   4 215.088 178.368   4
  -7  -2   4 452.519 273.351  17
   7   2  -4 869.189 282.377   8
   7  -2   4 638.706 259.144   8
  -7   2  -4 600.558 279.853   4
   7   2   4 310.920 173.475  14
   7   2  -4 490.132 259.010  14
   7  -2   5 147.262 138.180  14
   7  -2  -5 55.8576 74.3624  14
   7  -2   5 156.509 158.901   6
   7   2  -5 185.094 147.743  13
  -7   2  -5 100.958 73.2479   3
   7   2  -5 241.582 221.925   1
  -7   2  -5 130.565 141.975  12
   7   2   5-284.585 523.175   1
   7   2  -5 455.854 264.270  11
  -7  -2   5 9.66837 124.239   5
   7  -2   5 237.813 205.966   1
  -7   2  -5 180.975 178.200   5
  -7  -2   5 40.1564 65.3882  19
  -7   2  -5 117.556 142.196  19
  -7   2   5-165.875 141.088  19
   7   2  -5 221.643 147.522   8
  -7   2  -5 182.429 98.6952   9
  -7  -2   5 196.305 195.312   2
  -7   2   5-12.0195 115.610   5
   7   2  -5 99.7689 80.1546  18
   7   2  -5 446.026 198.028  10
  -7   2  -5 142.961 172.372   4
   7   2   5-146.896 329.240   8
  -7  -2   5 108.654 121.760   4
  -7  -2   5 13.1616 145.291  17
   7  -2   5 187.045 205.049   8
   7   2  -5 161.605 116.617  20
   7  -2   5-15.3014 137.526  16
   7  -2  -5 33.0518 41.7911   1
   7   2   5-96.5957 309.788  14
   7   2  -5 98.4849 156.933  14
   7  -2  -6 464.692 237.026  14
   7   2  -6 1462.63 351.276  13
  -7   2  -6-78.4080 166.011  13
   7  -2   6 1402.37 401.348   1
  -7   2  -6 468.954 236.502   3
  -7   2  -6 923.030 352.337  12
   7   2  -6 1512.05 417.252  11
   7   2  -6 1048.93 404.104   1
  -7   2  -6 841.432 352.355   5
  -7  -2   6 645.403 300.788   5
  -7   2  -6 785.856 272.608  20
   7  -2  -6 284.939 185.864   1
  -7   2  -6 981.906 243.543  10
   7   2  -6 867.361 273.178  10
  -7  -2   6 1190.89 444.392   2
  -7   2  -6 799.825 339.743  19
  -7  -2   6 1183.12 346.697  19
   7   2  -6 2095.16 559.188   9
  -7   2  -6 560.779 136.724   9
   7   2  -6 1098.34 359.237  18
   7   2  -6 1339.22 314.093   8
   7   2   6 40.6856 302.433   8
  -7  -2   6 846.296 363.944  17
  -7   2  -6 819.401 365.203   4
   7  -2   6 1248.29 433.390   8
   7  -2   6 1078.96 402.139  16
  -7  -2   6 530.005 168.385  16
   7  -2   6 1529.97 470.261   6
   7   2   6 233.554 236.495  14
   7   2  -6-157.832 248.569  20
   7   2  -6 749.769 301.391  14
  -7  -2   6 690.364 278.504   4
   7  -2   6 1247.46 411.884  14
   7  -2   7 1449.65 499.844   1
  -7   2  -7-222.593 143.002  13
  -7   2  -7 996.640 525.647  12
  -7   2  -7 804.827 369.725   3
   7   2  -7 1481.86 486.431  11
  -7   2  -7 423.657 300.855   5
  -7  -2   7 696.121 386.692   5
  -7  -2   7 838.460 469.377  19
  -7   2  -7 955.043 377.843  10
   7   2  -7 909.978 404.125   1
   7   2  -7 557.249 318.211  10
  -7  -2   7 618.401 252.985   4
  -7   2  -7 576.788 364.529  19
  -7   2  -7 56.0908 176.608   9
  -7   2  -7 985.151 446.154  20
   7   2  -7 834.145 297.725  18
   7   2  -7 937.479 301.311   8
  -7  -2   7 966.745 521.770   2
   7   2   7-288.998 546.721   8
   7   2  -7 2360.11 605.396   9
  -7   2  -7 632.778 320.287   4
  -7  -2   7 355.659 385.011  17
   7  -2   7 945.339 416.845   8
  -7  -2   7 805.610 275.831  16
   7  -2   7 1170.24 449.817  16
   7  -2   7 1584.85 549.061   6
  -7   2  -7 1021.56 553.293  15
   7   2  -7 852.821 186.542   3
   7  -2   7 1684.50 601.300  14
   7   2  -7 495.651 336.448  14
   2   7  -8 2048.91 671.116  13
   7  -2   8 2162.54 607.473   1
   7   2  -8 2144.71 601.244   1
  -7   2  -8 507.209 220.716  13
   2  -7   8 323.148 271.668   6
  -7  -2   8 2486.81 679.958   5
   7   2  -8 3458.84 756.650  11
  -7   2  -8 822.208 364.227   5
  -7  -2   8 1891.31 603.905   2
  -7   2  -8 1588.08 593.970  20
  -7  -2   8 3115.86 606.287  19
   7   2  -8 2495.43 605.958  18
   7   2  -8 2885.56 787.307   9
  -7  -2   8 2136.14 534.302   4
  -7   2  -8 843.901 208.534   9
   7  -2   8 2482.07 626.475   8
   7   2  -8 1662.25 384.420   8
  -7   2  -8 1131.88 434.664   4
  -7  -2   8 1777.94 390.582  16
   7  -2   8 2515.22 641.242  16
  -7   2  -8 2739.45 889.995   7
  -7   2  -8 2503.18 790.592  15
  -2   7  -8 2267.40 602.701   3
   7  -2   8 3188.43 756.182   6
   7   2  -8 1501.33 490.385  14
   7  -2   8 3309.05 763.663  14
   7   2  -8 2017.17 279.927   3
   7  -2   9 125.237 186.824   6
  -7   2  -9 141.555 181.080  19
  -2   7  -9-555.318 361.074  13
   2   7  -9 53.0327 110.242  13
  -7   2  -9 69.3820 103.117  13
   2  -7   9-26.8511 20.4747   6
  -2  -7   9 27.5442 37.1563   6
  -2   7  -9-258.347 185.938  12
   7   2  -9-2.54888 74.0299  11
  -7   2  -9 13.6840 133.906  20
  -7  -2   9 156.721 145.688   5
  -7   2  -9-40.3047 77.4863  10
   7   2  -9-254.012 245.858   9
   7   2  -9 8.96452 125.066  10
   7   2  -9 18.0604 142.810   1
   7   2  -9-35.3431 151.131  18
   7  -2   9-19.1848 64.1571   1
  -7   2  -9 55.8681 86.6493   4
  -2  -7   9 20.9833 248.972  17
  -7  -2   9 61.8773 122.528   2
   7  -2   9 20.1103 66.8621   8
  -7  -2   9 75.1009 176.333  17
  -7  -2   9-80.6126 69.0409   4
   7  -2   9-12.6579 133.740  16
  -7  -2   9-6.93275 74.7879  16
   2   7  -9-376.692 513.684  18
  -7   2  -9 69.7839 22.3645   7
  -7  -2   9 3.53511 45.2399  19
  -7   2  -9-26.1891 121.451  15
   7  -2   9 5.88544 120.992  14
   7   2  -9 4.06449 63.6679  14
  -2   7  -9-42.1620 158.160   3
   2   7 -10 2957.90 794.002  13
  -2   7 -10 1509.15 572.401  13
   7   2 -10 2421.62 617.021   1
  -2   7 -10 2693.85 596.256  12
   2  -7  10 876.505 383.956   6
  -2  -7  10 327.726 237.555   6
  -7  -2  10 2467.76 634.169   5
   7   2 -10 2244.37 595.737  11
  -7  -2  10 2440.52 692.069   2
  -7   2 -10 851.331 362.213  20
   7  -2  10 697.768 324.447   1
   7   2 -10 657.672 287.798  10
  -7   2 -10 1004.89 397.303  19
  -7   2 -10 537.913 201.792  10
   7   2 -10 2420.52 605.334  18
   2   7 -10 1875.02 601.092  18
   7   2 -10 1394.33 493.020   9
  -7  -2  10 2231.31 481.671   4
   7  -2  10 3306.91 707.356   8
  -7   2 -10 613.514 233.454   4
  -7  -2  10 2586.70 743.199  17
  -7  -2  10 2235.59 482.814  16
   7  -2  10 3181.52 766.196  16
  -7  -2  10 1925.92 428.284  19
  -7   2 -10 1548.43 670.247   7
   2   7 -10 2877.09 666.411   3
  -7   2 -10 1714.85 651.105  15
   7  -2  10 4163.12 872.093   6
  -2   7 -10 3019.84 718.405   3
   7  -2  10 3369.91 800.194  14
   7   2 -10 983.002 356.597  14
  -7  -2  11 660.420 308.264   5
   7  -2  11 1060.10 453.264   6
  -2   7 -11 737.169 346.604   3
  -2   7 -11 349.298 270.275  13
   2   7 -11 638.389 372.075  13
   2  -7  11 254.699 203.447   6
  -2  -7  11 243.436 209.754   6
  -2   7 -11 698.294 287.291  12
   7   2 -11 653.146 332.907  11
  -7   2 -11 221.138 157.358  20
  -7  -2  11 314.993 116.153  19
   7  -2  11 896.863 407.437   8
   7   2 -11 208.612 199.706  10
  -7   2 -11 35.4846 137.476  10
  -7   2 -11 230.064 142.336  19
  -2   7 -11 463.657 155.999  18
   2   7 -11 605.160 387.366  18
   7   2 -11 449.638 309.241   9
   7   2 -11 684.556 322.376  18
   2  -7  11 170.827 185.308  17
  -2  -7  11 468.651 412.058  17
  -7  -2  11 608.326 350.595   2
   7   2 -11 438.416 241.925   1
  -7  -2  11 610.453 372.214  17
  -7  -2  11 648.687 269.461   4
   7  -2  11 910.130 427.374  16
  -7  -2  11 814.842 310.670  16
  -7   2 -11 395.342 312.307   7
  -7   2 -11 128.364 94.4079  15
   7  -2  11 1031.26 463.997  14
   7   2 -11 320.699 203.132  14
   2   7 -11 627.279 298.508   3
  -2   7 -12 1313.55 474.609   3
   2  -7  12 382.296 174.211  14
  -2   7 -12 936.317 468.727  13
   2   7 -12 1419.91 540.299  13
  -2  -7  12 456.182 260.883   6
   2  -7  12 483.791 309.193   6
  -2   7 -12 1328.55 428.445  12
  -7  -2  12 1414.71 472.761   5
   7  -2  12 1410.00 298.158   2
   7   2 -12 681.709 381.215  11
  -7   2 -12 90.6110 53.9119  20
   7   2 -12 361.706 273.912   9
  -7   2 -12-177.172 306.055  10
  -2   7 -12 1120.54 370.274  18
   2   7 -12 1249.16 510.532  18
  -7  -2  12 1139.04 335.772   4
  -2   7 -12 1265.47 304.458   4
   7   2 -12 1018.95 418.001  18
   7   2 -12-163.026 324.587  10
   2  -7  12 548.670 332.324  17
  -2  -7  12 460.509 374.446  17
   7  -2  12 1607.26 527.882   8
  -7  -2  12 1142.50 476.483   2
  -7   2 -12 340.618 232.185  19
  -7  -2  12 1422.70 581.278  17
   7   2 -12 639.489 325.993   1
   7  -2  12 1493.67 572.501  16
  -7  -2  12 1141.96 371.177  16
  -7   2 -12 51.6258 355.549   7
  -7   2 -12-189.763 416.626  15
   7  -2  12 2079.94 686.023   6
   2   7 -12 1334.24 465.791   3
   7  -2  12 1693.99 609.927  14
   7   2 -12 516.321 235.377  14
   2  -7  13 738.888 237.298  14
  -2   7 -13 1006.97 479.603  13
  -2  -7  13 445.316 258.604   6
   2   7 -13 1526.98 586.963  13
   2  -7  13 836.049 423.810   6
  -2   7 -13 1390.50 455.850  12
   2   7 -13 1095.58 327.337  12
  -7  -2  13 1566.04 486.312   5
   7  -2  13 2004.74 372.715   2
   7   2 -13 901.602 421.621  11
  -7   2 -13-90.8398 396.594  20
  -7   2 -13 333.036 291.541  19
   7  -2  13 1701.28 521.479   8
  -7   2 -13-338.415 375.141  10
  -2   7 -13 1284.83 377.248  18
   7   2 -13 354.196 284.923   9
  -7  -2  13 1225.32 337.589   4
  -2   7 -13 1551.21 363.188   4
   2   7 -13 1461.10 520.025  18
   7   2 -13 1135.16 437.545  18
  -7  -2  13 1491.70 546.437  17
   2  -7  13 928.577 379.819  17
  -2  -7  13 695.800 412.277  17
  -7  -2  13 1492.71 569.452   2
   2  -7  13-598.219 397.626  16
   7  -2  13 1814.12 633.411  16
  -7  -2  13 1383.98 443.414  16
  -7   2 -13-532.894 701.900   7
   7   2 -13 742.588 351.637   1
   7  -2  13 2107.98 721.040   6
   2   7 -13 1531.81 491.768   3
  -2   7 -13 1792.63 571.938   3
   7  -2  13 1527.72 579.353  14
   7   2 -13 408.580 224.944  14
   2  -7  14 758.116 247.793  14
   2   7 -14 1098.91 419.579   3
  -2   7 -14 1083.87 464.895   3
  -2  -7  14 294.820 157.994   6
   2  -7  14 665.109 371.007   6
  -2   7 -14 642.912 388.994  13
   2   7 -14 1169.95 484.921  13
   2   7 -14 888.433 319.184  12
  -2   7 -14 1049.38 400.213  12
   7  -2  14 1377.85 335.799   2
   7   2 -14 539.265 339.490  11
  -7   2 -14-848.138 445.525  20
  -7  -2  14 937.271 408.018   5
  -7   2 -14 86.2015 132.728  19
   7   2 -14-575.707 599.948  10
  -2   7 -14 1137.51 370.215  18
  -2   7 -14 1245.23 326.383   4
   7   2 -14-118.044 256.755   9
   7   2 -14 579.854 298.222  18
   2   7 -14 1049.43 448.218  18
   2  -7  14 845.426 399.225  17
   7  -2  14 1049.59 427.550   8
  -2  -7  14 886.346 412.828  17
  -7  -2  14 1083.02 492.415   2
  -7  -2  14 1027.44 511.056  17
  -2  -7  14-96.5121 347.722  16
   2  -7  14 158.543 324.305  16
  -7  -2  14 947.657 289.433   4
   7  -2  14 1201.29 499.867  16
  -7  -2  14 887.369 350.377  16
   7   2 -14 686.948 332.286   1
   7  -2  14 1236.10 524.599  14
   7  -2  14 1567.75 617.342   6
   7   2 -14 355.265 161.970  14
   7  -2  15 1633.03 614.020  16
  -2  -7  15 605.016 390.898   6
   2  -7  15 1260.10 508.192   6
  -2   7 -15 1694.85 583.616   3
  -2   7 -15 1304.09 544.824  13
   2   7 -15 1329.51 547.539  13
   2   7 -15 1358.41 393.397  12
  -2   7 -15 1535.48 483.847  12
  -7  -2  15 1837.95 527.851   5
   7  -2  15 2085.06 426.935   2
   7   2 -15 754.780 403.380  11
   2   7 -15 1816.89 596.798  18
  -2   7 -15 1601.25 436.822  18
  -2   7 -15 1594.59 404.208   4
   7   2 -15-263.885 394.663   9
  -7  -2  15 1438.53 373.613   4
   7   2 -15 718.567 382.415  18
   7  -2  15 1611.82 548.054   8
   2  -7  15 1597.57 494.166  17
  -7   2 -15 244.532 196.198  19
  -2  -7  15 1117.64 541.183  17
  -7  -2  15 1387.69 550.857   2
  -7  -2  15 1801.91 642.143  17
  -2  -7  15 680.505 314.623  16
   2  -7  15 323.568 281.054  16
  -7  -2  15 1093.03 439.096  16
   2   7 -15 1759.28 556.281   3
   2  -7  15 1367.56 326.141  14
   7  -2  15 1380.63 567.368  14
   7  -2  15 1685.23 660.336   6
   7   2 -15 948.081 430.560   1
   7   2 -15 137.658 90.4836  14
   2  -7  16 1037.45 288.734  14
   7   2 -16 424.214 276.781   1
  -2  -7  16 508.094 223.466   6
   2  -7  16 633.249 419.216   6
   2   7 -16 1326.64 528.318   3
  -7   2 -16-165.740 206.714  19
  -2   7 -16 849.556 386.771   3
  -2   7 -16 397.280 252.464  13
   2   7 -16 634.961 349.988  13
   7  -2  16 1196.80 467.662   8
   2   7 -16 1184.69 392.350  12
  -2  -7  16 710.316 450.681  17
  -2   7 -16 1050.63 417.165  12
  -2   7 -16 2013.30 549.364  11
   2  -7  16 476.377 331.312  16
   7   2 -16 316.687 255.470  11
  -7  -2  16 1140.94 415.342   5
   2   7 -16 1276.28 471.651  18
  -7  -2  16 1111.20 311.683   4
  -2   7 -16 1157.70 358.929  18
   7   2 -16 509.563 389.449  18
   7  -2  16 1470.94 378.424   2
   2  -7  16 1323.15 492.052  17
  -7  -2  16 780.760 536.562  17
  -7  -2  16 1202.66 532.706   2
  -2  -7  16 611.468 351.900  16
   7  -2  16 964.673 507.659  16
  -7  -2  16 996.039 366.677  16
   2   7 -16 1256.73 745.768  15
   7  -2  16 409.566 203.626  14
   7  -2  16 1325.60 606.984   6
   7   2 -16 70.9978 67.5810  14
  -2  -7  17 103.875 91.9298   6
   7   2 -17 60.0315 139.525   1
   2  -7  17 331.918 321.567   6
   2   7 -17 197.688 266.685   3
  -2   7 -17 13.8278 133.290   3
  -2   7 -17-0.99523 49.8419  13
   2   7 -17 393.764 408.185  13
  -2   7 -17-9.59308 18.3361  12
   2   7 -17 3.73197 76.9041  12
   2   7 -17 55.5176 66.2017  11
  -2   7 -17 93.2820 182.057  11
  -7  -2  17 184.634 151.129   5
  -7   2 -17-97.6127 224.390  19
   2   7 -17-1.08142 180.462  18
  -2   7 -17 84.6611 149.853  18
   7   2 -17 24.1987 61.9632  18
   7  -2  17 175.782 181.428   8
  -2  -7  17 112.516 379.436  17
   2  -7  17 224.560 256.986  17
   7   2 -17 10.0215 142.412  11
  -7  -2  17-90.4842 197.371  17
  -7  -2  17 377.759 354.206   2
  -2  -7  17 17.3395 124.240  16
   2  -7  17 232.615 299.347  16
  -7  -2  17 256.141 162.684   4
   7  -2  17-56.0249 177.683  16
  -7  -2  17-50.0000 116.120  16
   2   7 -17 597.262 561.512   7
   2   7 -17-44.1251 187.140  15
   7  -2  17-412.171 733.676  14
   7  -2  17 23.6984 189.917   6
   7   3   0 3073.39 805.336   1
   7  -3   0 1668.79 442.822   1
  -7   3   0 2554.90 529.254   5
  -7   3   0 2916.93 603.682  19
   7   3   0 2037.21 550.443  18
   7   3   0 1877.65 540.779   8
  -7   3   0 2299.30 501.235   4
   7  -3   0 1441.31 425.002   8
  -7  -3   0-475.795 435.780  19
   7  -3   0 1631.57 446.263   6
   7  -3   0 1760.25 467.879  14
   7   3   0 514.028 320.231  14
   7  -3   1 372.699 202.344  14
   7  -3  -1 415.669 208.136  14
   7   3  -1 802.505 379.399   1
   7  -3   1 474.403 235.442   6
   7  -3  -1 206.334 99.0523   6
  -7   3  -1 340.931 179.202  12
  -7  -3  -1 25.3517 88.4652  17
  -7  -3   1-160.607 251.440  19
   7   3   1 660.704 395.297   1
  -7   3  -1 680.820 304.630  19
  -7   3   1 594.752 263.938  19
  -7   3  -1 700.119 266.589   5
  -7   3   1 396.421 148.690   5
   7   3  -1 531.900 295.350  18
   7   3   1 334.264 161.367   8
   7   3  -1 626.402 298.027   8
  -7  -3   1 84.5105 179.425  17
   7  -3   1 538.857 253.611   1
   7  -3   1 531.234 267.432   8
   7  -3  -1 168.737 80.0629   8
  -7   3  -1 609.925 260.768   4
   7   3   1 1.28469 336.730  14
   7   3  -1 10.5190 145.398  14
   7  -3  -1 290.647 180.806   1
   7  -3  -2 516.575 251.723  14
   7  -3   2 1002.89 339.074   1
  -7   3  -2 902.231 311.776  12
   7   3   2 199.224 318.128   8
  -7   3  -2 1140.44 361.225   5
   7   3   2 669.457 342.420   1
  -7   3  -2 1180.75 376.103  19
  -7  -3   2 195.203 216.816  19
   7   3  -2 1129.30 430.617  18
  -7   3   2 938.506 294.253   5
  -7   3  -2 1094.74 354.597   4
   7   3  -2 1205.71 377.987   8
  -7  -3   2 163.494 179.275  17
   7   3  -2 1264.31 520.425   1
   7  -3   2 912.666 331.216   8
   7  -3  -2 453.678 235.350   1
   7  -3  -2 41.5144 202.989   8
  -7   3   2 1239.73 408.303  19
   7  -3   2 1190.77 378.385   6
   7  -3   2 976.982 360.949  14
   7   3  -2 448.267 242.519  14
   7  -3  -3 703.375 307.864  14
   7   3  -3 1673.46 585.525   1
   7   3  -3 888.446 293.012  13
  -7   3  -3 1147.44 372.620  12
   7  -3   3 1389.88 388.082   1
   7  -3  -3 373.010 241.181   1
   7   3   3 190.700 402.702   1
  -7   3  -3 1299.45 385.548   5
  -7   3  -3 1395.83 415.001  19
  -7  -3   3 502.031 340.513  17
  -7  -3   3 741.383 346.980  19
   7   3  -3 1415.61 435.584  18
   7   3  -3 1476.40 406.983   8
  -7   3  -3 1389.90 406.729   4
   7  -3   3 1135.30 380.100   8
   7  -3   3 1524.08 438.343   6
   7  -3   3 1351.95 429.637  14
   7   3  -3 553.872 287.588  14
  -7   3  -3 398.990 215.347   3
  -7   3  -4-35.9420 89.3081   3
   7  -3   4-49.8538 125.896  14
   7   3  -4-106.565 110.684  13
   7  -3   4-7.02845 49.5889   6
  -7   3  -4 11.9553 72.5542  12
  -7  -3   4-44.1832 84.1322  19
   7  -3   4-46.2914 108.417   1
  -7   3  -4-90.8992 138.145   5
  -7   3  -4-4.99887 111.852  19
   7   3  -4-66.1032 106.026   8
  -7  -3   4 95.8036 169.394  17
   7  -3   4-63.5976 153.451   8
  -7   3  -4-53.4334 110.446   4
   7   3  -4-197.429 188.795   1
   7   3  -4-13.9866 71.1320  14
   7   3  -4-132.097 175.077  18
   7  -3   5 479.481 242.203  14
  -7   3  -5 228.368 151.896   3
   7   3  -5 703.931 256.775  13
   7  -3   5 797.012 347.014   6
  -7   3  -5 573.227 269.990   4
  -7   3  -5 369.746 206.362  12
  -7   3  -5 653.299 284.861   5
  -7  -3   5 334.323 187.821  19
  -7  -3   5 370.935 259.656   2
   7   3  -5 620.182 294.349  18
  -7  -3   5 272.588 238.881  17
   7   3  -5 870.069 277.559   8
   7  -3   5 583.449 274.343   8
  -7   3  -5 486.891 229.170  19
   7   3  -5 637.627 368.992   1
   7  -3   5 646.822 267.739   1
   7   3  -5 231.139 195.525  14
   7  -3   6 586.099 283.860  14
   7   3  -6 726.457 458.570  13
  -7   3  -6 283.224 212.512   3
   7  -3   6 570.584 276.191   6
  -7   3  -6 497.875 295.944  12
  -7  -3   6-5.20737 122.798   5
   7   3  -6 478.590 301.138  20
  -7   3  -6 318.785 125.538   5
  -7  -3   6 609.754 444.813  19
  -7  -3   6 358.196 419.032   2
   7   3  -6 567.984 338.288  18
   7  -3   6 622.201 265.233   1
  -7  -3   6 183.282 306.058  17
  -7   3  -6 352.921 233.273  19
   7   3  -6 702.758 292.368   8
   7  -3   6 376.223 203.415   8
  -7   3  -6 400.136 253.919   4
   7   3  -6 34.1341 169.198  14
   7   3  -6 379.135 351.617   1
   7   3  -7 1833.09 469.027  13
   7   3  -7 1835.29 595.753   1
   7  -3   7 1941.15 453.189   1
  -7   3  -7 1557.40 534.641  12
  -7   3  -7 1378.91 440.548   5
   7   3  -7 2398.84 656.171  11
  -7  -3   7 1187.26 495.313   5
  -7   3  -7 1454.93 504.295  19
  -7  -3   7 1490.44 606.071   2
   7   3  -7 1810.90 530.959  18
   7   3  -7 1860.49 410.777   8
   7  -3   7 1551.65 451.267   8
  -7  -3   7 525.740 237.344   4
  -7  -3   7 1922.59 721.960  17
  -7   3  -7 1454.77 474.665   4
   7  -3   7 1189.11 417.337  16
   7  -3   7 2027.67 558.416   6
   7   3  -7 1140.02 523.477  14
   7  -3   7 1862.49 501.862  14
  -7   3  -7 1136.45 442.788   3
   7  -3   8 447.506 257.556  14
   7  -3   8 593.380 258.022   1
   7  -3   8 491.896 272.988   6
   3   7  -8 374.043 266.036  13
   7   3  -8 395.063 288.964   1
  -7   3  -8-66.3191 129.707  13
   7   3  -8 386.282 227.025  13
  -7   3  -8 224.267 178.686   3
  -7   3  -8 224.569 197.459  12
   3  -7   8-41.8035 112.506   6
  -3   7  -8 107.851 88.2090  12
   7   3  -8 555.016 322.284  11
  -7  -3   8 179.718 168.603   5
  -7   3  -8 254.162 150.886   5
  -7   3  -8 352.441 192.168  20
   7   3  -8 363.072 266.145  20
   7   3  -8 470.483 292.623  10
  -7  -3   8 418.035 200.717  19
  -7   3  -8 161.206 144.312  19
   7   3  -8 418.637 239.232  18
  -7  -3   8 407.454 306.307   2
  -7  -3   8 33.1658 148.517   4
  -3  -7   8 48.7902 152.574  17
  -7  -3   8 27.0675 148.701  17
  -7   3  -8 271.231 199.840   4
   7  -3   8 482.891 244.045   8
   7   3  -8 330.874 142.742   8
  -7  -3   8 119.029 25.1494  16
   7  -3   8 245.950 208.989  16
   7   3  -8 101.767 40.1125  14
  -3   7  -8 262.215 129.967   3
   7   3  -8 274.534 115.336   3
   3   7  -9 4455.41 978.033  13
   7  -3   9 3850.40 683.573   1
   7   3  -9 4063.43 703.871  13
  -7  -3   9 1347.59 389.729   4
   7   3  -9 3758.65 802.996   1
  -7   3  -9 240.146 163.051  13
  -7   3  -9 2330.39 574.562  12
  -3   7  -9 3912.89 747.051  12
   3  -7   9 964.981 419.595   6
  -7   3  -9 2305.34 583.784   5
  -7  -3   9 2787.67 687.276   5
   7   3  -9 4309.66 853.701  11
  -7  -3   9 3363.31 832.844   2
  -7   3  -9 3797.45 566.830   9
  -7   3  -9 3358.40 742.529  20
   7   3  -9 2388.09 610.072  20
  -7   3  -9 2769.65 615.972  19
  -7  -3   9 3082.41 541.269  19
  -7   3  -9 3425.43 574.375  10
   7   3  -9 3742.85 771.095  10
   7   3  -9 3928.36 797.702  18
  -7   3  -9 2501.69 646.717   4
   3   7  -9 2534.55 714.181  18
   7  -3   9 3794.07 745.960   8
   7   3  -9 3147.00 462.491   8
  -7  -3   9 3443.82 865.218  17
  -3  -7   9 144.333 289.963  17
  -7  -3   9 2484.07 511.441  16
   7  -3   9 3829.90 842.754  16
  -3   7  -9 4020.30 838.379   3
   7  -3   9 5509.00 993.398   6
   7   3  -9 3706.63 455.860   3
   7  -3   9 4844.51 869.547  14
  -7   3  -9 1858.05 507.728   3
   7   3  -9 725.859 334.490  14
  -3   7 -10 154.209 182.589   3
   7  -3  10 142.983 150.254   6
  -3   7 -10-42.2477 103.855  13
   3   7 -10 111.780 153.377  13
   7   3 -10 146.346 75.7268   3
  -7   3 -10 50.5409 92.5742  13
  -3  -7  10 14.1512 283.703  17
   3  -7  10 114.598 161.397   6
  -7   3 -10 271.361 248.580  12
  -3  -7  10 114.846 184.711   6
  -7   3 -10 186.222 205.399   3
   7   3 -10 106.097 146.430   1
  -3   7 -10 131.570 119.532  12
  -7  -3  10 155.828 171.093   2
   7   3 -10 281.271 236.350  11
  -7  -3  10 123.908 140.372   5
  -7   3 -10 160.969 206.748  20
  -7  -3  10 176.042 142.414  19
  -7   3 -10 232.088 143.176  10
  -7   3 -10 83.8024 150.517  19
   7   3 -10 940.612 540.772   9
  -7   3 -10 147.009 139.779   9
   3   7 -10 65.4519 166.198  18
   7   3 -10-0.31990 85.4345  18
   7   3 -10 15.9672 158.924  20
  -7  -3  10 66.8105 64.9866   4
  -7   3 -10 74.5484 130.810   4
   7  -3  10 61.1118 146.123   1
   7   3 -10 142.103 214.717  10
  -7  -3  10-38.0099 122.811  17
   7  -3  10 154.680 121.618   8
  -7  -3  10 121.586 147.247  16
   7  -3  10 181.418 188.089  16
   7   3 -10-52.6967 143.272   8
  -7   3 -10 744.669 585.515   7
  -7   3 -10 201.338 385.282  15
   3   7 -10 42.8834 168.462   3
   7   3 -10-81.6728 142.731  14
   7  -3  10 304.918 231.677  14
   7  -3  11 1830.41 595.848   6
   3  -7  11 396.003 215.613  14
  -3   7 -11 437.803 288.794  13
   3   7 -11 1479.25 546.844  13
  -7   3 -11 188.206 160.939  13
   3  -7  11 589.063 343.225   6
  -3  -7  11 299.936 231.373   6
  -3   7 -11 1675.45 507.630  12
  -7   3 -11 842.437 447.384  12
  -7   3 -11 671.838 350.369   3
   7   3 -11 995.849 422.115   1
   7   3 -11 1245.95 427.696  11
  -7  -3  11 867.806 373.642   5
  -7   3 -11 928.056 395.832  20
   7   3 -11 164.798 156.359  20
  -7   3 -11 1007.24 294.809  10
  -7  -3  11 732.625 243.055  19
   7   3 -11 1579.23 588.269   9
  -3   7 -11 709.998 106.313  18
  -7   3 -11 844.582 313.742   9
   3   7 -11 1241.69 526.113  18
   7   3 -11 1432.97 485.196  18
  -7  -3  11 1373.24 528.423   2
  -7   3 -11 482.176 271.400   4
   3  -7  11 126.331 188.758  17
  -7  -3  11 676.428 285.982   4
   7  -3  11 237.145 123.380   1
  -3  -7  11 79.8583 103.095  17
   7   3 -11 650.732 291.330  10
  -7   3 -11 605.572 293.127  19
  -7  -3  11 1508.83 585.011  17
   7  -3  11 1357.46 476.990   8
  -7  -3  11 1151.62 375.930  16
   7  -3  11 1716.35 592.855  16
  -3   7 -11 1229.68 290.221   4
  -7   3 -11 1568.31 753.246   7
   3   7 -11 1402.42 460.931   3
  -7   3 -11 1330.56 652.043  15
  -3   7 -11 1521.54 539.620   3
   7  -3  11 1838.39 546.362  14
   7   3 -11 1419.29 306.579   3
   7   3 -11 213.861 146.959  14
   3  -7  12 663.296 250.860  14
  -3   7 -12 810.516 393.301  13
   3   7 -12 1651.62 582.786  13
  -3  -7  12 358.128 188.481   6
   3  -7  12 714.222 402.689   6
  -7   3 -12 314.753 178.222  13
  -3   7 -12 1607.72 499.750  12
  -7  -3  12 889.450 316.139   4
   7   3 -12 1670.86 561.557  11
  -7  -3  12 1155.05 439.622   5
  -7   3 -12 1067.77 459.101  20
   7   3 -12 1160.48 472.568   1
   7   3 -12-47.1651 401.651  20
   7   3 -12 779.945 378.325  10
  -7   3 -12 841.403 370.062  19
  -7  -3  12 591.017 218.099  19
  -7  -3  12 1288.09 560.890  17
   7   3 -12 991.832 425.906   9
  -3   7 -12 1206.80 383.806  18
  -7   3 -12 603.920 239.265   9
   3   7 -12 1727.25 581.661  18
  -3   7 -12 1835.99 399.584   4
   7   3 -12 1243.28 459.932  18
  -7   3 -12-9.83896 247.984   4
  -7  -3  12 1623.64 592.534   2
   3  -7  12 980.586 415.560  17
  -3  -7  12 315.080 361.160  17
  -7   3 -12 1073.95 329.333  10
   7  -3  12 1678.94 525.251   8
  -7  -3  12 1544.86 463.645  16
   7  -3  12 1580.89 588.868  16
  -7   3 -12 1361.53 680.705   7
   7  -3  12 2490.14 742.401   6
   3   7 -12 1825.73 526.664   3
  -7   3 -12 702.732 431.835  15
  -3   7 -12 1742.42 563.978   3
   7  -3  12 2044.41 640.572  14
   7   3 -12 1642.88 355.148   3
   7   3 -12 175.692 150.972  14
   7  -3  13 1311.67 548.742   6
   3  -7  13 711.514 239.282  14
  -3   7 -13 1408.95 523.240   3
  -3   7 -13 737.579 386.104  13
  -3  -7  13 343.170 275.471   6
   3   7 -13 1256.05 516.476  13
   3  -7  13 870.648 461.850   6
  -7   3 -13 483.298 302.490  13
  -3   7 -13 1209.85 427.377  12
  -3   7 -13 1091.17 204.084   5
   7   3 -13 1045.66 380.563  11
  -7  -3  13 1047.46 410.841   5
  -7   3 -13 627.828 348.676  20
   7   3 -13 748.317 399.301   1
  -7   3 -13 555.941 326.424  19
  -7   3 -13 414.274 207.927  10
   7   3 -13 184.602 48.7062  10
  -3   7 -13 1230.40 380.606  18
   7   3 -13 725.971 411.679   9
  -7   3 -13 40.7317 162.936   9
   3   7 -13 1162.60 488.726  18
  -3   7 -13 1480.50 377.807   4
   7   3 -13 970.978 409.128  18
  -7  -3  13 1117.74 497.478   2
   3  -7  13 943.878 393.915  17
  -7  -3  13 778.317 257.730   4
   7  -3  13 1650.46 494.751   8
  -7  -3  13 1095.18 527.476  17
   7  -3  13 1561.06 596.988  16
  -7  -3  13 1083.08 378.885  16
  -7   3 -13 709.457 542.080   7
  -7   3 -13 745.558 570.421  15
   3   7 -13 1328.72 470.256   3
  -3  -7  13 387.289 317.270  17
   7   3 -13 198.897 172.672  14
   7  -3  13 1626.70 545.704  14
   7  -3  14 2302.68 708.519   6
  -3   7 -14 1587.80 581.914   3
  -3  -7  14 636.707 326.456   6
   3  -7  14 1017.56 527.630   6
  -3   7 -14 918.106 397.206  13
   3   7 -14 1743.09 606.368  13
  -3   7 -14 1778.78 557.487  12
   3   7 -14 1139.35 309.192  12
   7   3 -14 1461.49 435.576  11
  -7  -3  14 1386.41 507.673   5
  -7   3 -14 607.215 398.781  20
  -7   3 -14 617.534 322.792  19
   7   3 -14 769.077 475.684   9
  -7   3 -14 435.194 176.050  10
  -3   7 -14 1931.39 446.230  18
  -3   7 -14 1864.16 438.649   4
   3   7 -14 1942.05 598.107  18
  -7   3 -14-24.7112 294.453   9
   7   3 -14 1270.28 475.642  18
  -7  -3  14 1319.63 362.405   4
  -7  -3  14 1784.65 659.210   2
   3  -7  14 1254.08 413.182  17
  -3  -7  14 654.075 388.588  17
   7  -3  14 2158.62 593.060   8
  -7  -3  14 2132.06 693.063  17
  -3  -7  14-28.5963 358.819  16
   3  -7  14 36.2557 339.284  16
   7  -3  14 1807.24 626.328  16
  -7  -3  14 1467.63 472.944  16
   3  -7  14 171.073 175.742   8
  -7   3 -14 839.704 492.721   7
   7   3 -14 1156.74 463.509   1
  -7   3 -14 325.701 217.005  15
   3   7 -14 1882.52 551.431   3
   7  -3  14 2292.06 694.458  14
   3  -7  14 1147.79 329.851  14
   7   3 -14 483.352 369.601  10
   7   3 -14 158.948 150.150  14
   3  -7  15 635.879 244.451  14
   3  -7  15 829.550 361.554  17
  -3  -7  15 232.323 268.206   6
   3   7 -15 978.401 397.655   3
   3  -7  15 750.224 406.898   6
  -3   7 -15 866.457 441.508   3
   7   3 -15 628.112 364.246   1
  -3   7 -15 471.811 352.574  13
   3   7 -15 746.716 410.656  13
  -3   7 -15 766.296 362.965  12
   3   7 -15 591.513 245.205  12
  -3   7 -15 621.131 282.577   4
   7   3 -15 629.086 360.540  11
  -7  -3  15 629.259 327.793   5
  -7   3 -15 317.931 268.426  20
   7  -3  15 664.920 251.357   2
  -7   3 -15 346.832 278.108  19
  -7   3 -15 92.4153 40.4337  10
   7   3 -15 88.7442 109.331   9
   3   7 -15 876.734 398.445  18
  -3   7 -15 842.899 293.940  18
   7   3 -15 478.360 299.724  18
  -3  -7  15 476.088 308.584  17
  -7  -3  15 596.437 218.776   4
   7  -3  15 1090.90 446.842   8
  -7  -3  15 515.712 366.022  17
  -3  -7  15-72.5060 371.469  16
   3  -7  15 65.7185 359.923  16
   7  -3  15 971.581 506.224  16
  -7  -3  15 628.767 320.335  16
   3  -7  15 30.9857 226.743   8
  -7   3 -15-423.632 631.093   7
  -7   3 -15-423.299 641.507  15
  -7  -3  15 705.911 404.798   2
   7  -3  15 1067.87 514.400  14
   7   3 -15 119.160 142.974  14
   7   3 -15 465.057 443.965  10
   7  -3  15 1504.04 610.607   6
   3  -7  16 603.419 253.605  14
  -3  -7  16 245.404 170.709   6
   7   3 -16 364.566 216.909  10
   3  -7  16 791.631 446.539   6
   3   7 -16 750.457 371.625   3
  -3   7 -16 428.892 255.940   3
  -3   7 -16-52.6152 317.971  13
   3   7 -16 840.406 423.372  13
  -3   7 -16 623.759 270.666  12
   3   7 -16 668.037 223.806  12
   3   7 -16 914.447 280.126  11
  -3   7 -16 1261.22 427.029  11
   7   3 -16 408.216 199.205  11
  -7   3 -16 475.992 352.156  20
  -7  -3  16 677.442 347.859   5
  -7   3 -16 209.556 206.603  19
  -7   3 -16 75.5802 210.803  10
   7   3 -16 149.684 28.3325   1
   7   3 -16 11.7022 98.3910   9
   3   7 -16 1084.51 442.157  18
  -3   7 -16 678.668 277.080  18
  -7  -3  16 675.094 350.152   2
   7   3 -16 538.974 308.404  18
  -3   7 -16 391.992 179.459   4
  -3  -7  16 866.299 546.978  17
   7  -3  16 1211.27 561.411   8
   3  -7  16 897.958 378.395  17
  -7  -3  16 586.444 237.806   4
  -7  -3  16 515.655 347.067  17
  -3  -7  16 66.6505 208.494  16
   3  -7  16 508.324 464.624  16
   3  -7  16 133.105 113.473   8
   7  -3  16 815.999 580.768  16
  -7  -3  16 692.768 345.052  16
   3   7 -16 1415.01 755.035   7
   3   7 -16 1253.48 734.349  15
   7  -3  16 686.249 345.496  14
   7  -3  16 1224.12 533.574   6
  -3  -7  17 303.439 328.529   6
   3  -7  17 740.734 511.516   6
   7   3 -17 504.482 420.997  11
   3   7 -17 1537.72 514.418   3
  -3   7 -17 692.606 381.500   3
  -3   7 -17 962.311 523.337  13
   3   7 -17 1487.61 642.150  13
   3   7 -17 1135.36 357.040  12
  -3   7 -17 1025.07 422.763  12
   3   7 -17 1546.06 600.617  11
  -3   7 -17 2118.05 540.717  11
   3   7 -17 2593.13 1041.96  20
  -7  -3  17 1239.90 484.446   5
   7   3 -17-311.626 469.053  10
  -3   7 -17 1197.89 366.488  18
   7   3 -17-23.2117 277.361   9
   3   7 -17 1059.33 417.772  18
   7   3 -17 315.724 256.477   1
   7   3 -17 714.137 401.233  18
  -7  -3  17 1211.38 553.729   2
   7  -3  17 1815.47 596.587   8
  -3  -7  17 917.404 464.905  17
   3  -7  17 1252.71 420.461  17
  -7   3 -17-117.220 323.685  10
  -7  -3  17 1019.63 568.276  17
  -3  -7  17 743.009 404.263  16
   3  -7  17 840.158 561.051  16
   3  -7  17 408.519 179.508   8
   7  -3  17 1457.92 617.046  16
  -7  -3  17 973.557 412.504  16
   3   7 -17 1064.21 607.032   7
   3   7 -17 881.380 610.728  15
  -7   3 -17-264.159 395.955  20
   7  -3  17 939.764 514.049  14
   7  -3  17 1532.24 629.839   6
   7  -4   0 51.2260 95.6982  14
   7   4   0-318.838 383.212   1
  -7   4   0-116.089 181.899  19
   7  -4   1 656.208 262.661   1
   7  -4   1 769.599 338.423  14
   7  -4   1 621.662 292.345   6
   7   4   1 174.641 52.5777   1
  -7   4  -1 1300.19 358.351   5
   7   4  -1 1695.49 609.346   1
  -7   4  -1 1628.98 464.771  19
   7   4  -1 841.935 224.604  18
  -7  -4   1-67.4249 271.366  17
   7  -4   1 581.959 250.640   8
   7  -4   2 86.7521 91.2762   1
   7  -4   2 71.2476 38.1544  14
   7  -4   2 152.223 93.5931   6
  -7   4  -2 32.4299 158.227  12
  -7   4  -2 171.363 110.246   5
   7   4  -2 296.385 254.248   1
  -7   4  -2 291.118 192.897  19
   7   4  -2 277.600 106.457  18
  -7  -4   2 80.8325 70.7016  17
   7  -4   2 105.747 105.836   8
  -7   4  -2 65.1743 92.1014   4
   7  -4   3 196.856 175.624  14
   7  -4   3 249.110 194.830   6
  -7   4  -3 323.362 188.492  12
   7  -4   3 148.262 105.731   1
  -7  -4   3-277.740 360.905  19
  -7   4  -3 332.734 212.293  19
  -7   4  -3 257.383 164.061   5
   7   4  -3 434.444 294.889   1
   7   4  -3 145.862 102.021  18
   7   4  -3 174.274 123.306   8
  -7  -4   3 44.6804 106.434  17
   7  -4   3 242.214 190.913   8
  -7   4  -3 253.378 175.734   4
   7  -4   4 357.521 199.074  14
   7   4  -4 335.585 180.836  13
   7  -4   4 485.685 278.725   6
  -7   4  -4 361.312 137.533  12
   7   4  -4 550.920 327.755  18
  -7  -4   4 57.8149 157.550  19
  -7   4  -4 549.329 248.788  19
  -7   4  -4 427.260 225.534   5
   7  -4   4 352.679 181.380   1
   7   4  -4 453.314 314.050   1
   7   4  -4 415.537 222.433   8
  -7  -4   4 37.5411 79.6498  17
   7  -4   4 290.701 201.120   8
  -7   4  -4 451.849 238.003   4
  -7   4  -4 169.437 129.855   3
  -7   4  -5-23.7800 52.2348   3
   7  -4   5-16.6524 81.8072  14
   7   4  -5 285.628 266.989  13
   7  -4   5 14.1097 129.059   6
  -7   4  -5-93.3098 125.021  12
  -7  -4   5 1214.60 502.016  19
  -7   4  -5 79.9232 125.265   5
  -7   4  -5 86.2730 145.787  19
   7   4  -5 439.503 297.054  18
   7   4  -5 290.720 146.544   8
  -7  -4   5 705.273 437.683  17
   7   4  -5 507.645 414.328   1
   7  -4   5 20.8102 39.2270   8
  -7   4  -5-11.5756 74.5075   4
   7  -4   5 35.9179 94.0138   1
   7  -4   6 479.798 257.153  14
  -7  -4   6 166.224 232.561  19
  -7   4  -6 184.983 117.734   3
   7   4  -6 516.884 279.467  13
   7  -4   6 515.216 254.534   6
  -7   4  -6 367.638 233.601  12
   7  -4   6 476.321 207.220   1
  -7   4  -6 376.577 197.266   5
  -7   4  -6 433.196 237.539  19
   7   4  -6 493.497 382.209  18
   7   4  -6 526.929 250.432   8
  -7  -4   6 114.517 256.155  17
   7   4  -6 531.800 374.044   1
   7  -4   6 407.570 250.085   8
  -7   4  -6 408.155 246.154   4
   7  -4   7 636.777 272.721  14
  -7   4  -7 356.190 246.614   3
   7   4  -7 783.952 305.590  13
   7  -4   7 661.607 337.839   6
   7   4  -7 717.231 244.400   8
  -7   4  -7 447.756 246.320  12
  -7  -4   7 449.013 306.079   2
  -7   4  -7 717.711 306.901   5
  -7   4  -7 493.111 264.706  19
   7   4  -7 651.825 319.673  18
  -4  -7   7 58.2102 97.7367  17
  -7  -4   7 312.936 271.941  17
   7  -4   7 610.032 308.662   8
  -7   4  -7 576.012 312.622   4
   7   4  -7 549.608 339.899   1
  -7  -4   7 481.624 270.955  19
   7  -4   7 674.802 263.019   1
   4   7  -8 1596.03 575.313  13
   7   4  -8 1770.95 485.506  13
  -7   4  -8 777.077 363.069   3
   7  -4   8 1696.10 535.320   6
   7  -4   8 1338.98 364.378   1
  -4   7  -8 1419.71 432.034  12
   4  -7   8 203.704 213.639   6
  -7   4  -8 1026.73 384.371  12
  -7   4  -8 1204.68 394.175   5
  -7  -4   8 894.326 488.718   2
  -7  -4   8 706.502 260.762  19
  -7   4  -8 1267.87 403.668  19
   4   7  -8 576.040 226.514  18
   7   4  -8 1321.38 495.583  18
   7   4  -8 1523.19 345.398   8
  -4  -7   8-25.4978 144.055  17
  -7  -4   8 854.480 434.614  17
  -7   4  -8 1187.78 415.942   4
   7  -4   8 1127.43 382.110   8
   7   4  -8 1260.61 503.121   1
   7  -4   8 1341.40 437.247  14
  -4   7  -8 1234.34 451.374   3
   7  -4   9 11.5299 68.8671  14
  -7   4  -9-99.1220 199.229  13
   7  -4   9 37.3133 81.3125   6
   4   7  -9 30.4583 46.8259  13
  -7   4  -9 11.6282 43.2567   3
   7   4  -9 38.6925 49.7647  13
   4  -7   9 65.2186 82.1228   6
  -7   4  -9 34.9747 79.8556  12
  -4  -7   9 134.894 177.054   6
   7  -4   9 29.3832 41.2433   1
  -4   7  -9-48.1655 131.544  12
   7   4  -9 136.652 308.278  11
   7   4  -9 319.033 387.438  20
  -7   4  -9 81.0007 165.376   5
  -7  -4   9-63.7982 34.2417  19
  -7   4  -9-43.8123 156.772  19
  -7  -4   9 106.142 152.592   2
   7   4  -9-41.8978 67.3814  18
  -4  -7   9-95.5091 130.121  17
  -7  -4   9-55.4444 148.078  17
   7  -4   9-142.351 269.463  16
  -7   4  -9-135.081 146.778   4
   7   4  -9-19.2425 32.9340   8
   7  -4   9 27.0336 111.370   8
   4   7  -9-128.044 168.558  18
   7   4  -9-61.7100 202.538   1
   7   4  -9-46.3458 92.7825   3
  -4   7  -9 11.7641 70.1763   3
   4   7 -10 1492.60 583.447  13
   7   4 -10 1887.68 536.722  13
   7  -4  10 1836.55 596.359   6
   7  -4  10 1486.85 389.129   1
  -7   4 -10 103.099 98.0645  13
  -7   4 -10 797.191 371.280   3
   4  -7  10 526.345 297.056   6
  -4   7 -10 1637.18 500.353  12
  -4  -7  10 176.405 210.830   6
  -7   4 -10 855.281 351.199  12
   7   4 -10 1970.01 656.218  11
  -7   4 -10 1228.87 406.372   5
   7   4 -10 1359.04 523.200  20
  -7  -4  10 961.559 313.828  19
  -7   4 -10 1149.00 410.713  19
  -7  -4  10 928.171 527.483   2
   4   7 -10 1500.11 580.478  18
   7   4 -10 1375.59 507.816  18
   7   4 -10 1349.45 294.798   8
  -4  -7  10 162.042 306.546  17
  -7  -4  10 1069.63 515.273  17
  -7   4 -10 1159.42 450.074   4
   7  -4  10 1223.69 411.690   8
  -7  -4  10 458.734 187.066  16
   7  -4  10 1187.28 526.651  16
  -4   7 -10 1042.93 265.209   4
  -4   7 -10 1373.02 505.802   3
   7   4 -10 1220.15 299.521   3
   7  -4  10 1769.06 524.577  14
   7   4 -10-148.321 329.396  14
   7   4 -10 1000.72 443.986   1
  -4   7 -11 860.805 400.842   3
   7   4 -11 738.859 239.088   3
   4  -7  11 238.448 196.712  14
   7  -4  11 1010.56 463.503   6
  -7   4 -11 1217.06 429.308  10
  -4   7 -11 175.541 130.595  13
   4   7 -11 951.125 450.871  13
  -7   4 -11 91.4781 92.6094  13
   7   4 -11 779.210 374.970  13
   4  -7  11 103.412 144.593   6
  -4  -7  11 57.5606 65.7472   6
  -7   4 -11 390.487 224.523   3
  -7   4 -11 512.698 239.233  12
  -4   7 -11 545.526 325.761  12
  -7  -4  11 428.556 286.740   5
  -7   4 -11 474.383 288.844   5
   7   4 -11 940.525 499.569  11
  -7   4 -11 827.088 445.655  20
   7   4 -11 459.690 299.656  20
   7   4 -11 1239.95 552.755  10
  -7   4 -11 508.260 275.849  19
  -7  -4  11 501.167 205.580  19
  -7  -4  11 614.614 409.288   2
   4   7 -11 689.929 381.519  18
   7   4 -11 544.678 273.675  18
   4  -7  11 55.4978 145.083  17
  -4  -7  11 186.260 217.780  17
  -7   4 -11 537.198 356.456   4
  -7  -4  11 613.530 346.787  17
   7  -4  11 329.878 224.998   1
   7  -4  11 691.726 309.365   8
  -7  -4  11 367.134 230.588  16
   7  -4  11 683.183 456.093  16
   7   4 -11 190.253 69.5354   8
  -4   7 -11 617.497 238.831   4
   4   7 -11 759.427 338.078   3
   7   4 -11 460.234 315.428   1
   7  -4  11 825.308 347.236  14
   7   4 -12 200.242 191.470   1
  -4   7 -12 227.924 172.187   3
   4  -7  12 200.947 142.717  14
   7  -4  12 457.324 231.209   6
   7   4 -12 467.237 209.510   3
  -4   7 -12 123.712 149.801  13
   4   7 -12 420.177 303.729  13
  -7   4 -12 222.573 221.314  13
  -4  -7  12 111.633 108.060   6
   4  -7  12 224.940 260.817   6
   7   4 -12 527.373 288.509  13
  -7   4 -12 75.5863 108.772   3
  -7   4 -12 130.827 167.125  12
  -4   7 -12 235.403 158.296  12
  -7  -4  12 162.872 213.602   5
   7   4 -12 569.938 410.951  11
  -7   4 -12-14.1474 102.191  20
   7   4 -12 450.917 328.420  20
  -7   4 -12 416.978 238.173  10
   7   4 -12 628.291 446.221  10
  -7   4 -12 158.022 132.028  19
  -7  -4  12 231.829 144.014  19
  -7   4 -12 1109.13 429.416   9
  -4   7 -12 345.505 132.851   5
   4   7 -12 322.761 251.476  18
   7   4 -12 350.713 200.197  18
   7  -4  12 21.0658 93.6559   1
  -4   7 -12 240.060 152.980  18
   4  -7  12 370.959 218.305  17
  -7   4 -12 341.625 224.195   4
  -4  -7  12-165.541 226.870  17
  -7  -4  12 681.335 397.585  17
   7  -4  12 474.620 286.840   8
  -7  -4  12 192.790 154.939  16
   7  -4  12 331.235 284.330  16
  -4   7 -12 280.866 172.209   4
  -7   4 -12 1070.35 744.784   7
  -7  -4  12 313.387 375.750   2
  -7   4 -12 691.250 530.229  15
   7   4 -12-185.922 308.213  14
   4   7 -12 375.460 221.458   3
   7  -4  12 598.964 336.776  14
   4   7 -13 2853.50 800.780  13
   7   4 -13 3238.11 738.022  13
  -4  -7  13 554.379 267.629   6
   7   4 -13 1826.97 614.465   1
  -4   7 -13 1014.28 515.024  13
   4  -7  13 1728.82 610.599   6
  -7   4 -13 387.794 233.255  13
  -7  -4  13 2289.45 755.137   2
  -4   7 -13 2382.16 657.961  12
  -7   4 -13 1198.50 483.902  12
  -7   4 -13 1029.59 404.570   3
  -4   7 -13 2666.93 386.547   5
   7   4 -13 3226.59 808.374  11
  -7  -4  13 1379.06 519.702   5
  -7   4 -13 1579.27 448.578  19
  -7   4 -13 1416.12 615.136  20
   7   4 -13 1298.35 549.146  20
   7   4 -13 2321.73 716.694  10
  -7  -4  13 819.955 248.199  19
  -4   7 -13 2610.64 492.324  18
  -7   4 -13 2182.61 538.655   9
   4   7 -13 2891.34 798.738  18
   7   4 -13 2487.68 692.545  18
   7   4 -13 3396.61 970.062   9
  -4   7 -13 2727.30 581.419   4
   7  -4  13 2694.73 662.254   8
  -7   4 -13 962.186 407.450   4
   4  -7  13 2115.46 534.224  17
  -4  -7  13 916.640 471.361  17
  -7   4 -13 1997.10 526.834  10
  -7  -4  13 2511.60 798.491  17
  -7  -4  13 2023.43 568.677  16
   7  -4  13 2313.71 778.695  16
  -7   4 -13 2701.36 1038.85   7
   7  -4  13 3920.60 950.110   6
   4   7 -13 2625.28 627.363   3
  -7   4 -13 2771.07 928.530  15
   7  -4  13 3151.35 744.800  14
  -4   7 -13 2347.56 688.643   3
   4  -7  13 1737.15 449.778  14
   7   4 -13 2687.59 478.751   3
   4   7 -14 260.446 194.726   3
   7  -4  14 268.777 317.875   6
   4  -7  14 212.416 187.196  14
  -4  -7  14 112.877 210.174   6
  -4   7 -14 226.174 146.297   3
   7   4 -14 325.814 263.960   1
   4  -7  14 225.378 200.579   6
  -4   7 -14 120.610 211.405  13
   4   7 -14 346.970 274.521  13
  -7   4 -14 109.147 152.134  13
   7   4 -14 367.476 172.993   3
  -7   4 -14 304.826 349.142  12
  -7   4 -14 208.056 196.669   3
  -4   7 -14 381.180 278.145  12
  -7  -4  14 76.2435 187.695   5
   7   4 -14 128.583 97.3386  11
  -7   4 -14 192.991 342.745  20
   7   4 -14 20.5532 132.118  20
   7   4 -14 152.850 194.515  10
  -7   4 -14 217.241 177.135  19
  -7   4 -14 360.163 228.123   9
  -4   7 -14 343.112 195.774  18
   4   7 -14 281.708 266.716  18
  -7  -4  14 549.813 388.870   2
   7   4 -14 156.362 170.129  18
  -7   4 -14-119.945 306.896   4
   7   4 -14 363.329 402.896   9
   4  -7  14 239.619 182.371  17
  -7  -4  14 95.7617 57.7798  17
   7  -4  14 370.748 315.997   8
  -4   7 -14 315.168 230.962   4
  -7  -4  14 124.551 135.313  16
   7  -4  14 139.336 14.2634  16
   4  -7  14 42.8768 184.716   8
  -7   4 -14 365.926 483.089   7
  -7   4 -14 161.128 186.311  15
  -7   4 -14 723.974 373.917  10
   7   4 -14-346.278 379.482  14
  -4  -7  14-214.989 258.820  17
   7  -4  14 320.997 226.178  14
   7  -4  15 1204.52 552.183   6
   4  -7  15 888.951 318.679  14
  -4  -7  15 32.1404 259.714   6
   4   7 -15 1041.90 418.762   3
   4  -7  15 1130.97 556.376   6
  -4   7 -15 893.519 443.048   3
  -4   7 -15 567.084 373.132  13
   4   7 -15 856.777 436.769  13
   7   4 -15 881.029 556.483   1
  -7   4 -15 17.1919 244.615  13
  -7   4 -15 922.810 698.123  12
  -4   7 -15 890.550 381.682  12
  -7   4 -15 409.444 441.220   3
   7   4 -15 546.474 584.858  10
  -7  -4  15 557.167 336.640   5
   7   4 -15 1283.89 623.223  11
  -7   4 -15 691.015 553.281  20
   7   4 -15 125.651 587.154  20
  -7   4 -15 654.064 362.634  19
   7   4 -15 776.791 608.503   9
   4   7 -15 890.912 472.706  18
  -4   7 -15 1002.32 281.998  18
  -7  -4  15 972.709 659.595   2
   7   4 -15 813.467 398.086  18
  -7  -4  15 2478.89 1110.30  17
  -4  -7  15 655.975 637.677  17
   4  -7  15 1241.84 417.416  17
  -4   7 -15 1047.27 376.030   4
   7  -4  15 1158.24 453.154   8
  -7  -4  15 1563.86 625.550  16
   4  -7  15 40.7915 220.198  16
   7  -4  15 1162.45 635.440  16
   4  -7  15 333.305 224.149   8
  -7   4 -15 326.832 282.888   9
  -7   4 -15 985.184 697.511   7
  -7   4 -15 868.886 605.917  15
   4   7 -15 1038.03 581.798  15
   7   4 -15 1193.79 388.800   3
  -7   4 -15 569.132 379.137  10
   7  -4  15 1243.32 532.776  14
   4  -7  16 428.853 231.662  14
   7  -4  16 504.213 399.712   6
  -4  -7  16-98.2682 166.098   6
   4   7 -16 463.066 287.153   3
   4  -7  16 133.160 252.830   6
  -4   7 -16 409.887 287.146   3
  -4   7 -16 146.442 216.253  13
   4   7 -16 233.698 201.528  13
  -7   4 -16-148.951 178.390  13
   7   4 -16 184.265 159.515   1
  -7   4 -16 267.395 472.892  12
   7   4 -16 265.828 179.777   3
   7   4 -16 124.006 134.231   9
  -4   7 -16 413.688 232.556  12
  -7   4 -16 537.047 425.585   3
   4   7 -16 187.107 64.5497  12
   4   7 -16 318.879 295.228  11
  -4   7 -16 688.163 275.979  11
  -7  -4  16 411.260 283.023   5
   7   4 -16 257.285 256.626  11
  -7  -4  16 377.919 396.004   2
   7   4 -16-427.578 628.052  20
  -7   4 -16 101.449 95.4541  10
   7   4 -16-111.363 47.7652  10
  -7   4 -16 306.771 187.715  19
  -7   4 -16 75.8477 153.959   9
   4   7 -16 486.706 297.733  18
   7   4 -16 206.696 135.552  18
  -4   7 -16 231.067 149.422   4
  -4  -7  16 383.369 442.764  17
   4  -7  16 468.389 239.130  17
   7  -4  16 525.850 285.114   8
  -7  -4  16 727.353 469.024  17
  -4  -7  16-396.656 446.772  16
   4  -7  16 70.1583 168.849  16
   4  -7  16 224.278 193.363   8
  -7  -4  16 546.669 342.526  16
   7  -4  16 611.157 403.672  16
  -7   4 -16 331.276 371.383   7
   4   7 -16 482.237 483.969   7
  -7   4 -16-140.009 380.034  15
  -7   4 -16 232.731 93.2557  20
   4   7 -16 118.691 248.380  15
   7  -4  16 429.150 311.883  14
   7   5  -2-488.632 389.903   1
  -7  -5   2-70.9193 251.442  17
   7  -5   3-18.9612 43.3593  14
   7  -5   3-47.2840 109.385   6
   7   5  -3-529.434 392.793   1
  -7   5  -3-94.1375 160.174  19
   7   5  -3-577.134 362.405  18
  -7  -5   3-36.3429 240.191  17
   7  -5   3-111.772 260.871   8
   7  -5   4 114.463 123.617  14
   7  -5   4 41.4936 106.352   6
  -7   5  -4 31.8755 31.3286  12
   7   5  -4 40.6218 102.709   1
   7   5  -4 162.590 120.295  18
  -7  -5   4-7.74151 65.1480  17
  -7   5  -4-21.4577 159.241   5
   7  -5   4-18.3156 114.451   8
   7  -5   4 110.683 138.024   1
  -7   5  -4 101.470 59.3946  19
  -7   5  -4-26.4552 142.980   4
   7  -5   5-25.8464 37.5805  14
   7   5  -5-43.2637 149.488  13
   7  -5   5 184.170 187.140   6
  -7   5  -5 80.6301 146.106  12
  -7  -5   5-275.923 378.282  19
  -7   5  -5-18.5401 84.9995  19
   7   5  -5-195.384 276.323   8
  -7   5  -5 62.8796 90.5865   5
   7   5  -5-16.5226 208.989  18
  -7  -5   5-67.1837 64.6130  17
   7  -5   5 83.3255 88.5749   1
   7  -5   5-28.0736 147.988   8
   7   5  -5-9.01660 238.918   1
  -7   5  -5 3.75154 66.0265   4
  -7   5  -5-82.9450 245.346   3
   7  -5   6 173.939 184.359  14
   7   5  -6 248.231 174.468  13
   7  -5   6 241.238 180.499   6
  -7   5  -6 226.847 151.559  12
  -7  -5   6 17.9716 170.762  19
  -7   5  -6 126.014 95.2855  19
  -7   5  -6 195.760 159.588   5
   7   5  -6 111.149 46.3251   1
   7   5  -6 461.495 330.786  18
   7   5  -6 172.225 43.8923   8
  -5  -7   6-283.212 437.744  17
  -7  -5   6-34.5570 74.6994  17
   7  -5   6 138.105 102.036   1
   7  -5   6 171.393 169.220   8
  -7   5  -6 129.551 122.783   4
  -7   5  -6 62.1692 92.9420   3
  -7   5  -7 79.1105 140.401   3
   7  -5   7 78.3366 166.711  14
   7   5  -7 125.398 156.250  13
   7  -5   7-13.1265 78.1677   6
   5  -7   7 14.4948 144.199   6
  -7   5  -7-8.25652 72.8809  12
  -5   7  -7-367.671 244.481  12
  -7  -5   7 45.0656 238.013  19
  -7   5  -7 54.1202 102.536   5
  -7   5  -7 58.1072 127.586  19
   5   7  -7-463.654 555.655  18
   7   5  -7 143.302 225.926  18
   7   5  -7 8.18426 147.518   1
  -5  -7   7 86.7986 158.053  17
   7   5  -7 108.812 129.647   8
  -7  -5   7-88.2053 293.536  17
   7  -5   7 35.5923 100.267   8
  -7   5  -7 44.8261 146.130   4
   7  -5   7 59.1926 100.214   1
   7  -5   8 170.681 171.860  14
  -7   5  -8 96.8264 133.651   3
   5   7  -8 191.079 119.193  13
   7   5  -8 228.107 194.681  13
  -7   5  -8 78.2375 115.379   5
   7  -5   8 56.1620 142.793   6
   5  -7   8-36.0304 120.277   6
  -7   5  -8 214.515 212.893  12
  -5   7  -8 121.614 126.756  12
   7   5  -8 218.161 156.522   8
   7  -5   8 196.643 154.289   1
  -7  -5   8 61.1913 91.0842  19
  -7   5  -8 62.8585 56.0005  19
   5   7  -8 67.1445 173.960  18
   7   5  -8 7.43897 15.8025  18
   7   5  -8 140.234 150.028   1
  -5  -7   8-157.532 363.082  17
  -7  -5   8 231.514 292.704  17
   7  -5   8 181.801 163.557   8
  -7   5  -8 203.194 175.809   4
  -5   7  -8 185.413 139.256   3
   7  -5   9 274.579 184.002  14
  -7   5  -9 307.956 251.715   3
   5   7  -9 450.914 310.547  13
   7  -5   9 465.522 309.430   6
   7   5  -9 457.843 274.129  13
   5  -7   9 67.1417 55.8559   6
  -5  -7   9 27.9775 101.162   6
  -7   5  -9 259.746 200.692  12
  -5   7  -9 483.202 271.712  12
  -7  -5   9 175.344 168.141  19
   5   7  -9 378.795 271.832  18
   7   5  -9 484.957 344.912  18
  -7   5  -9 515.747 253.678   5
  -5  -7   9 128.326 199.932  17
   7   5  -9 131.465 180.825   1
  -7  -5   9 201.147 228.929  17
   7   5  -9 490.737 199.470   8
  -7   5  -9 317.224 229.312   4
   7  -5   9 331.388 197.432   8
   7  -5   9 328.875 160.107   1
  -5   7  -9 211.161 22.7797   4
  -7   5  -9 339.636 218.384  19
  -5   7  -9 187.817 187.598   3
  -5   7 -10 185.953 246.224   3
   7  -5  10 293.096 217.591  14
   5  -7  10 71.6931 115.835  14
  -7   5 -10-7.99546 99.7816   3
   5   7 -10 115.173 146.807  13
   7  -5  10 207.470 209.396   6
   7   5 -10 128.721 185.635  13
   5  -7  10 193.674 252.829   6
  -5  -7  10-28.9200 82.8194   6
  -7   5 -10 142.167 177.618  12
  -5   7 -10 161.446 119.032  12
  -7   5 -10 240.307 199.155   5
  -7  -5  10 167.717 248.219   2
  -7  -5  10 83.3396 111.796  19
   7  -5  10 147.901 56.0720   1
   5   7 -10 352.904 319.197  18
  -7   5 -10 11.3486 135.961  19
   7   5 -10 119.820 40.1458  18
  -5  -7  10-18.0423 187.603  17
  -7  -5  10 155.292 323.728  17
   7   5 -10 150.660 232.808   1
   7   5 -10 228.146 129.934   8
  -7   5 -10 169.681 196.440   4
   7  -5  10 212.573 202.358   8
  -5   7 -10 153.150 99.1950   4
   7  -5  11 29.0964 50.4000  14
  -5   7 -11 63.2984 167.432   3
   5  -7  11 70.1161 123.432  14
   7  -5  11 12.9315 52.7112   1
  -7   5 -11 31.6462 61.2253  13
   7  -5  11 62.3386 143.717   6
   5   7 -11 29.3289 78.0849  13
  -7   5 -11-42.7999 99.2410   3
   7   5 -11-39.2620 63.5596  13
  -5  -7  11-65.6796 97.0302   6
   5  -7  11 44.9308 141.428   6
  -7   5 -11 58.2776 107.506  12
  -5   7 -11 10.1344 52.9247  12
   7   5 -11 535.737 479.380  11
  -7   5 -11 42.3525 51.5414  11
  -7   5 -11 56.5965 157.458   5
  -7  -5  11 74.6315 202.450   2
  -7  -5  11 168.194 161.714  19
  -7   5 -11-53.1319 113.115  19
   5  -7  11-81.9843 130.765   1
  -7  -5  11 224.872 311.700  17
   5   7 -11-37.3878 262.414  18
  -5   7 -11 16.6898 109.937   5
   7   5 -11 56.0129 212.141  18
   5  -7  11 90.0619 87.0313  17
  -5  -7  11 335.722 328.365  17
   7   5 -11 183.457 321.582  20
  -7   5 -11 26.5097 16.0665   4
   7   5 -11-155.863 198.449   1
   7   5 -11 21.2615 49.9873   8
   7  -5  11 199.685 191.167   8
   7  -5  11-298.374 450.531  16
  -5   7 -11 69.2649 92.3853   4
   7   5 -11 10.1538 34.5245   3
   7  -5  12 1265.30 450.571  14
  -7  -5  12 914.567 495.746   2
  -5   7 -12 1025.48 455.432   3
   5  -7  12 640.698 280.431  14
   7  -5  12 1602.14 608.152   6
  -5   7 -12 136.150 93.4068  13
  -7   5 -12 87.9960 121.718  13
  -5  -7  12 110.270 80.7089   6
   5   7 -12 1183.00 508.636  13
  -7   5 -12 521.489 288.512   3
   5  -7  12 581.363 414.849   6
   7   5 -12 1576.47 508.235  13
  -7   5 -12 630.626 335.992  12
  -5   7 -12 1070.23 436.748  12
  -5   7 -12 1237.54 302.720   5
   7   5 -12 1750.82 673.853  11
  -7   5 -12 740.083 343.014   5
   7   5 -12 1469.31 636.556  20
  -5  -7  12 311.945 183.131  19
  -7  -5  12 791.806 260.572  19
  -7   5 -12 1043.48 378.405  19
  -5   7 -12 872.720 266.737  18
   5   7 -12 928.689 476.527  18
   7   5 -12 1206.42 495.487  18
   5  -7  12 855.393 332.242  17
   5  -7  12 459.591 155.926   1
  -5  -7  12 236.762 420.553  17
  -7  -5  12 1180.51 534.065  17
  -7   5 -12 751.569 375.420   4
   7  -5  12 1024.80 407.283   8
  -7  -5  12-33.7082 269.043  16
   7  -5  12 618.292 397.657  16
   7   5 -12 781.047 409.728   1
   7  -5  12 643.054 284.742   1
  -5   7 -12 1260.74 403.406   4
   5  -7  12 150.668 150.410   8
   5   7 -12 958.513 373.209   3
   7   5 -12 1004.17 309.151   3
  -5   7 -13 95.5871 71.6823   5
   5  -7  13-73.1471 120.940  14
   7   5 -13-8.74897 62.4589   3
  -5   7 -13-19.9832 157.800   3
   7  -5  13-47.4968 83.0718   6
  -5  -7  13 119.951 165.641   6
  -5   7 -13-142.009 258.867  13
  -7   5 -13 44.2643 107.475  13
   5  -7  13 73.2003 129.366   6
   5   7 -13 66.1869 163.254  13
   7   5 -13 92.5543 162.020  13
  -7   5 -13-70.2783 161.934   3
  -7   5 -13 20.2811 84.4615  12
  -5   7 -13 4.63604 25.0242  12
   7   5 -13 227.223 349.080  11
  -7   5 -13 340.406 408.931  20
   7   5 -13 391.651 412.011  10
   7   5 -13 161.213 217.079  20
  -7  -5  13 15.9629 76.3068   2
  -7   5 -13-89.1977 124.261  19
  -7  -5  13-59.9565 73.8219  19
   7  -5  13 24.6529 92.2743   1
  -5   7 -13 47.9948 123.191  18
   5   7 -13-27.4711 226.802  18
   7   5 -13 97.3908 171.565  18
  -7  -5  13-221.553 171.986  17
   5  -7  13 17.3602 188.540  17
  -7   5 -13-22.9163 74.0021   4
  -5  -7  13-4.84782 105.087  17
   7  -5  13 11.3787 27.4873   8
  -5   7 -13-24.4699 102.595   4
  -7  -5  13-29.7761 99.4782  16
   7  -5  13 26.8203 175.353  16
   5  -7  13 7.02239 124.817   8
   7   5 -13 122.268 178.337   1
   5   7 -13 9.44084 24.8200   3
   7  -5  13 81.7102 199.409  14
   5  -7  14 1025.22 370.421  14
  -5  -7  14 5.19566 222.124   6
   7  -5  14 1973.95 683.934   6
  -5   7 -14 1491.73 608.240   3
  -5   7 -14 524.370 449.857  13
   5  -7  14 1445.67 601.460   6
  -7   5 -14 27.3133 81.6526  13
   5   7 -14 1694.64 639.124  13
  -7   5 -14 896.368 427.401   3
  -5   7 -14 1490.06 612.202  12
  -7   5 -14 684.581 421.412  12
   7   5 -14 1326.59 1035.76  20
   5   7 -14-441.242 524.082   1
   7   5 -14 1887.54 852.590  11
  -7   5 -14 1407.63 616.592  20
   7   5 -14 928.630 605.655  10
  -7  -5  14 1051.36 831.974   2
  -7   5 -14 866.701 413.386  19
   5   7 -14 1549.73 579.120  18
   7   5 -14 1634.04 664.894  18
  -7   5 -14 528.707 342.823   4
   5  -7  14 1135.85 313.211  17
  -5  -7  14 757.605 653.156  17
  -5   7 -14 1284.45 497.348   4
   7  -5  14 1231.61 460.741   8
   5  -7  14-955.676 542.001  16
   7  -5  14 1124.91 557.037  16
   5  -7  14 542.106 310.737   8
  -7   5 -14 1608.61 530.307  10
   7   5 -14 703.004 645.810   1
  -7   5 -14 1850.08 938.669   7
   5   7 -14 1615.46 513.483   3
   5   7 -14 1620.62 623.191  15
  -7   5 -14 1626.17 787.606  15
   7  -5  14 1863.61 575.859  14
   5  -7  15 15.2021 72.4226  14
  -5  -7  15 131.480 285.155   6
   5   7 -15 61.2694 44.0633   3
   7  -5  15-152.686 366.952   6
   5  -7  15-101.706 182.060   6
  -5   7 -15 27.4825 45.0668   3
  -5   7 -15 5.77737 64.6781  13
  -7   5 -15 18.9049 104.676  13
   5   7 -15 28.7273 239.819  13
   7   5 -15 152.804 350.104  13
  -7   5 -15-29.2137 131.162   3
  -7   5 -15 36.9024 219.245  12
  -5   7 -15-66.6806 114.782  12
  -7   5 -15-141.215 299.758  20
  -5   7 -15 277.029 278.321  11
   7   5 -15 397.254 562.521  11
   5   7 -15-268.598 427.280   1
  -7   5 -15 46.6248 140.687  10
   7   5 -15 156.447 591.263  20
   7   5 -15 1315.05 810.429  10
  -7  -5  15 154.290 413.626   2
  -7   5 -15 544.140 451.134   9
   5   7 -15-80.4888 95.4672  18
   7   5 -15-30.3176 313.923  18
  -7   5 -15-349.470 367.255   4
  -5  -7  15 286.025 527.054  17
  -5   7 -15-103.479 208.938   4
  -7  -5  15 1376.79 855.263  17
  -7   5 -15 183.798 234.735  19
   7  -5  15-193.678 195.792   8
   5  -7  15-511.799 668.810  16
  -7  -5  15 851.158 637.063  16
   7  -5  15-92.1609 237.964  16
   5  -7  15-40.3613 102.290   8
   5   7 -15-40.9002 132.759   7
  -7   5 -15 392.195 497.209   7
   7   5 -15 140.193 322.836   1
   5   7 -15-124.674 112.495  15
  -7   5 -15 394.769 403.788  15
   7   5 -15 848.536 432.298   3
   7  -5  15-154.953 250.246  14
   5  -7  16 225.572 173.584  14
   7  -5  16 418.002 367.675   6
   5   7 -16 95.5731 142.281   3
   5  -7  16 447.569 441.885   6
   7   5 -16 363.410 233.750   3
  -7   5 -16 18.6565 147.336  12
  -5   7 -16 164.208 160.768  12
  -7   5 -16-52.0876 123.574  10
   7   5 -16 551.496 477.398  10
  -7   5 -16 9.03079 132.999  19
  -5   7 -16-200.716 225.786  19
  -7   5 -16 406.223 343.088   9
   5   7 -16 187.751 261.420  18
   7   5 -16 159.431 109.733  18
  -5   7 -16 205.814 189.609   4
  -5  -7  16 211.717 293.823  17
   7   5 -16 1429.48 818.637   9
  -7  -5  16 474.013 503.003  17
   7  -5  16 104.955 213.599   8
   5  -7  16 69.9324 8.06040   8
  -7   5 -16 262.403 450.016   7
  -7   5 -16 179.057 366.504  15
   7  -5  16 427.202 347.181  14
  -5  -7  16 251.659 332.987   6
  -7  -6   3-157.901 459.148  17
   7   6  -4-292.473 438.661  18
  -7  -6   4-20.2409 262.171  17
   7  -6   5 30.4172 48.5896   6
   7   6  -5-509.207 611.707   1
  -7   6  -5-40.1649 250.887  12
   7   6  -5 15.9118 212.079  18
  -7  -6   5 374.434 473.679  17
   7  -6   5-213.327 295.382   8
  -6  -7   6-143.998 390.632  17
   7  -6   6-76.6918 165.568  14
   7  -6   6-22.9836 61.8146   6
  -7   6  -6-84.6108 119.782  12
   7   6  -6-161.499 422.517   1
  -7   6  -6-209.175 258.294  19
  -7   6  -6-175.601 203.383   5
   7   6  -6-72.4429 213.179  18
  -7  -6   6-26.2612 140.736  17
   6   7  -6-154.925 358.442  18
   7  -6   6-117.612 235.057   8
  -7   6  -6-124.648 198.668   4
   7  -6   7 359.383 231.175  14
   7   6  -7 484.654 301.380  13
  -7  -6   7 25.6791 235.092  17
   7  -6   7 251.239 258.021   6
   6  -7   7 58.1191 167.250   6
  -7   6  -7 750.070 343.673  12
  -6   7  -7 440.634 136.521  12
   7   6  -7 96.6539 165.693   1
  -7  -6   7-617.039 480.499  19
  -7   6  -7 452.560 201.761  19
  -7   6  -7 559.599 244.658   5
   7   6  -7 878.907 525.601  18
   7   6  -7 207.903 174.297   8
  -6  -7   7 245.123 317.238  17
   7  -6   7 295.878 169.161   1
   7  -6   7 111.965 40.6513   8
  -7   6  -7 583.907 283.749   4
   6   7  -7 190.161 179.902  18
  -7   6  -7 340.782 244.410   3
   7  -6   8-4.68667 41.2878  14
   6   7  -8 30.7533 103.299  13
   7   6  -8 4.46648 85.0436  13
   7  -6   8 22.8773 76.2042   6
   6  -7   8-76.7292 192.141   6
  -7  -6   8-27.8421 46.9506   6
  -7   6  -8-53.9584 141.637  12
  -6   7  -8 24.3998 97.1680  12
  -7   6  -8 25.9561 95.6525   5
  -7   6  -8-12.0693 82.8515  19
   7   6  -8 144.594 252.944   1
   6   7  -8-101.795 214.832  18
   7   6  -8-35.9101 138.471  18
  -7  -6   8 87.4675 203.911  19
   7   6  -8-2.11799 62.5950   8
  -6  -7   8-61.2821 150.530  17
  -7  -6   8-35.9730 137.248  17
   7  -6   8 6.38355 77.1922   1
   7  -6   8 36.6420 75.5028   8
  -7   6  -8 64.1732 110.351   4
  -6   7  -8-60.0515 190.283   4
  -6   7  -8-252.431 228.811   3
  -7   6  -8 13.3087 114.811   3
  -7   6  -9 110.177 129.551   3
   7  -6   9 30.6578 125.321  14
   6  -7   9 26.9108 135.601  14
   6   7  -9 2.74391 156.438  13
   7   6  -9 65.5336 174.378  13
  -7  -6   9-16.4466 42.2043   6
   7  -6   9 164.322 190.334   6
   6  -7   9 10.8072 113.388   6
  -6  -7   9 35.7636 81.4376   6
  -7   6  -9 105.644 31.0885  12
  -6   7  -9 11.0922 79.0133  12
  -7  -6   9 282.100 286.711  19
   7   6  -9 285.793 302.601   1
  -7   6  -9 42.8364 91.3716   5
  -7   6  -9-25.6043 88.5103  19
  -6   7  -9-72.2835 188.398   5
   6   7  -9 210.578 224.062  18
   7   6  -9 155.198 116.463  18
   7   6  -9 39.5613 103.319   8
  -6  -7   9 125.375 290.281  17
  -7  -6   9 125.326 447.871  17
   7  -6   9-16.5893 123.888   8
  -7   6  -9 162.995 169.610   4
   7  -6   9 52.9985 46.4236   1
  -6   7  -9-9.74607 56.1373   4
  -6   7  -9 31.2746 71.7041   3
  -6   7 -10 94.5095 178.076   3
   7  -6  10 44.5221 154.180  14
  -7   6 -10-10.7707 106.705   3
   6  -7  10 20.9132 116.838  14
  -7  -6  10 27.3620 47.7505   6
   6   7 -10 53.7896 141.810  13
   7   6 -10 11.5067 119.159  13
   7  -6  10-56.5797 129.603   6
   6  -7  10-39.9368 198.529   6
   7  -6  10 11.5963 39.2441   1
  -6  -7  10 6.27576 93.9163   6
  -7  -6  10-25.1554 79.7016  17
  -7   6 -10 16.5148 33.3603  12
   6  -7  10 25.6670 32.3422   1
  -6   7 -10 36.2708 225.357  12
  -6  -7  10-445.030 365.838  19
  -7  -6  10-151.834 159.719  19
  -7   6 -10 33.5264 74.2152   5
  -7   6 -10-51.4589 99.7592  19
   7   6 -10-149.576 275.943   1
  -6   7 -10-24.9495 83.3275   5
   6   7 -10 210.450 297.926  18
   7   6 -10 15.1469 188.714  18
   7  -6  10 96.4193 49.1890  17
  -6  -7  10-260.244 303.165  17
   7   6 -10 22.1079 35.8559   8
  -7   6 -10-29.8717 153.981   4
   7  -6  10-0.62274 35.2694   8
   6  -7  10-182.843 269.324   8
  -6   7 -10-38.9760 49.4365   4
  -6   7 -11 310.514 286.547   3
   7  -6  11 77.4806 120.426  14
   6  -7  11 66.6281 101.125  14
  -7   6 -11 175.049 214.705   3
   6   7 -11 68.1679 137.208  13
   7  -6  11-24.0136 92.0750   6
   7   6 -11-89.0666 208.169  13
  -6  -7  11 11.1275 101.001   6
   6  -7  11-22.5207 42.9349   6
  -7   6 -11 152.277 151.157  12
  -6   7 -11 95.5309 164.207  12
  -7   6 -11 105.320 56.6275   5
  -6  -7  11 71.6715 168.121  19
  -7  -6  11-135.460 117.140  19
   6  -7  11 47.9038 53.5946   1
   7   6 -11 151.163 200.020   1
   6   7 -11-29.9590 132.912  18
   7   6 -11 219.039 259.639  18
   6  -7  11-35.9503 141.236  17
   7  -6  11 54.5526 73.6537   1
  -6  -7  11-59.4147 144.276  17
  -7  -6  11 218.579 361.652  17
  -6   7 -11 83.9030 117.046   5
  -7   6 -11 95.1080 121.730  19
  -7   6 -11 45.9917 96.9984   4
   7  -6  11-20.7860 98.3500   8
  -6   7 -11 87.8773 184.928   4
   6  -7  11-39.4494 217.067   8
  -7  -6  11 32.0878 79.1022   6
   7  -6  12 116.762 144.723  14
   6  -7  12 140.217 177.744  14
  -6   7 -12 14.5110 91.2651   3
  -7   6 -12 42.1889 76.6823   3
  -6  -7  12 27.8964 51.7058   6
  -7   6 -12-26.4428 221.261  13
   7  -6  12 72.3808 161.016   6
   6   7 -12-56.8490 187.525  13
   7   6 -12 66.2570 52.4709  13
   6  -7  12 162.794 250.415   6
   7  -6  12 80.3309 95.7820   1
  -7   6 -12 91.2684 52.2995  12
  -6   7 -12 94.1411 70.2236  12
   6   7 -12-72.1870 404.368   1
   6  -7  12 25.5994 58.3737   1
  -7   6 -12 140.551 197.969   5
  -6  -7  12-94.9588 114.412  19
  -6   7 -12 32.8188 48.8167   5
  -7   6 -12 127.937 143.568  19
   6   7 -12 241.472 258.720  18
   7   6 -12-76.5095 138.422  18
   7   6 -12-69.1482 189.189   1
  -6  -7  12-145.404 221.671  17
  -7  -6  12 107.164 303.320  17
  -7  -6  12 163.814 162.025  19
  -7   6 -12 171.837 160.580   4
   7  -6  12 13.8524 61.6245   8
  -6   7 -12 122.292 80.3413   4
   6  -7  12 83.7127 11.9263   8
   7   6 -12-127.040 195.644   3
   7  -6  13 880.582 397.180  14
   6  -7  13 613.137 327.215  14
  -6  -7  13 11.7283 241.036   6
  -6   7 -13 448.254 316.444   3
  -6   7 -13-73.4096 208.947  13
   7  -6  13 936.695 516.255   6
  -7   6 -13 502.435 356.328   3
  -7   6 -13 21.3719 148.362  13
   6  -7  13 543.617 417.916   6
   6   7 -13 714.876 398.980  13
  -7   6 -13 584.967 314.321  12
  -6   7 -13 641.826 317.118  12
   7   6 -13 1221.77 628.625  11
  -7   6 -13 727.896 323.838   5
   6   7 -13-431.798 580.696   1
   7   6 -13 657.881 588.364  20
  -7  -6  13 255.142 317.772   2
  -6   7 -13 694.069 272.167   5
  -7  -6  13 466.681 255.646  19
  -7   6 -13 590.573 296.305  19
  -6   7 -13 345.155 83.4068  19
   6   7 -13 529.105 341.916  18
   7   6 -13 739.711 488.338  18
   7   6 -13 349.515 349.910   1
  -6  -7  13 261.815 410.994  17
  -7  -6  13 846.761 831.047  17
  -7   6 -13 595.852 362.134   4
  -6   7 -13 862.391 391.771   4
   7  -6  13 649.703 333.643   8
   7  -6  13-145.553 637.139  16
   6  -7  13 420.467 274.287   8
   6   7 -13 456.235 261.398   3
   7  -6  14 55.9760 47.5006  14
   7   6 -14 177.271 161.928   3
   6  -7  14-13.1576 81.0750  14
  -7   6 -14 49.6181 38.1673  19
  -6   7 -14-105.209 255.376   3
   7  -6  14 66.3082 172.579   6
  -6   7 -14-8.08138 40.6104  13
   6  -7  14 19.7542 221.166   6
  -7   6 -14-35.8138 176.944  13
  -7   6 -14-9.23962 53.5043   3
   6   7 -14-141.682 70.5039  13
   7   6 -14 513.924 404.463  13
  -7   6 -14 74.4120 74.6136  12
  -6   7 -14 14.6450 152.327  12
   7   6 -14-102.012 120.578  11
   7   6 -14 454.770 600.837  20
   6   7 -14-102.207 144.298   1
  -7  -6  14-9.59444 275.171   2
  -6   7 -14-154.791 231.274  19
   6   7 -14-18.2651 153.274  18
   7   6 -14-225.125 258.097  18
   7   6 -14 147.009 291.946   1
  -7   6 -14-34.1704 156.330   4
  -6  -7  14 568.091 483.414  17
  -7  -6  14 282.847 445.979  17
  -6   7 -14-106.936 146.181   4
   7  -6  14-17.7964 140.586   8
   7  -6  14-258.501 533.725  16
   6  -7  14 73.3559 137.506   8
   6   7 -14-189.807 164.347   3
   6   7 -15 299.658 246.506   3
   7   6 -15 425.846 255.166   3
  -6  -7  15 450.801 529.811  17
  -7  -6  15 500.361 586.460  17
   7   7  -5-593.524 727.291  18
  -7  -7   5 374.553 507.155  17
  -7  -7   6-133.296 322.864  17
   7   7  -6-8.59674 363.172  18
   7  -7   7-26.4922 112.742   6
   7   7  -7-194.546 322.249  18
  -7  -7   7 310.710 448.516  17
  -7   7  -7-144.412 255.360   4
   7  -7   8 266.202 193.705  14
   7   7  -8 1006.52 435.138  13
   7  -7   8 338.850 302.264   6
  -7   7  -8 902.802 427.935  12
  -7   7  -8 685.758 235.483   5
   7   7  -8 983.955 475.593  18
  -7  -7   8 3.44604 193.924  17
   7  -7   8-150.587 338.884   8
  -7   7  -8 716.518 324.592   4
  -7   7  -8 481.203 162.601   3
   7  -7   9 16.3846 81.8558  14
   7   7  -9-174.597 192.842  13
   7  -7   9 21.5622 91.8305   6
  -7  -7   9-6.07871 47.1707   6
  -7   7  -9 3.68658 44.9681  12
  -7   7  -9 59.1273 106.986   5
   7   7  -9-99.2935 173.363  18
  -7  -7   9-210.592 340.116  19
   7   7  -9-229.870 302.520   8
   7  -7   9 30.8726 71.7258   1
  -7  -7   9-233.190 293.917  17
   7  -7   9-185.920 343.304   8
  -7   7  -9 3.18550 20.3232   4
  -7   7  -9-33.0569 116.235   3
   7  -7  10-7.79780 106.469  14
   7   7 -10 177.522 119.011  13
   7  -7  10 41.0493 105.101   6
  -7  -7  10 55.7758 114.220   6
  -7  -7  10 103.527 212.383  19
  -7   7 -10 214.375 195.382  12
   7   7 -10-176.329 467.549   1
   7   7 -10 255.907 340.458  18
  -7   7 -10 129.484 138.327   5
  -7  -7  10 446.100 509.736  17
   7  -7  10-19.8075 227.252   8
  -7   7 -10 105.839 53.1383   4
   7  -7  10 67.1336 86.0570   1
  -7   7 -10 48.7571 79.7534   3
  -7   7 -11-46.6172 174.741   3
   7  -7  11 76.5653 201.297  14
   7   7 -11-11.7942 71.4350  13
   7  -7  11-140.259 185.684   6
  -7   7 -11-56.5117 86.0184  12
   7   7 -11-188.987 408.726   1
  -7  -7  11 70.9701 82.0656  19
  -7   7 -11 44.7722 32.3631   5
   7  -7  11 40.6197 126.836   1
   7   7 -11 384.755 375.795  18
  -7  -7  11-2.31512 91.3673  17
  -7   7 -11 128.704 185.812   4
   7  -7  11-11.2205 175.883   8
   7  -7  12 133.180 235.231  14
  -7   7 -12 23.6201 144.694   3
   7   7 -12 98.5482 117.702  13
   7  -7  12 455.207 381.528   6
  -7   7 -12-0.12467 76.7268  12
  -7   7 -12 92.4703 120.538   5
  -7  -7  12 291.313 202.064  19
  -7   7 -12-108.317 242.571  19
   7   7 -12-36.8504 157.739  18
  -7  -7  12 58.8532 225.220  17
   7   7 -12-287.004 511.004   1
  -7   7 -12 0.24787 58.1049   4
   7  -7  12 27.6592 97.4935   8
   7  -7  13-22.7238 187.381  14
  -7   7 -13 232.277 262.481   3
   7  -7  13-37.9631 91.4940   6
   7   7 -13 28.6249 109.937  13
  -7   7 -13 36.2294 42.1862  12
  -7   7 -13-24.2257 156.213  19
   7   7 -13-112.729 184.493  18
  -7  -7  13-315.275 452.698  17
   7   7 -13 15.3519 98.0727   1
  -7   7 -13 36.7463 107.174   4
   7  -7  13 163.027 190.903   8
   8   0   0 337.286 180.613   6
  -8   0   0 125.838 132.910  12
   8   0   0 551.344 191.954  11
   8   0   0 270.505 206.028   1
  -8   0   0 276.889 222.078   5
  -8   0   0 177.554 109.625  19
  -8   0   0 261.098 141.659   2
   8   0   0 225.239 149.034  18
  -8   0   0 167.042 166.825   4
  -8   0   0 57.6095 41.1195  17
   8   0   0 295.698 220.106   8
  -8   0   0 338.909 247.826  15
  -8   0   0-26.0614 69.7666   3
   8   0   0 217.611 202.415  14
   8   0   1-51.5240 97.1837   6
   8   0  -1-55.4440 93.4885   6
  -8   0  -1-60.2228 72.6524   3
   8   0  -1-65.4726 49.6381  13
   8   0   1-31.9192 123.763   1
  -8   0  -1 23.1783 67.8164  12
  -8   0   1-50.9266 87.0430  12
   8   0   1-3.29068 54.7918  11
   8   0  -1-1.02975 44.6045  11
  -8   0  -1-4.51233 34.2025   5
  -8   0   1-25.3595 47.0963   5
  -8   0  -1-37.5540 92.2028   2
  -8   0  -1 44.6626 75.0096  19
  -8   0   1 51.4818 114.940  19
   8   0  -1 14.8369 31.5222   1
  -8   0   1 91.6617 149.082   2
   8   0   1-43.2777 103.224  18
   8   0  -1 32.2090 97.3178  18
  -8   0  -1-1.85627 96.7761   4
  -8   0  -1-104.132 131.309  17
   8   0   1-9.40215 87.4328   8
  -8   0   1-15.2000 49.3213  17
  -8   0   1-26.1637 105.506   4
   8   0  -1 42.7518 108.166   8
  -8   0  -1 93.8769 226.428   7
  -8   0  -1-5.10922 20.6167  15
   8   0   1-54.8521 135.299  14
   8   0  -1 6.26623 112.735  14
   8   0   2 826.103 306.892   6
   8   0   2 1194.70 449.647   1
  -8   0  -2 331.096 149.643   3
  -8   0  -2 591.435 315.487  12
  -8   0   2 190.356 115.023  12
   8   0   2 1106.15 210.667  11
  -8   0  -2 516.375 317.537   5
   8   0  -2 576.180 187.155  11
  -8   0   2 860.417 377.864   5
  -8   0   2 583.909 297.469  19
   8   0   2 974.554 274.668  18
   8   0  -2 684.176 255.928  18
   8   0  -2 893.567 370.167   1
  -8   0   2 867.417 299.092   2
  -8   0  -2 584.560 298.339   4
  -8   0  -2 355.499 173.772  17
   8   0   2 924.600 372.473   8
   8   0  -2 844.460 306.390   8
  -8   0   2 388.764 217.450  17
  -8   0   2 633.587 291.089   4
  -8   0  -2 572.454 289.861   7
  -8   0  -2 421.793 225.606  15
   8   0  -2 1111.77 283.988   6
  -8   0  -2 470.821 225.048  19
   8   0   2 1057.00 412.635  14
   8   0  -2 715.902 314.452  14
   8   0  -3-8.77877 19.1804  14
   8   0   3-96.6953 111.129   6
   8   0  -3-99.2189 78.6811   6
  -8   0   3 22.4826 99.7366  19
   8   0   3 10.7164 82.9793  11
  -8   0  -3-134.716 256.246   5
   8   0  -3-424.077 223.887  11
  -8   0   3-43.6428 99.1389   5
   8   0   3-45.9755 71.4317  18
   8   0  -3-124.853 129.016  18
  -8   0  -3-80.8198 176.478   4
  -8   0   3-62.5173 88.0096   2
   8   0   3-112.665 119.520   8
  -8   0  -3-72.4954 73.4397  17
  -8   0   3-178.183 151.402  17
   8   0  -3-32.9729 181.118   1
  -8   0  -3-140.546 148.010  19
   8   0  -3-55.3289 126.626   8
  -8   0   3-83.1849 144.103   4
   8   0   3-32.9587 88.2552  16
  -8   0  -3-49.2655 190.103   7
  -8   0  -3-70.0446 144.265  15
   8   0   3-85.4395 110.363   1
   8   0   3 91.2058 201.602  14
   8   0   4 256.168 264.670   6
   8   0  -4 486.765 271.995  14
   8   0  -4 283.915 138.249   6
  -8   0  -4 46.9818 227.087   5
  -8   0   4 740.028 347.949  19
   8   0  -4 616.390 364.587  11
  -8   0   4 307.893 241.135   5
  -8   0  -4 203.530 309.710  19
   8   0   4 302.345 183.327  18
   8   0  -4 203.219 245.050  18
  -8   0  -4-52.3457 127.051   4
   8   0   4 64.1544 126.986   8
  -8   0  -4 339.415 228.666  17
  -8   0   4 302.222 208.787   2
  -8   0   4 527.486 411.969  17
   8   0  -4 329.670 236.327   8
  -8   0   4 206.680 207.681   4
   8   0   4 94.2255 57.3198  16
   8   0   4 198.773 252.945   1
  -8   0  -4-129.734 243.991   7
  -8   0  -4-140.641 310.975  15
   8   0  -4 415.571 269.091   1
   8   0   4 139.871 201.259  14
   8   0  -5 152.054 168.274  14
   8   0  -5 188.666 199.041   1
   8   0   5 394.433 187.424   1
   8   0  -5 332.133 130.541   6
   8   0  -5 455.875 88.2424  11
  -8   0   5 95.7287 157.772   5
   8   0   5 131.589 96.7501  18
  -8   0   5 61.8578 95.6709  19
   8   0  -5 182.205 143.740  18
  -8   0  -5 204.054 142.204   4
   8   0   5 309.546 306.272   8
  -8   0  -5 480.747 206.277  17
  -8   0   5-74.9068 124.858  17
  -8   0   5 38.5165 20.6052   2
   8   0  -5 308.226 187.964   8
  -8   0   5-178.108 140.302   4
   8   0   5 225.499 210.605  16
  -8   0  -5-697.086 389.997   7
  -8   0  -5 236.650 266.336  19
  -8   0   5 69.7240 50.2542  16
  -8   0  -5-154.961 383.240  15
   8   0   5 338.484 395.069  14
   8   0   5 332.539 259.341   6
   8   0  -6 299.319 198.613  14
   8   0  -6 173.307 176.903   1
   8   0  -6 336.937 118.443   6
   8   0  -6-5.25107 22.7502  11
  -8   0  -6-187.864 119.234  19
  -8   0  -6-270.704 187.706  17
  -8   0   6 300.160 196.840  19
   8   0   6 358.636 171.126  18
  -8   0   6 240.752 140.261   5
  -8   0  -6-415.722 411.076   4
   8   0  -6 181.875 120.167  18
   8   0   6 258.804 186.735   1
   8   0   6 278.304 241.377   8
  -8   0   6 86.9320 115.364  17
  -8   0   6 394.755 196.849   2
   8   0  -6 215.038 167.584   8
  -8   0   6 407.430 220.182   4
   8   0   6 351.839 179.927  16
  -8   0   6 134.012 66.2904  16
   8   0   6 456.284 310.734  14
   8   0   6 391.774 233.153   6
   8   0  -7 47.1989 113.005  14
   8   0  -7-13.5526 40.0800   6
   8   0  -7-15.9352 64.5051   1
   8   0  -7 26.8414 8.20997  11
  -8   0  -7 121.423 170.557  19
   8   0   7 39.1839 179.310   1
  -8   0   7-111.719 110.839  19
   8   0   7 118.629 125.284  18
   8   0   7 71.0301 56.3671   8
   8   0  -7-39.3331 105.238  18
  -8   0  -7 40.3228 95.4885  17
  -8   0   7-69.9792 159.869  17
  -8   0   7 8.07503 12.4440   2
  -8   0   7 58.3132 139.676   4
   8   0   7 85.3381 153.956  16
  -8   0   7-40.0403 7.36690  16
  -8   0   7-38.4378 101.722   5
   8   0   7 52.6204 122.321  14
   8   0   7-81.6687 179.510   6
   8   0  -8 77.0623 112.673  14
   8   0   8-47.7638 201.650   1
   8   0  -8-16.8496 63.6817  11
  -8   0  -8-119.057 157.045  19
   8   0  -8-38.5742 134.243   1
  -8   0   8 80.7770 118.558   5
  -8   0   8-60.9651 101.661  19
   8   0   8 38.4939 83.4382  18
   8   0  -8 90.0309 123.963  18
  -8   0  -8 223.246 178.518  17
   8   0   8 26.3664 101.883   8
  -8   0   8-60.2086 161.842  17
  -8   0   8 33.7126 116.880   2
  -8   0   8-3.89510 5.42440   4
   8   0   8 93.5173 179.697  16
  -8   0   8-44.3158 34.4555  16
   8   0   8-0.97358 88.2440  14
   8   0   8-0.84191 143.277   6
   8   0  -9 29.2186 55.5512  14
   8   0  -9-18.2599 86.3138  11
  -8   0  -9 25.4440 39.1621  19
  -8   0   9 52.1667 29.7486   5
   8   0  -9 92.6861 86.9766   1
   8   0  -9-154.129 184.036  18
  -8   0  -9 44.9330 52.8068  17
   8   0   9-37.5084 158.014   8
  -8   0   9-75.0931 140.260   2
  -8   0   9-33.1895 52.4242   4
   8   0   9 40.7760 43.0017  16
  -8   0   9 32.8727 38.1761  16
   8   0   9-15.1983 16.0344  14
  -8   0   9-58.2677 136.052  17
   8   0   9-25.4690 98.3046   6
   8   0 -10 135.917 116.275  14
   0   8 -10-33.4593 285.008  13
   0  -8  10-56.1679 96.9643   6
   8   0 -10-24.1139 76.9584  11
  -8   0 -10 401.160 312.475  19
  -8   0  10 266.082 190.480   5
   8   0 -10 15.2081 83.6565  18
   8   0  10 340.392 221.957   8
   8   0 -10 224.500 163.900   1
  -8   0  10 185.544 198.464  17
   8   0  10 412.828 320.762  16
  -8   0  10 443.374 236.242   2
  -8   0  10 227.706 148.357   4
  -8   0  10 158.945 145.658  16
   8   0  10 291.053 275.815  14
   8   0  10 286.988 280.677   6
   8   0 -11-81.5101 133.103  14
   0   8 -11-95.2898 184.364  13
   0  -8  11 62.7512 131.170   6
   8   0 -11-66.0135 163.357  11
  -8   0 -11 213.006 298.043  19
  -8   0  11-9.22419 26.5963   5
   0   8 -11-404.221 415.944  18
   8   0 -11 22.5955 117.112  18
   8   0  11 59.0857 82.9484   8
  -8   0  11-132.054 247.299  17
   0  -8  11 116.473 308.169  17
   8   0 -11 65.0082 102.072   1
   8   0  11 54.6229 202.948  16
  -8   0  11-158.837 187.255   4
  -8   0  11 83.9984 134.485  16
  -8   0  11 7.01942 52.9360   2
   8   0  11-104.820 268.579  14
   8   0  11 151.656 273.069   6
   0   8 -11-12.2317 137.494   3
   8   0 -12 365.519 200.856  14
   0   8 -12 1356.25 585.651  13
   0  -8  12 446.055 268.333   6
   8   0 -12 157.659 87.1426  11
  -8   0 -12 0.46023 141.519  19
  -8   0  12 1191.26 417.902   5
   0   8 -12 1258.05 483.939  18
   8   0 -12 254.006 207.685  18
   8   0  12 1036.96 421.965   8
   0  -8  12 67.5595 235.554  17
  -8   0  12 1231.43 536.761  17
   8   0  12 1420.81 538.318  16
  -8   0  12 798.443 329.941  16
  -8   0  12 1043.84 326.134   4
  -8   0  12 1228.94 489.532   2
   8   0 -12 497.655 285.947   1
   0   8 -12 1636.00 559.423   3
   8   0  12 1144.09 445.052  14
   8   0  12 1453.83 608.607   6
   0   8 -13 90.9089 195.786   3
   8   0 -13 6.55051 79.3656  14
   0   8 -13-67.7766 219.714  13
   0  -8  13 16.7824 45.3462   6
   0   8 -13-82.4568 200.397  12
   8   0 -13-149.555 344.500  11
  -8   0  13 14.2292 113.310   5
   0   8 -13-172.732 212.784  18
  -8   0 -13-80.2983 115.697  19
   8   0 -13-11.6191 87.9566  18
   8   0  13 135.663 224.725   8
   0  -8  13-124.546 39.6490  17
  -8   0  13-28.8946 84.6009  17
   8   0  13-124.861 146.121  16
  -8   0  13-88.9003 200.539  16
  -8   0  13 14.0972 144.083   2
   8   0  13-376.583 601.577  14
   8   0  13-334.637 406.367   6
   8   0 -13-21.0113 137.643   1
   8   0 -14 348.320 196.168  14
   8   0 -14 490.445 285.948   1
   0   8 -14 1315.55 598.832  13
   0  -8  14 770.133 403.838   6
   0   8 -14 1356.96 458.452  12
   8   0 -14-239.477 435.103  11
  -8   0 -14-474.432 412.260  19
  -8   0  14 1204.99 458.207   5
   0   8 -14 1461.52 513.536  18
   8   0 -14 65.5314 118.592  18
   8   0  14 1555.49 565.393   8
   0  -8  14 471.941 334.526  17
  -8   0  14 1297.75 555.431  17
   8   0  14 1389.68 561.636  16
  -8   0  14 890.744 374.763  16
  -8   0  14 1517.80 572.041   2
   0   8 -14 1584.13 568.524   3
   8   0  14 1077.95 361.310   6
   8   0 -15-41.0282 56.6470  14
   0   8 -15-18.1883 111.782   3
   0  -8  15-53.7438 76.2659   6
   0   8 -15-90.4040 59.5693  13
   8   0 -15 78.3095 172.396   1
   0   8 -15 86.2019 190.797  12
  -8   0 -15-191.010 262.976  19
  -8   0  15-79.0649 128.059   5
   0   8 -15-0.71282 145.102  18
   8   0 -15-267.468 349.997  18
   8   0  15-110.385 122.146   8
   0  -8  15 138.520 263.098  17
  -8   0  15-275.963 359.374  17
   8   0  15 190.919 296.301  16
  -8   0  15 50.7398 68.1164   2
   8   0  15-629.658 787.626   6
   8   0 -16 199.342 190.958  14
   0   8 -16 458.104 310.410   3
   0  -8  16 81.1727 142.551   6
   0   8 -16 328.683 295.663  13
   8   0 -16 153.009 186.318   1
   0   8 -16 370.702 281.527  12
  -8   0 -16 26.2598 179.599  19
  -8   0  16 391.001 281.138   5
   0   8 -16 455.603 269.812  18
   8   0  16 292.746 249.308   8
   0  -8  16 158.938 159.544  17
  -8   0  16-152.997 395.799  17
   8   0  16 512.555 461.620  16
  -8   0  16 411.659 331.413   2
   8  -1   0 239.082 185.685  14
  -8   1   0 241.396 209.465  19
   8  -1   0 146.756 113.162   6
  -8  -1   0 34.2068 28.3745   3
  -8  -1   0 320.852 216.766  12
  -8   1   0 105.802 85.0362  12
  -8  -1   0 167.446 210.553   5
   8  -1   0-182.736 176.745  11
  -8   1   0 180.414 124.360   5
  -8   1   0 276.219 143.489   2
  -8  -1   0 129.914 108.906  19
   8   1   0 163.483 112.346  18
   8  -1   0 103.532 104.236  18
  -8  -1   0 82.2023 22.9749   4
  -8  -1   0-18.1768 120.096  17
   8   1   0 361.983 218.009   8
  -8   1   0 105.003 90.4887  17
   8  -1   0 154.302 84.9297   8
   8  -1   0 288.186 182.915   1
  -8   1   0 279.171 178.380   4
   8   1   0 283.153 123.595   9
   8   1   0 228.488 233.997  14
   8   1   0 86.8431 24.0629   6
   8   1   0 175.288 157.327   1
   8  -1   1 1093.69 394.199  14
   8  -1  -1 924.273 355.203  14
   8   1  -1 170.958 59.2175  13
   8   1  -1 1307.75 488.029   1
  -8  -1   1 434.217 156.967  12
  -8   1  -1 509.015 208.244  12
  -8   1   1 228.830 116.754  12
  -8   1  -1 1089.49 280.972   2
  -8  -1  -1 526.123 357.960   5
   8   1  -1 1625.65 367.411  11
  -8   1   1 1079.32 295.218   2
  -8  -1   1 712.821 376.921   5
  -8   1  -1 669.214 179.818  20
   8  -1   1-188.819 171.213  11
   8  -1  -1-219.145 184.380  11
  -8   1  -1 969.540 383.847   5
  -8  -1   1 642.293 295.679   2
  -8   1   1 1014.81 407.343   5
  -8  -1   1 344.374 241.585  19
  -8   1  -1 899.187 365.750  19
  -8   1   1 866.155 362.250  19
   8   1  -1 883.565 221.094   9
   8   1   1 1280.61 348.328  18
   8   1  -1 1257.03 355.618  18
  -8  -1  -1 539.910 340.559  19
   8  -1   1 1068.99 378.417   1
   8  -1   1 571.749 200.936  18
   8  -1  -1 459.061 178.620  18
  -8  -1  -1 249.232 242.027   4
  -8  -1   1 616.044 295.967   4
  -8  -1  -1 299.384 175.914  17
   8   1   1 1178.87 414.466   8
  -8  -1   1 777.618 309.039  17
   8   1  -1 1307.13 420.632   8
  -8   1  -1 261.645 117.237  17
   8  -1   1 930.926 338.067   8
  -8   1   1 528.292 222.746  17
  -8   1  -1 858.946 349.174   4
   8  -1  -1 993.584 347.834   8
  -8   1   1 1049.89 376.102   4
  -8  -1   1-106.564 257.952   7
   8  -1   1 1399.23 392.763   6
   8  -1  -1 1226.02 328.055   6
   8   1   1 1414.05 502.572   1
   8  -1  -1 865.505 332.836   1
  -8   1  -1-25.2338 68.0531   3
   8   1   1 1090.48 453.445  14
   8   1   1 581.540 230.252   6
   8   1  -1 1038.91 417.119  14
   8   1  -1 680.028 223.496   6
   8  -1  -2 107.481 152.100  14
  -8   1  -2-66.9228 123.669   3
   8  -1   2 120.660 132.570   6
  -8   1  -2 41.7905 30.8241   2
   8   1  -2-17.1109 30.3697  13
   8  -1  -2 102.903 121.580   1
   8  -1  -2 78.7220 100.539   6
   8   1  -2 166.442 211.395   1
  -8   1  -2-16.0428 56.3147  12
  -8  -1   2 29.0242 80.2228  12
   8   1  -2 330.839 250.752  11
  -8  -1   2 170.541 183.849   2
  -8  -1   2-8.91310 32.0992   5
  -8   1  -2 20.9681 22.7671  20
  -8   1  -2 44.7248 68.3596   5
   8  -1   2-45.6793 135.934   1
  -8  -1  -2-37.8299 113.966  19
  -8   1   2 147.688 95.5629   5
  -8  -1   2 599.890 325.755  19
  -8   1  -2-26.4449 130.528  19
  -8   1   2 79.5652 36.3685  19
   8   1  -2 326.751 107.403   9
   8   1   2 35.9226 76.9103  18
   8   1  -2 148.832 129.591  18
   8  -1   2 34.3139 25.2153  18
   8  -1  -2-39.7747 89.8696  18
  -8  -1  -2-238.381 292.967   4
   8   1   2 43.6177 162.844   8
  -8  -1  -2-129.086 136.154  17
  -8  -1   2 15.5088 77.0822   4
  -8  -1   2 820.690 393.748  17
   8   1  -2 163.365 183.188   8
  -8   1  -2-68.5012 172.259   4
   8  -1   2-58.8824 102.120   8
  -8   1  -2-93.0301 126.319  17
  -8   1   2 54.1372 56.8244  17
   8  -1  -2 38.7770 58.0338   8
  -8   1   2 68.5930 94.7931   2
  -8   1   2 52.0877 109.703   4
   8   1   2 28.2859 148.758   1
   8   1   2 22.8723 16.5804  16
  -8  -1   2-117.999 180.231   7
  -8  -1   2-166.388 226.796  15
   8   1   2-73.2803 116.166   6
   8   1   2 77.1351 150.037  14
   8   1  -2 157.821 241.714  14
   8   1  -2 181.340 141.967   6
   8  -1   2-10.6323 82.0458  14
   8   1  -3 487.528 240.140   6
   8  -1  -3 386.526 239.169  14
   8  -1   3 371.517 232.331   6
  -8   1  -3 46.8229 46.7064   3
   8  -1  -3 465.084 197.618   6
  -8   1  -3 248.130 230.612  12
   8  -1   3 450.824 300.775   1
  -8  -1   3 893.769 489.548   2
   8  -1  -3 219.297 160.179   1
   8   1  -3 1131.24 535.418   1
  -8   1  -3 240.118 177.691   5
  -8   1  -3 106.463 20.5891  20
  -8   1  -3 194.977 245.240  19
  -8   1   3 276.732 194.498   5
  -8   1   3 356.950 242.157  19
  -8  -1   3 524.965 437.139   5
   8   1   3 586.811 252.899  18
   8   1  -3 675.482 355.737  18
   8   1  -3 1050.13 437.931   8
   8  -1   3 373.215 148.073  18
  -8  -1  -3-312.920 398.663   4
   8  -1  -3 118.533 89.2203  18
  -8  -1  -3 70.2089 271.247  19
   8   1   3 418.057 296.321   8
  -8  -1  -3 86.0800 192.263  17
  -8  -1   3 472.252 334.548   4
  -8   1  -3 278.530 198.045   4
   8   1   3 569.221 403.509   1
   8  -1   3 454.560 264.707   8
  -8   1  -3 214.177 165.647  17
  -8   1   3 175.544 146.171  17
   8  -1  -3 218.822 105.090   8
  -8   1   3 336.104 203.126   4
  -8   1   3 358.409 173.760   2
   8   1   3 338.320 135.835  16
  -8  -1   3 224.329 243.295   7
  -8  -1   3 175.544 195.528  15
   8   1   3 234.166 138.609   6
   8   1   3 399.632 322.734  14
   8   1  -3 860.873 497.038  14
   8  -1   3 477.660 319.197  14
   8  -1  -4 85.9468 141.797  14
   8  -1   4 546.155 331.327   6
  -8   1   4 223.204 197.384   5
   8  -1   4 667.176 468.003   1
   8   1  -4 1509.67 646.164   1
   8   1  -4-337.353 238.174  13
  -8   1  -4 331.655 328.571   3
   8  -1  -4 330.734 187.148   6
  -8  -1   4 1138.00 626.048   5
  -8   1  -4 427.316 393.504   5
  -8   1  -4-2.88163 133.238  20
  -8   1  -4 869.354 602.212  19
  -8  -1  -4 250.585 377.095  19
  -8   1   4 374.346 218.463  19
   8   1   4 590.946 403.116  18
   8  -1  -4 274.737 189.535   1
   8   1  -4 1005.35 475.408   8
   8  -1  -4 65.7625 92.9329  18
   8   1   4 567.365 548.553   1
   8   1   4 390.725 391.801   8
  -8  -1  -4 510.111 318.635  17
  -8   1  -4 274.942 319.312   4
   8  -1   4 215.030 242.605   8
  -8   1  -4 652.525 265.857  17
  -8   1   4 122.139 150.169  17
   8  -1   4 127.291 244.687  16
   8  -1  -4 299.364 201.789   8
  -8   1   4 165.435 173.092   4
   8   1   4 335.175 260.481  16
  -8  -1   4 79.1065 293.320   7
  -8   1   4 245.685 154.004   2
  -8   1  -4 405.583 479.305   7
  -8  -1   4-26.8443 259.993  15
   8   1  -4 295.257 292.760   6
  -8   1  -4 310.246 386.320  15
   8  -1   4 306.960 203.389  18
   8   1   4 453.290 374.886   6
   8   1   4 523.918 521.013  14
   8  -1   4 468.127 420.603  14
   8  -1  -5 146.262 140.731  14
   8  -1   5-63.0036 133.629   6
  -8   1  -5 918.358 538.594  12
  -8   1   5 88.0225 133.138   5
   8  -1  -5 234.735 145.303   6
  -8   1  -5 271.320 245.195   3
  -8   1  -5 300.032 348.722   5
  -8   1  -5 292.517 141.566  20
  -8   1  -5 509.179 336.162   4
  -8   1   5 167.993 175.727  19
   8   1   5 150.996 108.716   1
  -8  -1  -5-21.1259 134.369  17
   8   1   5 178.946 159.380  18
  -8  -1  -5-27.8533 82.7929  19
   8  -1   5 115.127 107.836  18
   8  -1  -5 86.1068 126.784  18
   8   1   5 317.848 455.110   8
   8  -1   5 391.822 316.732   8
   8  -1  -5 84.6077 97.7000   1
  -8   1  -5 75.3949 211.945  17
  -8   1   5 107.737 184.569  17
   8  -1   5 297.721 206.563  16
   8  -1  -5-0.63645 65.2796   8
  -8   1   5 76.2835 119.496   4
   8   1   5 99.6968 69.7042  16
  -8   1  -5 458.686 485.269   7
  -8   1   5 191.560 172.527   2
   8   1  -5 723.427 219.900   6
  -8   1  -5 347.079 256.860  15
  -8  -1   5 292.977 87.9028  15
  -8   1  -5 745.763 533.148  19
   8   1   5 203.842 157.077   6
   8   1   5 169.334 391.966  14
   8  -1   5 239.292 253.042   1
   8  -1   5 145.532 236.789  14
   8  -1   6 27.8975 107.440   6
   8  -1  -6 38.8299 41.8137  14
   8   1  -6 75.5623 69.2218   6
  -8   1  -6 11.3013 142.393   5
   8   1  -6 666.354 440.000  11
  -8   1  -6-355.520 272.281  20
   8   1   6-27.2469 263.063   1
  -8  -1  -6-353.377 361.758  19
  -8  -1   6 244.465 254.131   5
  -8   1  -6 30.4274 164.173  19
  -8  -1   6 333.673 311.361  19
  -8   1   6 191.495 94.9869   5
  -8   1   6 75.7323 54.9082  19
   8   1   6-213.239 222.192  18
   8   1  -6-220.152 95.1430   9
   8  -1   6 30.6898 23.0547  18
   8   1  -6 190.246 258.943  18
   8  -1  -6-33.3023 22.9949  18
  -8  -1  -6-79.8323 178.706  17
  -8   1  -6 60.5748 69.7270   4
   8   1   6 221.942 351.132   8
   8   1  -6 136.251 190.070   1
  -8  -1   6 224.524 268.653   2
   8  -1   6 201.391 179.665   8
  -8   1  -6-37.6155 77.3295  17
  -8  -1   6 147.474 390.541  17
  -8  -1   6 143.826 167.162   4
  -8   1   6-17.3489 137.509  17
   8   1  -6 340.595 268.336   8
  -8  -1   6 78.8581 70.3518  16
   8  -1   6 121.681 140.683  16
   8  -1   6 195.083 202.058   1
  -8   1   6 186.856 161.107   4
  -8   1  -6 96.0451 90.3467   7
   8   1   6 26.6696 33.7415  16
  -8   1  -6 95.8938 165.061  15
   8  -1  -6 15.7279 49.1163   1
  -8   1   6 172.636 166.319   2
   8   1   6-5.24373 30.7063   6
   8   1   6 113.279 202.984  14
   8  -1   6 72.8148 111.149  14
   8   1  -6 26.3205 134.931  14
   8  -1   7 528.826 325.537   6
   8   1   7 184.924 233.452   8
   8  -1  -7 74.6697 97.2681  14
   8  -1  -7 208.637 200.938   1
   8   1  -7 220.322 85.4723   6
  -8   1  -7 9.80520 42.1977  13
   8   1   7-193.732 520.957   1
   8   1  -7 274.468 196.865  11
  -8  -1   7 292.952 224.405   5
  -8  -1  -7-103.555 181.441  19
  -8   1  -7 101.488 166.667  19
  -8  -1   7 131.874 126.390  19
  -8   1   7 306.754 218.944   5
  -8   1   7 49.0446 43.5453  19
   8  -1   7 299.146 113.146  18
   8   1  -7 212.528 158.260  18
   8  -1  -7-16.5542 86.8415  18
  -8   1  -7 111.938 130.126   4
  -8  -1  -7-260.404 268.717  17
  -8  -1   7 157.402 169.575   2
   8  -1   7 347.650 280.612   8
   8  -1   7 370.990 262.680   1
  -8   1  -7 126.724 86.0126  17
  -8  -1   7 27.2022 57.9831  17
   8   1  -7 271.521 191.966   1
  -8   1   7 90.1461 140.183  17
  -8  -1   7 223.695 162.788   4
   8   1  -7 73.1307 53.5403   8
   8  -1   7 194.020 138.392  16
  -8  -1   7 247.927 120.419  16
  -8   1  -7-25.7665 205.223   7
   8   1   7 110.968 65.3824  16
  -8   1   7 89.2829 63.3029   4
  -8   1  -7 134.226 117.172  15
  -8   1   7 245.517 166.896   2
   8   1   7 9.99586 145.507   6
   8   1   7 252.976 223.759  14
   8  -1   7 339.524 269.672  14
   8   1  -7 275.401 201.306  14
   8  -1   8 711.310 362.753   6
   8  -1  -8 242.180 169.483  14
   8  -1  -8 334.373 242.509   1
   8   1  -8 489.621 207.996  11
  -8  -1  -8 144.404 89.1925  19
  -8  -1   8 360.196 240.962   5
  -8   1  -8 159.810 127.804  19
  -8  -1   8 392.552 234.099  19
  -8   1   8 461.806 260.811   5
   8  -1   8 509.407 128.548  18
   8  -1   8 461.969 279.859   1
   8   1  -8 471.006 289.115  18
  -8   1  -8 111.495 219.506   4
   8  -1  -8 26.4497 85.8379  18
   8   1   8 368.833 314.777   8
   8  -1   8 590.003 359.017   8
  -8  -1   8 664.507 300.908   2
  -8   1  -8 84.0202 48.5940  17
  -8  -1   8 574.123 346.763  17
  -8   1   8 243.234 235.631  17
  -8  -1   8 504.467 256.729   4
   8   1  -8 132.373 33.0848   8
   8  -1   8 642.527 294.274  16
  -8  -1   8 514.286 179.267  16
   8   1  -8 322.208 224.776   1
  -8   1  -8-40.9209 217.273   7
   8   1   8 318.874 188.152  16
  -8   1   8 292.387 124.696   4
  -8   1  -8-71.1643 263.443  15
   8   1  -8 415.248 107.582   6
  -8   1   8 458.893 247.444   2
   8   1   8 51.9589 201.181   6
   8   1   8 389.128 316.023  14
   8  -1   8 657.346 376.538  14
   8   1  -8 238.640 173.423  14
   8   1  -9 130.255 154.483  14
   8  -1  -9 16.4756 65.3603  14
  -8   1  -9 53.0770 93.9862  19
   8   1  -9 99.2432 48.5106   6
   8  -1   9 70.4971 209.991   1
   8   1  -9-70.9878 180.419  11
  -8  -1  -9-12.1380 153.399  19
  -8  -1   9 202.043 240.205   5
  -8  -1   9 221.643 178.390  19
  -8   1   9 70.9300 84.7446   5
   8  -1  -9 73.3899 107.322   1
   8  -1   9 222.130 81.3307  18
   8   1  -9 278.949 200.656  18
   8  -1  -9-262.853 218.903  18
   8   1   9 397.551 337.834   8
   8  -1   9 280.083 227.683   8
  -8   1  -9 4.40919 7.36863  17
  -8  -1   9 250.229 198.340   2
  -8  -1   9 196.849 216.913  17
  -8   1   9-63.9758 166.083  17
  -8  -1   9 156.078 115.065   4
   8  -1   9 199.048 194.461  16
  -8  -1   9 170.135 101.738  16
  -8   1  -9-377.690 494.947   7
   8   1   9 177.491 158.190  16
  -8   1  -9-431.044 515.646  15
   8   1  -9 105.738 121.471   1
   8   1   9-209.905 391.490   6
   8   1   9 105.258 146.586  14
  -8   1   9 185.643 179.636   2
   8  -1   9 320.538 260.904  14
   8  -1   9 257.946 205.867   6
   8   1 -10 186.758 159.480  14
   8   1 -10 220.962 172.076   1
   8  -1 -10 146.840 104.883  14
  -1   8 -10-96.0732 306.920  13
   1   8 -10 121.578 134.077  13
   1  -8  10 120.549 196.348   6
  -1  -8  10 111.645 267.379   6
   8  -1  10-182.433 476.393   1
   8   1 -10 140.460 107.236  11
  -8  -1 -10-492.724 509.142  19
  -8   1 -10-73.8995 116.892  19
  -8  -1  10 300.664 181.578  19
  -8   1  10 117.857 104.413   5
  -8  -1  10 340.125 253.983   5
   8   1 -10 210.734 185.147  18
   8   1  10 413.846 297.341   8
  -1  -8  10 240.828 306.638  17
   8  -1  10 325.061 220.090   8
   8  -1 -10 163.976 183.345   1
  -8  -1  10 328.187 248.308  17
  -8  -1  10 430.764 293.881   2
  -8   1  10 21.5668 210.273  17
  -8  -1  10 359.622 223.597   4
   8  -1  10 501.954 281.764  16
  -8  -1  10 264.760 159.499  16
   8   1  10 305.825 224.924  16
   8   1  10-95.2656 349.342   6
   8   1  10-67.6929 278.028  14
  -8   1  10 244.810 207.044   2
  -1   8 -10 325.133 197.002   3
   8  -1  10 753.741 435.605  14
   8  -1  10 383.847 260.619   6
   8   1 -11 486.649 241.670  14
   8  -1 -11 342.571 196.417  14
  -1   8 -11 752.616 417.720  13
   1   8 -11 831.058 465.658  13
   8   1 -11 447.159 288.520   1
   1  -8  11 108.517 181.993   6
  -1  -8  11 152.217 195.165   6
   8   1 -11 524.169 337.653  11
  -8  -1 -11-549.516 497.262  19
  -8   1 -11-155.178 238.943  19
  -8  -1  11 786.690 318.786   5
  -8   1  11 654.459 305.960   5
   1   8 -11 265.829 88.9077  18
   8   1 -11 589.524 294.959  18
   8   1  11 780.344 379.918   8
   1  -8  11 210.306 268.840  17
  -1  -8  11 321.804 371.791  17
   8  -1  11 1223.31 463.110   8
  -8  -1  11 503.048 342.976  17
  -8  -1  11 833.891 396.674   2
  -8   1  11 243.194 197.535  17
  -8  -1  11 838.223 307.973   4
   8  -1  11 1109.22 456.791  16
  -8  -1  11 735.042 295.995  16
   8   1  11 329.722 238.086  16
   8  -1 -11 301.346 265.914   1
  -8   1  11 774.511 364.212   2
   8  -1  11 1237.10 559.857  14
   1   8 -11 932.288 396.643   3
   8  -1  11 1241.11 446.181   6
  -1   8 -11 1072.40 456.801   3
   8   1 -12 212.745 153.730  14
   8  -1 -12 277.771 221.874  14
  -1   8 -12 277.269 237.555  13
   1   8 -12 492.338 361.759  13
   1  -8  12 70.1869 97.2149   6
  -1  -8  12 133.580 163.014   6
   8   1 -12 277.924 224.043   1
  -1   8 -12 256.461 176.499  12
   8   1 -12 244.105 290.226  11
  -8  -1 -12-502.976 488.065  19
  -8   1 -12 53.2635 72.4164  19
  -8  -1  12 46.2942 50.3685   5
  -1   8 -12 147.214 142.593  18
   1   8 -12 462.224 287.361  18
   8   1 -12 145.005 96.9917  18
   8   1  12 422.765 373.054   8
   1  -8  12 19.6968 211.821  17
  -1  -8  12 177.182 254.025  17
   8  -1  12 577.688 349.343   8
  -8  -1  12 593.042 390.044  17
  -8  -1  12 452.402 315.596   2
  -8  -1  12 345.634 212.990   4
   8  -1  12 368.634 123.250   2
   8  -1  12 457.815 294.559  16
  -8  -1  12 257.171 187.995  16
   8   1  12 212.153 208.212  16
   8  -1  12 595.325 364.422  14
  -8   1  12 389.093 287.438   2
   8  -1 -12 193.417 204.237   1
   8  -1  12 340.459 241.972   6
   1   8 -12 333.628 229.284   3
  -1   8 -12 515.331 323.890   3
   8   1 -13 610.724 284.140  14
  -1   8 -13 1383.14 587.973  13
   1   8 -13 1663.92 659.877  13
   1  -8  13 221.294 213.708   6
  -1  -8  13 245.330 166.044   6
  -1   8 -13 1394.15 457.642  12
   8   1 -13 915.389 418.121   1
  -8  -1  13 1512.60 474.747   5
   8  -1  13 1589.12 282.150   2
   8   1 -13 364.114 237.908  11
  -8  -1 -13-499.872 575.821  19
  -8   1 -13 332.002 298.560  19
  -1   8 -13 1460.19 505.894  18
   1   8 -13 1774.00 582.535  18
  -8  -1  13 1506.43 408.409   4
   8   1 -13 696.992 350.859  18
   8   1  13 1093.37 488.958   8
  -1  -8  13 396.564 391.000  17
   8  -1  13 2227.74 691.707   8
  -8  -1  13 1422.84 527.801  17
  -8  -1  13 1554.80 566.925   2
   8  -1  13 1506.42 526.249  16
  -8  -1  13 1087.78 394.333  16
   8   1  13 1203.72 544.688  16
   1  -8  13 498.996 257.633  17
   1   8 -13 1924.08 604.105   3
  -1   8 -13 2051.53 650.020   3
   8  -1  13 2027.01 726.489  14
   8  -1  13 2175.73 712.163   6
   8   1 -14 2.88964 22.9199  14
   1   8 -14 250.927 247.895   3
  -1   8 -14 201.580 188.294   3
  -1   8 -14 151.336 269.395  13
   1   8 -14 93.5834 310.498  13
  -1  -8  14 3.93335 202.473   6
   1  -8  14-21.9968 104.708   6
  -1   8 -14 24.1061 54.3176  12
   1   8 -14-15.3937 180.656  12
   8   1 -14 7.26186 100.488   1
   8   1 -14 38.7898 72.1917  11
   1   8 -14 356.117 263.741  18
  -8   1 -14 141.406 186.543  19
  -8  -1  14 17.2085 16.6612   5
  -1   8 -14 97.5603 127.116  18
   8   1 -14 149.108 205.104  18
   8   1  14-54.9418 236.639   8
   8  -1  14 497.650 412.780   8
   1  -8  14-19.7544 94.0275  17
  -1  -8  14 53.2612 183.447  17
  -8  -1  14 243.827 211.739  17
  -8  -1  14 30.2504 84.8952   2
  -1   8 -14 109.891 71.4315   4
  -8  -1  14 131.436 127.657   4
   8  -1  14 315.528 332.116  16
  -8  -1  14 212.296 216.237  16
   8  -1  14 133.550 91.9827   2
   8  -1  14 108.898 129.574  14
   8  -1  14 282.848 359.236   6
   8   1 -15 463.334 257.835  14
   1   8 -15 1410.86 523.824   3
  -1   8 -15 1541.60 562.359   3
   1  -8  15 392.616 191.250  14
  -1  -8  15 175.994 219.864   6
  -1   8 -15 1397.04 582.911  13
   1  -8  15 852.209 468.880   6
   1   8 -15 1078.56 547.779  13
  -1   8 -15 1319.91 462.257  12
  -8  -1  15 1126.34 421.202   5
   1   8 -15 993.830 358.670  12
   8   1 -15 427.192 306.144   1
   8   1 -15 422.742 364.806  11
  -8   1 -15 144.398 191.545  19
  -1   8 -15 1272.14 446.561  18
   1   8 -15 1685.29 551.617  18
  -8  -1  15 1196.73 363.263   4
   8   1 -15 345.819 245.946  18
   8  -1  15 1392.90 638.576   8
   1  -8  15 857.343 433.458  17
  -1  -8  15 447.338 313.254  17
  -8  -1  15 1180.70 578.753  17
  -8  -1  15 1522.50 601.609   2
   8  -1  15 1509.14 660.560  16
  -8  -1  15 1139.87 423.688  16
   8  -1  15 2259.63 843.734   6
   8  -1  15 655.213 218.764  14
   8   1 -16 63.7628 106.344  14
   1   8 -16 195.184 187.863   3
  -1   8 -16 236.200 217.846   3
  -1  -8  16-45.5201 23.9898   6
   1  -8  16-215.380 243.129   6
  -1   8 -16 118.763 238.548  13
   1   8 -16 113.011 216.380  13
  -1   8 -16 50.0703 82.6836  12
   1   8 -16 114.542 158.240  12
   8   1 -16-2.53847 96.6607  11
  -8   1 -16-41.5009 104.584  19
   8   1 -16 12.1516 159.180   1
  -8  -1  16 153.044 193.522   5
  -1   8 -16 136.450 134.609  18
   1   8 -16 369.111 241.264  18
   8   1 -16 29.3481 117.553  18
   8  -1  16 218.224 139.016   8
   1  -8  16 223.952 263.603  17
  -1  -8  16 321.465 377.464  17
  -8  -1  16 81.2169 191.839  17
  -8  -1  16 162.796 196.939   2
   8  -1  16 169.450 259.930  16
  -8  -1  16 214.859 133.848   4
  -8  -1  16 490.586 301.803  16
   8  -1  16-160.992 269.335   6
   8   2   0 4192.18 912.464   1
   8  -2   0 2941.17 620.186   1
  -8   2   0 1046.75 347.853  12
  -8   2   0 3017.78 638.641   5
  -8   2   0 2965.31 436.687   2
  -8   2   0 3069.15 659.572  19
  -8  -2   0 1074.73 427.008  19
   8   2   0 3230.61 652.457  18
  -8   2   0 3056.37 636.707   4
   8   2   0 3224.04 673.799   8
   8  -2   0 2484.64 575.107   8
  -8  -2   0 935.868 399.573  17
   8   2   0 2236.91 667.654  14
   8  -2   0 3700.15 647.212   6
   8  -2   0 2922.88 635.306  14
   8  -2   1 685.356 304.202  14
   8  -2  -1 369.295 241.084  14
   8  -2   1 588.985 252.336   6
   8  -2   1 460.382 235.466   1
   8  -2  -1 600.325 234.948   6
  -8   2  -1 363.633 179.495  12
  -8  -2  -1 84.7263 114.944  19
  -8  -2   1 1091.77 525.976  19
  -8   2  -1 674.958 295.083   5
  -8   2  -1 577.125 296.645  19
  -8   2   1 509.143 251.902  19
   8   2   1 664.561 270.579  18
   8   2  -1 679.246 239.671  18
  -8  -2   1-280.387 339.718   4
   8  -2  -1 694.030 308.150   1
   8   2   1 539.370 321.714   8
  -8  -2  -1-154.090 253.048  17
   8   2  -1 599.637 245.788   8
  -8  -2   1 342.705 275.300  17
   8   2   1 673.717 439.606   1
  -8   2   1 680.382 300.885   5
   8  -2   1 620.131 288.634   8
   8  -2  -1 291.372 188.199   8
  -8   2  -1 437.633 222.323   4
  -8   2  -1 608.282 188.510   2
  -8   2   1 505.364 240.491   4
   8   2  -1 925.193 431.140   1
  -8   2   1 544.475 205.640   2
   8   2   1 459.957 403.388  14
   8   2  -1 450.093 299.584  14
   8  -2   2 1222.48 428.822  14
   8  -2  -2 736.834 323.614  14
   8   2   2 1622.50 677.231   1
   8   2  -2 1010.75 370.968  13
   8  -2   2 1211.83 411.262   1
   8  -2  -2 855.064 284.941   6
  -8  -2   2 821.419 635.723   5
  -8   2  -2 668.640 265.514  12
  -8   2   2 1216.23 391.637   5
  -8   2  -2 1124.89 233.445   2
  -8   2   2 784.889 252.137   2
  -8  -2  -2 0.50629 209.896  19
  -8   2  -2 1022.32 380.592   5
  -8   2  -2 929.995 373.459  19
  -8   2   2 1131.28 368.966  19
   8   2  -2 1700.25 547.852  18
   8   2  -2 2006.77 545.574   8
  -8  -2   2 276.847 346.837   4
  -8  -2   2 2078.89 777.007  17
   8   2   2 1048.95 469.069   8
  -8  -2  -2 185.762 189.954  17
   8  -2   2 1189.22 401.908   8
  -8   2  -2 1070.76 385.060   4
   8  -2  -2 609.370 292.529   8
  -8   2   2 833.473 313.844   4
   8   2   2 1281.93 430.278  18
   8  -2   2 1367.89 417.103   6
   8   2   2 1247.92 635.327  14
   8  -2  -2 862.231 350.626   1
   8  -2   3 148.733 157.749  14
  -8   2  -3 76.6594 151.418   3
   8  -2  -3 603.611 277.759  14
   8  -2   3 244.366 243.133   6
   8  -2  -3 196.568 247.923   1
   8  -2  -3 16.4089 84.6614   6
  -8   2  -3 534.458 362.770  12
  -8   2  -3 138.351 276.753   5
  -8  -2  -3 229.338 363.796  19
  -8   2  -3 1100.52 475.596  19
  -8   2   3-6.56848 120.624  19
  -8   2   3 1.78715 57.0236   5
   8   2   3 157.909 194.049   1
   8   2   3-120.625 216.964  18
  -8   2  -3 163.942 128.332   2
  -8  -2   3 545.820 534.671   4
   8   2   3 276.942 363.908   8
  -8  -2  -3-97.7950 186.163  17
   8  -2   3 117.273 91.4975   1
   8  -2   3 202.681 198.863   8
  -8   2  -3 90.1596 213.212   4
   8  -2  -3 70.9148 113.040   8
  -8   2   3 30.1290 83.4458   4
   8   2   3 528.306 448.506  14
  -8   2   3 44.4176 28.7441   2
   8  -2   4 377.547 254.929  14
   8  -2  -4 150.497 141.397  14
  -8   2  -4 339.864 250.303   3
   8  -2   4 609.940 285.332   6
  -8   2  -4 605.323 320.178  12
  -8  -2   4 2100.55 799.442   5
  -8  -2   4 2799.95 811.978   2
  -8   2  -4 526.016 311.413   5
   8   2   4 1452.25 693.909   1
  -8  -2  -4 384.840 312.638  19
  -8   2  -4 493.799 395.502  19
   8  -2   4 322.722 209.418   1
  -8   2   4 227.097 182.095  19
  -8   2   4 256.295 200.580   5
   8   2   4 320.294 177.527  18
   8  -2  -4 220.024 164.565   1
   8   2   4 1416.67 604.632   8
  -8  -2  -4 400.525 343.298  17
   8  -2   4 466.698 253.396   8
  -8   2  -4 393.923 280.025   4
   8  -2  -4-120.453 232.898   8
  -8   2   4 196.171 125.346   4
   8   2   4 1081.46 552.751  14
  -8   2   4 155.212 86.7507   2
  -8   2   5 221.523 141.652   2
   8  -2  -5 214.188 160.425  14
   8  -2   5 551.230 279.955   6
  -8   2  -5 175.579 193.518   3
   8   2  -5 561.201 325.821  13
   8   2  -5 513.170 383.468   1
  -8   2  -5 344.492 292.945  12
   8  -2   5 533.951 268.221   1
   8   2   5 147.432 345.251   1
  -8  -2   5 17.7885 206.088   5
  -8   2  -5 390.611 182.514  20
  -8   2  -5 404.242 260.030   5
   8   2  -5 55.8972 551.277  10
  -8  -2  -5-248.349 451.330  19
  -8   2  -5 357.269 108.571  10
  -8   2  -5 425.341 314.557  19
  -8   2   5 333.786 224.231  19
  -8  -2   5 361.706 338.992   2
   8   2  -5 1045.84 558.418  18
  -8   2   5 309.489 198.770   5
   8   2   5 439.771 385.750   8
  -8  -2   5 322.908 286.069   4
  -8  -2   5 135.778 475.682  17
  -8   2  -5 317.190 163.443   4
   8  -2   5 437.684 294.746   8
  -8  -2   5 398.595 472.432  19
  -8   2   5 229.448 94.7664   4
   8  -2  -5 167.573 164.152   1
   8   2  -5 962.169 542.043  14
   8   2   5 300.024 154.187  14
   8  -2   5 509.116 227.958  14
  -8   2   6-36.6398 140.254   2
   8  -2  -6 86.8914 132.372  14
   8  -2   6 286.107 211.679   6
   8  -2   6 276.780 224.152   1
   8   2  -6 286.984 154.030  13
   8  -2  -6 146.074 174.192   1
  -8   2  -6 41.0543 88.8660   3
  -8   2  -6 98.1900 125.524  12
   8   2  -6 155.601 159.262   1
   8   2  -6 219.577 173.021  11
  -8   2  -6 161.895 147.633   5
  -8  -2   6-77.2950 110.013  19
  -8  -2  -6-453.165 486.172  19
  -8   2  -6 66.7753 52.5887  10
   8   2  -6 32.7363 71.5993  10
  -8   2  -6 88.7234 78.6719  19
  -8   2   6 44.6124 59.8443   5
  -8  -2   6 150.967 19.1285   2
   8   2  -6 232.245 132.007  18
  -8   2  -6 7.92092 79.1984  20
   8   2   6 97.4966 34.6334   8
  -8  -2   6 1.37263 35.4740   4
  -8   2  -6 129.940 188.630   4
  -8  -2   6 29.7605 48.2643  17
   8  -2   6 133.250 169.605   8
   8   2  -6 64.3086 47.6345   8
   8  -2   6 87.7689 93.9341  16
  -8  -2   6 162.951 206.495   5
   8   2   6-133.387 328.977  14
   8   2  -6 225.191 185.846   9
   8   2  -6 56.4012 90.0227  14
   8  -2   6 161.773 215.934  14
   8  -2   7 1193.28 458.097   6
   8  -2  -7 350.095 197.676  14
  -8   2  -7-130.867 171.461  13
  -8   2  -7 542.915 303.948  12
  -8   2  -7 451.638 257.456   3
  -8   2  -7 593.658 344.140   5
   8   2  -7 1313.05 421.615  11
   8   2  -7 701.115 380.791   1
  -8   2  -7 729.123 296.306  20
  -8  -2  -7-280.482 416.658  19
  -8   2  -7 287.299 88.8390  10
   8   2  -7 376.687 196.271  10
  -8  -2   7 812.881 324.303  19
   8   2  -7 996.716 429.480   9
  -8   2   7 387.575 247.127   5
   8  -2  -7 288.628 201.124   1
  -8  -2   7 1127.05 450.466   2
   8   2  -7 1320.38 412.497  18
  -8   2  -7 532.794 266.905  19
   8   2   7 700.104 393.880   8
  -8   2  -7 601.355 354.867   4
  -8  -2   7 603.288 269.547   4
  -8  -2   7 602.671 408.175  17
   8  -2   7 937.426 395.963   8
   8   2  -7 788.428 254.846   8
  -8  -2   7 518.299 177.545  16
   8  -2   7 883.151 363.796  16
  -8   2  -7 1308.20 624.202   7
  -8   2  -7 757.438 502.488  15
   8   2   7 426.395 187.452  14
   8  -2   7 982.704 395.249   1
   8   2  -7 725.033 316.185  14
  -8  -2   7 619.701 340.636   5
   8  -2   7 1243.25 447.787  14
   8  -2   8 90.2963 161.219   6
   8   2  -8 21.4166 31.7315   3
  -8   2  -8-10.6772 63.2151  13
  -8   2  -8 439.702 367.806  12
  -8   2  -8 84.3053 194.433   3
  -8   2  -8 24.6464 151.017   5
   8   2  -8 75.9758 152.057  11
  -8  -2   8-10.4667 96.9042   5
  -8   2  -8 182.352 174.651  20
  -8   2  -8 13.9875 56.0187  10
   8   2  -8 216.464 167.901  10
  -8  -2   8 6.30052 49.6101  19
   8   2  -8 366.659 246.464   9
   8   2  -8-48.7139 32.0307  18
  -8  -2   8 20.2477 129.344   2
   8   2   8-143.158 326.048   8
  -8   2  -8 69.8048 174.004   4
   8   2  -8 48.7463 129.287   1
  -8  -2   8 46.0768 110.134   4
   8  -2  -8 49.9611 110.784   1
   8  -2   8 49.7690 121.281   8
  -8  -2   8-187.295 224.642  17
   8   2  -8-10.7289 106.199   8
   8  -2   8 78.1871 141.128   1
  -8  -2   8 31.7281 69.5103  16
   8  -2   8-2.80190 92.5205  16
  -8   2  -8 230.524 395.887   7
  -8   2  -8 175.031 211.976  19
  -8   2  -8 60.8212 242.719  15
   8   2  -8-18.4704 112.066  14
   8  -2   8-114.171 182.481  14
   8  -2   9 1349.43 507.949   6
   2   8  -9 445.070 158.402  13
  -8   2  -9-5.53441 67.7688  13
  -8   2  -9 159.919 59.8150  10
   8   2  -9 1076.91 412.452  11
  -8   2  -9 472.192 284.241  20
  -8  -2   9 863.524 398.910   5
  -8   2  -9 592.307 358.931  19
   8   2  -9 199.105 201.322  10
  -8  -2   9 924.438 340.345  19
  -8  -2   9 791.034 309.732   4
   8   2  -9 402.843 227.267   9
   8   2  -9 1079.91 418.221  18
   8   2   9 150.231 167.132   8
  -8  -2   9 823.253 416.540   2
  -8   2  -9 474.817 278.124   4
   8  -2   9 808.796 365.388   1
   8  -2   9 1208.47 484.688   8
   8   2  -9 959.150 404.914   1
  -8  -2   9 814.221 401.849  17
   8   2  -9 360.459 178.655   8
  -8  -2   9 895.011 293.285  16
   8  -2   9 902.189 383.868  16
  -8   2  -9 836.350 513.663   7
  -8   2  -9 515.245 353.041  15
   8   2  -9 937.984 198.683   3
   8  -2   9 1419.81 531.076  14
   8   2  -9 445.693 250.809  14
   8  -2  10 866.751 420.393   6
   2   8 -10 603.350 341.979  13
  -8   2 -10 8.82804 58.6251  13
   2  -8  10 273.538 275.122   6
  -2  -8  10 27.7757 69.3244   6
   8   2 -10 638.890 375.894  11
  -8   2 -10 214.006 202.414  20
  -8  -2  10 472.767 302.938   5
  -8   2 -10 442.941 313.042  19
   8  -2  10 217.669 125.136   1
  -8   2 -10-225.357 256.275  10
  -8  -2  10 534.187 265.367  19
   2   8 -10 33.6396 440.778  18
   8   2 -10 35.1738 135.858   9
   8   2 -10 570.736 309.527   1
   8   2 -10 562.199 322.251  18
   8   2  10-183.013 477.844   8
  -8   2 -10 59.6279 126.711   4
  -2  -8  10-151.399 34.1503  17
  -8  -2  10 608.590 340.585   2
   8  -2  10 858.549 415.972   8
  -8  -2  10 790.595 460.515  17
  -8  -2  10 373.628 221.728   4
   8  -2  10 828.768 354.212  16
  -8  -2  10 514.995 223.567  16
  -8   2 -10 166.092 180.932   7
  -8   2 -10 397.513 356.148  15
   8   2 -10 801.624 213.501   3
  -2   8 -10 709.458 344.824   3
   8  -2  10 1014.23 478.350  14
   8   2 -10 169.230 170.305  14
   8   2 -10-382.227 329.419  10
   8  -2  11 1507.67 536.217   6
  -2   8 -11 72.0944 213.123  13
   2   8 -11 1051.32 512.285  13
  -8   2 -11 466.881 264.408  13
   2  -8  11 157.654 205.743   6
  -2  -8  11-29.4165 65.7388   6
  -2   8 -11 722.564 271.441  12
   8  -2  11-201.977 356.369   1
   8   2 -11 707.247 377.260  11
  -8   2 -11 138.076 110.844  20
  -8  -2  11 907.804 410.518   5
  -8   2 -11 59.0448 71.3457  19
   8   2 -11-576.481 439.829  10
  -8  -2  11 496.194 241.977  19
   2   8 -11 563.972 255.278  18
   8   2 -11 136.659 132.436   9
   8   2 -11 626.329 304.583  18
   8   2 -11 758.129 358.628   1
  -2  -8  11 50.5440 256.088  17
  -8  -2  11 774.294 412.095   2
   8  -2  11 1048.57 416.334   8
  -8  -2  11 604.239 350.786  17
  -8  -2  11 643.817 266.069   4
   8  -2  11 998.326 413.313  16
  -8  -2  11 916.052 333.244  16
  -8   2 -11 338.973 91.3266   7
  -8   2 -11 376.687 245.800  15
   8  -2  11 1200.01 528.980  14
   8   2 -11 451.433 270.412  14
  -2   8 -11 856.018 423.421   3
   2   8 -12 1777.52 693.520  13
  -2   8 -12 1086.34 485.572  13
   2  -8  12 658.755 397.990   6
  -2  -8  12 176.636 157.664   6
  -2   8 -12 1645.39 498.868  12
  -8   2 -12 55.0164 338.788  20
  -8  -2  12 1325.62 494.534   5
  -8   2 -12 375.527 291.141  19
   8   2 -12-765.661 605.083  10
  -8  -2  12 338.622 122.293  19
  -2   8 -12 1285.64 398.304  18
   2   8 -12 1246.74 496.111  18
   8   2 -12 560.542 416.371   9
  -8  -2  12 1420.28 399.106   4
   8  -2  12 2307.79 656.006   8
   8   2 -12 1253.36 468.185  18
   8   2 -12 1031.59 448.707  11
   2  -8  12 293.111 359.930  17
  -2  -8  12 132.302 177.686  17
  -8  -2  12 1775.50 616.831   2
   8   2 -12 1130.65 454.875   1
  -8  -2  12 1469.40 539.619  17
   8  -2  12 2232.12 684.718  16
  -8  -2  12 1491.35 436.831  16
  -8   2 -12 84.8658 392.305   7
  -8   2 -12-223.229 518.222  15
   2   8 -12 1703.85 546.016   3
   8  -2  12 2670.79 756.722   6
  -2   8 -12 2103.25 663.055   3
   8  -2  12 2339.43 719.257  14
   8   2 -12 585.940 271.481  14
  -2   8 -13 513.443 364.425   3
  -2   8 -13 405.243 267.952  13
   2   8 -13 391.234 358.752  13
  -2  -8  13-90.1840 68.8441   6
   2  -8  13 140.055 204.695   6
  -2   8 -13 486.950 266.506  12
   8   2 -13 204.589 103.237  11
  -8   2 -13-178.235 324.390  20
  -2   8 -13 323.907 290.482  18
   2   8 -13 588.993 350.183  18
   8   2 -13-83.3730 256.326   9
   8   2 -13 323.185 240.807  18
   2  -8  13 332.602 379.297  17
  -8   2 -13 216.888 244.461  19
  -2  -8  13 4.44981 102.991  17
  -8  -2  13 407.017 266.018   5
   8  -2  13 705.766 402.707   8
  -8  -2  13 395.074 286.240   2
  -8  -2  13 326.508 234.708  17
   8   2 -13 207.475 106.067   1
  -8  -2  13 301.972 154.362   4
   8  -2  13 587.694 402.223  16
  -8  -2  13 343.687 217.805  16
  -2   8 -13 430.008 172.579   4
   8  -2  13 538.308 354.012  14
   8   2 -13 183.883 170.485  14
   8  -2  13 540.570 334.463   6
   2   8 -13 522.945 313.713   3
   2  -8  14 492.348 217.856  14
   2   8 -14 2228.64 757.328  13
  -2   8 -14 1450.70 586.837  13
  -2  -8  14 275.077 247.142   6
   2  -8  14 771.663 452.700   6
  -2   8 -14 1777.74 558.246  12
  -8  -2  14 1704.53 536.630   5
  -8  -2  14 2204.71 711.396   2
   8   2 -14 1064.18 414.724  11
  -8   2 -14 195.385 146.651  19
  -2   8 -14 1989.13 539.800  18
   2   8 -14 2244.77 671.815  18
  -8  -2  14 1712.71 446.514   4
   8   2 -14-26.6752 316.139   9
  -2   8 -14 2460.01 463.996   4
   8  -2  14 3030.54 760.391   8
   8   2 -14 1311.38 508.364  18
   2  -8  14 842.054 417.414  17
  -2  -8  14 538.048 484.865  17
  -8  -2  14 2108.05 723.955  17
   8  -2  14 2648.37 822.340  16
  -8  -2  14 2014.44 536.293  16
   8   2 -14 1083.58 463.653   1
   8  -2  14 2901.30 837.636   6
   2   8 -14 2613.08 703.682   3
  -2   8 -14 2492.80 719.039   3
   8  -2  14 2497.20 778.192  14
   8   2 -14 707.495 317.870  14
   2   8 -15 379.345 259.131   3
   2  -8  15 147.499 131.670  14
  -2   8 -15 368.515 223.341   3
  -2  -8  15 253.135 179.718   6
  -2   8 -15 709.461 453.871  13
   2  -8  15 178.033 295.496   6
   2   8 -15 440.957 284.914  13
  -2   8 -15 469.954 286.398  12
   2   8 -15 220.910 166.089  12
   8   2 -15 82.2678 110.065  11
  -8  -2  15 484.706 296.571   5
  -8   2 -15-136.163 214.813  19
  -2   8 -15 425.355 307.952  18
   2   8 -15 398.760 235.362  18
   8   2 -15-727.846 668.744   9
   8   2 -15 128.054 49.8864  18
   2  -8  15 483.787 434.573  17
  -2  -8  15-30.0722 151.363  17
   8  -2  15 908.237 497.815   8
  -8  -2  15 455.748 261.669   2
  -8  -2  15 530.364 346.362  17
  -8  -2  15 481.764 219.384   4
   8  -2  15 889.557 521.340  16
  -8  -2  15 396.357 268.505  16
   8   2 -15 258.665 230.355   1
   8  -2  15 715.331 542.616  14
   8  -2  15 914.397 541.325   6
   8   2 -15 161.235 121.985  14
   2   8 -16 945.178 411.720   3
  -2   8 -16 1100.90 507.406   3
  -2  -8  16 304.733 273.141   6
   2  -8  16 317.343 111.077   6
  -2   8 -16 803.680 412.340  13
   2   8 -16 900.199 431.908  13
  -2   8 -16 1078.94 444.634  12
   2   8 -16 791.914 293.666  12
   8   2 -16 397.450 310.495  11
  -8  -2  16 956.365 418.810   5
  -8   2 -16 229.966 266.998  19
  -2   8 -16 1028.66 359.329  18
   2   8 -16 1100.15 465.824  18
   8   2 -16 304.441 261.470  18
   8  -2  16 1206.81 455.962   8
   2  -8  16 773.952 436.478  17
  -2  -8  16 805.176 534.264  17
  -8  -2  16 1191.81 561.946   2
  -8  -2  16 724.503 539.320  17
  -8  -2  16 744.029 266.453   4
   8  -2  16 1099.28 526.819  16
  -8  -2  16 920.025 383.949  16
   8   2 -16 406.450 253.570   1
   8  -2  16 898.290 464.569  14
   8  -2  16 1594.97 679.542   6
   8  -3   0 232.775 202.820  14
   8  -3   0 283.380 187.472   6
   8  -3   0 298.093 218.674   1
  -8  -3   0 120.563 94.6202  19
  -8   3   0 422.339 233.250  19
  -8   3   0 502.796 264.226   5
   8   3   0 1233.43 448.295  18
   8   3   0 1527.35 669.909   1
   8   3   0 912.543 486.679   8
  -8  -3   0 40.0772 101.215  17
   8  -3   0 314.437 243.363   8
  -8   3   0 260.058 202.702   4
   8   3   0 449.028 352.075  14
   8   3   1 3813.34 996.738   1
   8   3  -1 4287.61 992.834   1
  -8   3  -1 1569.46 448.316  12
   8  -3   1 2466.48 570.805   1
   8  -3  -1 1927.85 512.856   1
  -8   3  -1 3520.62 661.368   5
  -8   3   1 2731.09 609.788   5
  -8   3  -1 3421.11 715.149  19
  -8   3   1 3405.83 699.004  19
  -8  -3  -1-95.9377 194.878  19
  -8  -3   1 685.925 493.134  19
   8   3   1 3253.90 729.498  18
   8   3  -1 4021.21 767.736  18
   8   3   1 3515.18 842.677   8
   8   3  -1 4010.57 785.703   8
  -8   3  -1 3203.89 655.787   4
  -8   3   1 2644.03 574.188   4
   8  -3   1 2512.54 613.388   8
   8  -3  -1 1736.50 509.060   8
  -8  -3  -1-50.2577 159.890  17
  -8  -3   1 1100.62 547.242  17
   8  -3   1 2841.80 594.418   6
   8  -3  -1 1600.97 454.196   6
   8  -3   1 2833.75 632.178  14
   8  -3  -1 2062.53 528.415  14
   8   3   1 1756.58 623.705  14
   8   3  -1 1812.38 624.146  14
  -8   3  -2-38.7443 87.5317   2
   8  -3   2 14.1233 91.1934  14
   8  -3  -2 33.3419 21.4104  14
   8   3  -2 1496.92 734.982   1
   8  -3   2 69.5812 70.5096   6
   8  -3  -2 94.6516 124.596   6
  -8   3  -2 50.6222 107.949  12
   8  -3  -2 1.49676 82.7572   1
  -8  -3   2 1057.58 829.201  19
   8   3   2 77.5369 241.739   1
  -8  -3  -2-618.596 669.578  19
  -8   3  -2-18.0026 84.5672   5
  -8   3  -2-13.5414 107.101  19
  -8   3   2-20.0631 127.588  19
   8   3  -2 1308.74 584.690  18
  -8   3   2-57.8674 176.970   5
   8   3   2-343.488 471.693  18
   8   3   2 86.9176 169.036   8
   8  -3   2-40.2989 125.397   1
  -8  -3  -2-75.4436 198.624  17
   8   3  -2 722.656 409.508   8
  -8  -3   2 778.048 618.286  17
   8  -3   2-40.3325 128.217   8
   8  -3  -2-132.941 274.001   8
  -8   3  -2 9.05241 98.9252   4
  -8   3   2-118.852 219.620   4
   8   3   2-276.091 400.824  14
   8   3  -2 894.053 565.506  14
   8  -3   3 1172.17 423.666  14
   8  -3  -3 576.486 256.901  14
   8   3  -3 2208.52 743.881   1
   8   3  -3 707.109 317.523  13
   8  -3   3 1344.52 418.641   1
  -8   3  -3 956.438 339.708  12
  -8   3   3 1057.64 362.448   5
   8   3   3 853.324 401.393   1
  -8   3  -3 1079.12 200.690   2
  -8  -3   3 1153.98 822.251  19
  -8   3  -3 1369.23 446.028  19
  -8   3   3 1351.25 434.152  19
  -8   3  -3 1053.03 373.035   5
  -8   3  -3 1300.48 414.349   4
   8  -3   3 1313.21 448.759   8
   8   3   3 586.131 330.047   8
  -8  -3   3 743.504 635.213  17
   8  -3  -3 582.420 296.037   1
   8   3  -3 1161.49 624.236  14
   8  -3   3 1722.70 456.182   6
   8   3   3 3.23355 279.980  14
  -8   3  -3 194.347 100.134   3
   8  -3   4 204.923 147.785   1
  -8   3  -4 107.847 90.7709   3
   8  -3   4 212.552 167.336  14
   8  -3  -4 79.4920 134.420  14
   8  -3  -4 55.8546 146.936   1
   8   3  -4 351.752 201.808  13
   8  -3   4 79.5980 100.595   6
  -8  -3   4 95.0923 69.1808  12
   8   3   4-213.096 513.248   1
  -8   3  -4 72.5750 91.2657  12
  -8   3  -4 318.354 235.920   5
  -8  -3   4 98.5794 262.921  19
  -8   3  -4 161.566 104.733  19
  -8   3   4 32.5752 140.095   5
   8   3  -4 99.6454 138.205  18
   8   3   4-81.7753 406.716   8
  -8  -3   4 119.913 301.740  17
   8   3  -4 242.829 177.752   8
   8  -3   4 83.9413 29.1521   8
  -8   3  -4 308.242 231.917   4
  -8   3  -4 154.028 67.4995   2
   8   3  -4-117.297 152.421   1
   8   3  -4-75.0848 189.550  14
   8  -3   5 166.322 139.883  14
  -8   3  -5 8.77767 80.0044   3
   8  -3   5 21.0833 73.4720   6
   8   3  -5 85.7069 101.915  13
  -8   3  -5 477.453 323.797  12
   8   3  -5 149.901 166.443  20
  -8  -3   5 48.7223 82.3138   2
  -8   3  -5 220.077 280.025   5
  -8  -3   5 15.9582 74.4266  19
  -8   3  -5 250.184 295.032  19
   8   3  -5 19.8966 28.1324  18
   8   3   5-228.897 506.910   8
  -8  -3   5 98.6553 129.989  17
   8   3  -5 67.9992 82.1033   8
   8  -3   5 51.9262 84.7651   1
   8  -3   5 110.165 152.154   8
  -8   3  -5 188.573 302.617   4
   8   3  -5-349.719 260.227   1
   8   3  -5-34.7239 96.3525  14
   8  -3   6 285.600 214.483  14
  -8   3  -6 245.832 202.784   3
   8  -3   6 228.383 206.192   6
   8   3  -6 288.039 174.389  13
  -8   3  -6 270.508 305.925  12
   8   3  -6 748.956 392.270  11
  -8  -3   6 14.9781 57.6507   5
   8   3  -6 332.515 158.160  20
  -8   3  -6 272.925 169.249   5
   8  -3   6 358.569 206.863   1
  -8  -3   6 339.420 284.329   2
  -8  -3   6 281.127 226.436  19
  -8   3  -6 236.237 276.249  19
   8   3  -6 362.172 282.127  18
  -8  -3   6-147.146 299.819   4
  -8  -3   6 249.453 252.160  17
   8   3  -6 490.287 224.632   8
  -8   3  -6 260.237 194.612   4
   8  -3   6 315.338 237.619   8
   8   3  -6 7.11264 102.586  14
   8   3  -6 288.275 305.616   1
   8  -3   7-35.7046 105.953  14
   8   3  -7 165.121 200.230   1
   8  -3   7 169.211 233.561   6
  -8   3  -7 25.1369 44.0180   3
   8   3  -7 48.4353 118.700  13
  -8   3  -7-245.918 194.726  12
   8  -3   7 47.9756 28.7433   1
   8   3  -7 186.965 248.359  11
  -8  -3   7-53.3847 152.295   5
  -8   3  -7-6.57088 160.541   5
  -8   3  -7 86.7760 161.632  19
  -8  -3   7 40.8460 104.515  19
  -8  -3   7 14.0963 89.4015   2
   8   3  -7 145.187 190.649  18
  -8  -3   7-275.012 201.129   4
   8   3  -7 232.448 249.665  10
  -8  -3   7-166.691 228.133  17
  -8   3  -7 116.301 135.606   4
   8   3  -7 37.7998 51.3435   8
   8  -3   7 70.7864 122.558   8
   8   3  -7 28.9697 112.402  20
   8  -3   7-282.745 392.349  16
   8   3  -7 144.776 200.617  14
  -8  -3   8 883.160 319.329  19
   8  -3   8 1654.68 541.086   6
   8   3  -8 1309.63 502.999   1
   8   3  -8 1526.48 427.772  13
   8  -3   8 1655.18 474.587   1
  -8   3  -8 662.900 316.952   3
  -8   3  -8 776.452 309.949  12
   8   3  -8 2072.03 592.015  11
  -8  -3   8 813.876 383.042   5
  -8   3  -8 946.786 377.725   5
  -8   3  -8 1505.93 493.626  20
   8   3  -8 617.435 302.660  20
   8   3  -8 1198.48 405.088  10
  -8   3  -8 1005.95 377.810  19
  -8   3  -8 1363.85 319.120   9
  -8  -3   8 1082.22 502.956   2
   8   3  -8 1626.85 538.290  18
   8   3  -8 1214.40 324.457   8
  -8  -3   8 473.648 237.114   4
  -8   3  -8 842.427 401.167   4
  -8  -3   8 1193.34 517.454  17
   8  -3   8 1309.90 472.964   8
   8  -3   8 1024.23 439.633  16
   8   3  -8 503.098 311.203  14
  -8   3  -8 1279.78 326.338  10
   8  -3   8 1354.65 473.817  14
   8  -3   9 237.618 259.054   6
   3   8  -9 111.545 288.803  13
  -8   3  -9 4.48735 98.1961  13
  -8   3  -9 196.283 184.279  10
   8   3  -9 402.810 362.628   1
   8   3  -9 304.017 239.171  13
  -8   3  -9 75.5744 46.7833   3
  -8   3  -9 293.474 256.843  12
   8   3  -9 460.754 337.154  11
  -8   3  -9 188.242 154.512   5
  -8  -3   9 94.7507 128.346   5
  -8   3  -9 207.640 148.130  20
   8   3  -9-86.8992 262.712  20
   8   3  -9 441.422 305.105  10
  -8  -3   9 116.133 136.283  19
  -8   3  -9 127.541 133.206  19
   8   3  -9 896.653 533.606   9
  -8   3  -9 116.359 118.876   9
  -8  -3   9 103.578 170.022   2
   8   3  -9 354.604 292.410  18
  -8  -3   9-15.9054 120.901   4
  -3  -8   9 237.275 487.101  17
  -8   3  -9 257.969 266.334   4
  -8  -3   9 159.660 102.773  17
   8  -3   9 306.160 233.105   8
   8   3  -9 109.682 85.4829   8
  -8  -3   9 71.6425 24.3237  16
   8  -3   9 145.237 111.763  16
   8  -3   9 171.942 134.208   1
  -8   3  -9 739.144 573.565  15
   8   3  -9 140.516 190.200  14
   8   3  -9 78.5154 41.2288   3
   8  -3   9 358.843 241.636  14
   8  -3  10 491.363 324.500   6
   8   3 -10 441.930 164.077   3
   3   8 -10 420.779 302.070  13
  -8   3 -10-34.1834 86.0556  13
   8   3 -10 717.635 335.107  13
  -8   3 -10 402.576 322.175  12
   3  -8  10 179.273 229.131   6
   8   3 -10 533.118 360.228   1
  -8   3 -10 180.096 219.691   3
  -3   8 -10 268.722 134.010  12
   8   3 -10 314.597 106.233  11
  -8  -3  10 630.636 377.237   5
  -8   3 -10 431.878 287.629  20
   8   3 -10-204.645 364.405  20
   8   3 -10 357.181 248.844  10
  -8   3 -10 252.764 192.717  19
  -8  -3  10 470.305 259.187  19
   8   3 -10 609.673 412.720   9
   3   8 -10 160.731 309.533  18
  -8   3 -10 179.005 82.0285   9
  -8  -3  10 538.258 439.308   2
   8   3 -10 352.608 236.331  18
  -8  -3  10 266.125 201.966   4
  -3  -8  10 234.606 356.994  17
  -8   3 -10 210.905 185.078   4
   8  -3  10 392.165 232.861   1
  -8  -3  10 329.861 275.858  17
   8  -3  10 690.126 330.997   8
  -8   3 -10 549.842 237.416  10
  -8  -3  10 213.548 119.464  16
   8  -3  10 406.372 305.353  16
   8   3 -10 265.892 174.228   8
  -8   3 -10 1143.18 687.896   7
  -8   3 -10 415.867 453.283  15
   8   3 -10 110.286 128.049  14
  -3   8 -10 405.539 266.892   3
   8  -3  10 635.570 302.354  14
   3   8 -11 2110.20 733.105  13
  -8   3 -11 124.462 88.4891  13
   3  -8  11 245.324 207.658   6
  -3   8 -11 1463.25 490.772  12
  -8   3 -11 790.612 409.976  12
  -3  -8  11 112.536 148.080   6
  -8   3 -11 749.995 355.367   3
   8   3 -11 1479.81 521.339   1
   8   3 -11 1657.09 598.205  11
  -8  -3  11 1135.19 434.457   5
  -8   3 -11 989.010 405.904  20
  -8  -3  11 1131.32 376.356  19
  -8   3 -11 769.768 254.355  10
   8   3 -11 666.476 307.225  10
   8   3 -11 1533.88 593.728   9
   8  -3  11 887.503 394.885   1
   3   8 -11 1554.44 663.862  18
  -8   3 -11 394.839 145.494   9
  -8  -3  11 1607.59 651.933   2
   8   3 -11 1467.54 527.808  18
   8  -3  11 2394.60 624.208   8
  -8   3 -11 625.287 357.190   4
  -3  -8  11 116.188 121.063  17
  -8  -3  11 949.716 370.510   4
  -8  -3  11 1297.04 567.664  17
  -8  -3  11 1452.51 437.606  16
  -8   3 -11 977.270 384.429  19
   8  -3  11 1820.99 626.475  16
  -8   3 -11 1566.53 741.518   7
  -3   8 -11 2093.85 660.430   3
   8  -3  11 2569.84 730.295   6
  -8   3 -11 1066.13 566.791  15
   8  -3  11 2705.62 755.798  14
   8   3 -11 1710.88 325.212   3
   8   3 -11 327.365 215.525  14
  -3   8 -12 452.130 346.017   3
   8  -3  12 675.795 412.320   6
  -3   8 -12 7.59245 170.587  13
   3   8 -12 310.637 275.012  13
   3   8 -12 358.118 354.269  18
  -8   3 -12 207.898 189.793  13
   8   3 -12 469.429 189.717   3
   3  -8  12 114.997 177.518   6
  -3  -8  12 68.4816 198.949   6
  -8   3 -12 701.154 484.858  12
  -8   3 -12 351.126 332.999   3
  -3   8 -12 394.133 252.028  12
   8   3 -12 235.148 14.2799   1
   8  -3  12-94.7463 250.609   1
   8   3 -12 530.092 422.092  11
  -8  -3  12 180.101 202.087   5
  -8   3 -12 383.373 336.085  20
  -8   3 -12 625.814 360.177  19
  -8   3 -12 65.5683 99.9742  10
  -8  -3  12 151.861 105.147  19
   8   3 -12 212.207 92.7405   9
  -3   8 -12 141.164 219.204  18
  -8   3 -12-199.483 321.028   9
   8   3 -12 582.626 303.581  18
  -8  -3  12 452.118 357.418   2
  -8   3 -12 18.5554 105.237   4
   3  -8  12-63.6442 75.0480  17
  -3  -8  12 203.694 388.909  17
  -8  -3  12 260.058 199.779   4
   8   3 -12 192.395 130.527  10
   8  -3  12 410.286 293.404   8
  -8  -3  12 490.229 387.598  17
  -8  -3  12 452.051 264.586  16
   8  -3  12 556.526 459.481  16
  -8   3 -12 63.1434 194.654   7
  -3   8 -12 182.669 86.5234   4
  -8   3 -12 420.235 360.391  15
   3   8 -12 350.208 86.5491   3
   8   3 -12 139.709 145.810  14
   8  -3  12 574.905 362.878  14
   3  -8  13 526.521 247.990  14
   3   8 -13 3648.85 958.797  13
  -3   8 -13 1340.89 593.527  13
  -3  -8  13 405.442 261.801   6
  -8   3 -13 484.791 312.143  13
   3  -8  13 768.062 446.524   6
  -3   8 -13 2851.08 700.349  12
  -8  -3  13 1841.31 596.581   5
  -8   3 -13 911.125 455.182   3
  -8  -3  13 2891.53 851.656   2
   8   3 -13 2715.51 727.552  11
   8   3 -13 1615.84 574.004   1
  -8   3 -13 1374.58 498.101  19
  -8   3 -13 875.746 294.381  10
   8   3 -13 1077.04 499.125  10
  -8  -3  13 959.219 282.167  19
  -3   8 -13 2489.57 575.076  18
   3   8 -13 2953.96 810.906  18
   8   3 -13 2421.77 689.282  18
   8   3 -13 1271.42 563.402   9
  -8  -3  13 1547.77 430.798   4
  -3   8 -13 2764.26 522.087   4
   8  -3  13 3372.95 762.748   8
  -8  -3  13 2821.03 863.534  17
   3  -8  13 726.439 426.274  17
  -3  -8  13 152.151 237.468  17
  -8   3 -13 1226.86 490.375  20
  -8  -3  13 2330.16 574.321  16
   8  -3  13 2573.11 782.822  16
  -8   3 -13 1589.48 776.072   7
   3   8 -13 3107.98 746.606   3
  -8   3 -13 1442.11 685.180  15
   8  -3  13 4426.52 999.706   6
  -3   8 -13 2878.22 801.844   3
   8  -3  13 3945.46 930.443  14
   8   3 -13 2893.31 465.686   3
   8   3 -13 278.380 212.901  14
   8  -3  14 134.524 47.8867   6
  -8   3 -14 245.948 329.033  19
  -3   8 -14 331.010 289.032   3
   3  -8  14 123.541 120.843  14
  -3   8 -14 320.583 392.796  13
   3   8 -14 448.414 315.096  13
  -3  -8  14-75.7767 29.8225   6
   3  -8  14 275.266 192.598   6
  -8   3 -14 4.85658 174.113  13
   8   3 -14 325.624 180.890   3
  -3   8 -14 447.709 356.874  12
   8   3 -14 246.311 207.231  11
  -8   3 -14-123.980 188.429  20
   8   3 -14 206.107 181.151   1
   8   3 -14 118.147 114.371  10
  -8   3 -14-23.3365 116.072  10
   8   3 -14-77.1806 191.412   9
  -3   8 -14 199.701 243.207  18
   3   8 -14 310.699 249.062  18
   8   3 -14 234.396 231.213  18
  -8  -3  14 318.515 257.658   2
   3  -8  14 70.7382 239.013  17
  -3  -8  14 370.590 459.312  17
  -8  -3  14 297.655 216.371   4
  -8  -3  14 316.979 284.190   5
   8  -3  14 249.004 183.742   8
  -8  -3  14 373.303 416.187  17
  -3   8 -14 328.377 220.974   4
   8  -3  14 82.1116 77.2636  16
  -8  -3  14 223.995 171.940  16
  -8   3 -14-948.486 603.343   7
  -8   3 -14-953.868 574.715  15
   8   3 -14-78.2578 127.182  14
   8  -3  14 313.076 253.873  14
   3   8 -14 290.014 210.402   3
   3  -8  15 1105.09 336.186  14
  -3   8 -15 1722.28 652.885  13
   3  -8  15 999.437 475.093   6
   3   8 -15 2359.71 754.221  13
  -8   3 -15 288.580 312.905  13
  -3   8 -15 2233.04 695.839  12
  -8  -3  15 1605.54 540.756   5
  -8   3 -15 122.360 162.902  20
   8   3 -15 1068.52 475.164   1
  -8   3 -15 353.449 83.4823  10
  -3   8 -15 2334.22 545.451  18
   3   8 -15 2380.70 742.446  18
  -8  -3  15 1327.85 399.463   4
   8   3 -15 887.166 475.768   9
  -3   8 -15 2482.38 546.831   4
   8  -3  15 2636.74 748.804   8
   8   3 -15 1347.05 513.949  18
  -8  -3  15 2379.36 779.869   2
   3  -8  15 1110.25 434.104  17
  -3  -8  15 732.110 396.117  17
   8   3 -15 95.3394 323.148  10
  -8  -3  15 2209.09 732.717  17
  -8   3 -15 577.149 236.257  19
   8  -3  15 2209.84 752.382  16
  -8  -3  15 1945.72 545.988  16
  -8   3 -15-1489.96 778.413   7
  -8   3 -15-583.428 779.034  15
   3   8 -15 2554.99 692.185   3
  -3   8 -15 2205.58 732.267   3
   8   3 -15 1587.39 615.027  11
   8  -3  15 2347.16 776.801  14
   8   3 -15 260.243 208.594  14
   8  -3  15 2785.89 841.008   6
   3   8 -16 361.177 242.390   3
   3  -8  16 304.833 220.266  14
  -3   8 -16 434.784 327.125   3
  -3  -8  16 149.951 103.608   6
   3  -8  16-140.218 254.303   6
  -3   8 -16 222.151 296.372  13
   3   8 -16 156.645 213.869  13
  -3   8 -16 349.710 303.844  12
   8   3 -16 315.346 313.262  11
  -8  -3  16 206.671 238.199   5
  -8   3 -16-549.398 513.598  20
  -8   3 -16-353.280 434.356  10
  -8   3 -16-141.569 65.2605  19
   8   3 -16 189.156 168.791   1
   8   3 -16-285.173 491.889  10
   8   3 -16 191.654 254.389   9
  -3   8 -16 316.025 204.417  18
   3   8 -16 527.438 330.067  18
   8   3 -16 93.2802 144.279  18
  -8  -3  16 415.291 388.117   2
   3  -8  16 305.523 324.355  17
  -3  -8  16 364.096 424.392  17
  -8  -3  16 272.626 209.474   4
   8  -3  16 554.025 305.891   8
  -8  -3  16 282.241 333.178  17
   8  -3  16 351.948 324.750  16
  -8  -3  16 344.813 259.071  16
   8  -3  16 316.232 345.902  14
   8  -3  16 868.003 557.425   6
   8  -4   0 1247.56 404.555   1
   8  -4   0 1106.53 398.237   6
  -8   4   0 2737.99 577.792   5
  -8   4   0 3495.67 724.621  19
   8   4   0 2585.81 593.424  18
  -8   4   0 2700.40 588.569   4
   8   4   0 1621.25 486.832   8
  -8  -4   0-73.2731 195.758  17
   8  -4   0 894.535 307.983   8
   8  -4   0 1511.48 491.971  14
   8  -4   1 0.08174 51.3567  14
   8  -4  -1 33.1121 40.8923  14
   8  -4   1 5.48352 32.6955   1
   8  -4   1 49.4537 71.4108   6
  -8  -4   1-554.963 504.190  19
   8   4  -1 518.545 525.142   1
  -8   4  -1-8.98968 136.307  19
  -8   4   1-121.798 267.118  19
  -8   4  -1 8.35655 31.5637   5
   8   4  -1 210.583 319.300  18
  -8   4   1-99.8858 243.583   5
   8   4   1-582.357 575.196   8
   8   4  -1 97.1094 176.159   8
  -8  -4  -1-125.388 271.654  17
  -8  -4   1 246.412 399.580  17
   8  -4   1-4.91289 139.278   8
  -8   4  -1-30.4597 157.233   4
   8   4  -2 2404.51 821.589   1
  -8   4  -2 1262.37 413.488  12
   8  -4   2 1474.05 441.041   1
  -8   4  -2 2317.18 535.080   5
  -8   4  -2 2920.13 664.791  19
  -8  -4   2 34.4005 77.2475  19
  -8   4  -2 2598.32 595.820   4
   8   4  -2 2845.35 727.826  18
   8   4  -2 2606.42 652.116   8
   8  -4   2 1494.83 488.558   8
  -8  -4   2 129.329 233.535  17
   8  -4   2 1788.58 536.007   6
   8  -4   2 1658.50 502.143  14
   8  -4   3-42.0070 81.3230  14
   8  -4   3-5.87757 74.7686   6
   8  -4   3-39.7357 127.215   1
  -8   4  -3-22.6718 128.473  12
  -8  -4   3 151.636 240.350  19
  -8   4  -3 69.2392 118.922  19
  -8   4  -3 9.62398 64.8156   5
   8   4  -3 1363.12 616.028  18
   8   4  -3 845.490 656.091   1
   8   4  -3 1039.99 446.399   8
  -8  -4   3 40.9656 170.629  17
   8  -4   3-27.1973 159.652   8
  -8   4  -3-63.1592 140.925   4
   8  -4   4 237.086 198.784  14
   8   4  -4 75.8070 115.190  13
   8  -4   4 305.826 225.729   6
  -8   4  -4 281.127 196.311  12
  -8  -4   4 91.5984 72.3201  19
  -8   4  -4 462.354 270.044   5
  -8   4  -4 441.541 238.913  19
   8   4  -4 799.030 418.057  18
   8   4  -4 599.881 398.454   1
   8   4  -4 899.823 375.666   8
  -8  -4   4 52.9797 232.592  17
   8  -4   4 147.443 88.2994   8
   8  -4   4 344.879 195.161   1
  -8   4  -4 297.974 199.012   4
   8   4  -4-157.797 294.095  14
  -8   4  -4 9.16330 172.493   3
   8  -4   5-5.30577 97.7064  14
   8   4  -5 11.5152 31.6166  13
   8  -4   5-107.630 172.031   6
  -8   4  -5-58.4769 148.419  12
  -8  -4   5 17.3833 114.531  19
  -8   4  -5-168.593 185.881   5
   8   4  -5 81.7979 178.811  18
   8   4  -5-55.7825 68.6090   8
  -8  -4   5 107.727 249.713  17
   8  -4   5 9.38486 115.802   1
   8   4  -5 64.8248 135.760   1
   8  -4   5-60.3996 165.196   8
  -8   4  -5-98.5792 169.915   4
  -8   4  -5-56.6202 122.576  19
   8   4  -5-526.695 345.029  14
  -8   4  -5-17.0064 25.0036   3
  -8   4  -6-42.4293 91.7302   3
   8  -4   6-29.5905 64.2078  14
   8  -4   6-24.2040 111.605   1
   8   4  -6 30.1371 70.1816  13
   8  -4   6-10.5677 155.544   6
  -8   4  -6-41.8231 135.211  12
  -8  -4   6 24.0219 64.2749  19
  -8   4  -6 13.3186 57.6261   5
  -8   4  -6 92.4543 140.551  19
   8   4  -6 199.278 202.755  18
  -8  -4   6 65.8511 184.599  17
   8   4  -6 120.744 158.986   8
   8   4  -6 48.5166 85.2129   1
   8  -4   6 79.9589 165.974   8
  -8   4  -6 28.7331 35.3312   4
   8   4  -6-354.471 393.641  14
   8  -4   7 156.802 124.535  14
  -8   4  -7 64.8196 121.666   3
   8  -4   7 330.228 265.317   6
   8   4  -7 222.903 165.045  13
  -8  -4   7 196.169 192.022  19
  -8   4  -7 85.7599 73.5956  12
  -8   4  -7 185.104 210.853   5
  -8   4  -7 103.192 28.7938  19
   8   4  -7 294.531 261.249  18
  -8  -4   7-48.7674 157.401  17
   8   4  -7 141.787 127.491   8
   8  -4   7 191.682 176.157   1
   8  -4   7 298.947 247.934   8
  -8   4  -7 129.628 164.956   4
   8   4  -7 391.730 298.290   1
   8   4  -7-416.705 296.509  14
   8  -4   8 149.907 159.021  14
  -8   4  -8 21.9876 46.7060   3
   8  -4   8 67.8172 143.993   6
   8   4  -8 57.3062 155.786  13
  -8   4  -8-97.7507 58.4952  12
   8   4  -8 96.2423 214.271  20
  -8   4  -8 60.4093 151.296   5
  -8  -4   8-133.409 261.913   2
  -8  -4   8 196.299 215.741  19
   8  -4   8 25.0871 50.8519   1
  -8   4  -8-117.222 207.723  19
   8   4  -8-33.6458 30.2329  18
  -8  -4   8 6.35551 210.075  17
   8   4  -8 8.39544 38.2696   8
  -8   4  -8-42.9396 149.646   4
   8  -4   8 58.2186 112.681   8
   8   4  -8 24.2937 123.675   1
   8  -4   9 58.3698 79.9443  14
   4   8  -9-28.5221 325.144  13
   8  -4   9 107.729 180.931   6
  -8   4  -9 118.372 165.224   3
   8   4  -9 270.603 165.824  13
   8  -4   9 69.3510 62.5500   1
  -8   4  -9 160.195 233.160  12
   8   4  -9 241.735 357.788  11
   8   4  -9 224.725 200.857  20
  -8   4  -9 190.654 166.778   5
  -8  -4   9 89.4779 227.582   2
  -8  -4   9 177.505 207.522  19
  -8   4  -9 191.136 213.158  19
   4   8  -9-280.819 579.572  18
   8   4  -9 116.361 176.220  18
  -4  -8   9 62.1928 363.821  17
  -8  -4   9 84.1783 143.819  17
  -8   4  -9 82.3640 142.203   4
   8   4  -9 95.7158 113.671   8
   8  -4   9 160.374 171.147   8
   8  -4   9-288.212 460.292  16
   8   4  -9-64.7487 66.8668   1
   8   4  -9-62.8227 240.405  14
   8  -4  10 1255.51 509.566   6
  -8   4 -10-15.6661 143.150  13
   4   8 -10 833.315 441.866  13
  -8   4 -10 410.510 284.007   3
   8   4 -10 1107.40 398.994  13
   4  -8  10 144.565 204.172   6
  -8   4 -10 440.793 281.684  12
  -4   8 -10 594.318 307.146  12
   8   4 -10 1081.94 568.976  11
  -8   4 -10 628.890 338.154   5
  -8   4 -10 1147.98 498.935  20
   8   4 -10 639.416 371.595  20
   8   4 -10 1745.07 619.335  10
  -8  -4  10 586.166 256.676  19
  -8   4 -10 637.830 286.283  19
  -8  -4  10 674.252 443.658   2
   4   8 -10 764.840 489.063  18
   8   4 -10 857.094 431.338  18
  -4  -8  10-253.458 320.084  17
  -8   4 -10 658.195 397.286   4
  -8  -4  10 378.227 259.936  17
   8  -4  10 687.674 324.351   8
   8   4 -10 763.395 248.563   8
   8  -4  10 572.903 295.146  16
   8   4 -10 3.44439 152.357  14
   8   4 -10 897.947 440.027   1
   8   4 -10 366.844 141.870   3
   8  -4  10 1031.11 383.081   1
  -4   8 -10 865.164 425.892   3
   8  -4  10 955.316 417.475  14
   8   4 -11 85.5945 85.1761   3
   8  -4  11 237.705 327.550   6
   4   8 -11 31.6672 75.1828  13
  -8   4 -11-32.8437 25.6714  13
   8   4 -11 50.1224 62.8520  13
  -8   4 -11 94.8097 85.2426   3
   4  -8  11 1.00387 205.232   6
  -4  -8  11-48.9011 65.2157   6
  -8   4 -11 106.359 86.3752  12
  -4   8 -11 23.5390 128.415  12
  -8  -4  11 17.3832 109.670   5
  -8   4 -11 7.36601 75.4033   5
   8   4 -11 283.383 301.373  11
  -8   4 -11 196.857 293.910  20
   8   4 -11 129.737 233.977  20
   8   4 -11 217.818 288.680  10
  -8   4 -11 108.074 98.9396  19
  -8  -4  11 31.4777 28.1977  19
  -8   4 -11 658.045 385.059   9
   4   8 -11 10.9158 123.279  18
   8   4 -11 156.602 209.637  18
  -4  -8  11 239.624 453.110  17
  -8   4 -11-65.0592 84.4560   4
  -8  -4  11 112.977 234.424  17
   8  -4  11 249.929 216.981   8
   8  -4  11 34.3344 69.5514   1
  -8  -4  11 153.568 243.169   2
  -8  -4  11-124.609 217.199  16
   8  -4  11 11.3302 260.175  16
   8   4 -11 65.6324 71.1595   8
  -8   4 -11 1036.21 633.271  15
  -8   4 -11 318.262 303.310  10
   8   4 -11-151.770 246.348  14
   8   4 -11-13.0191 145.414   1
  -4   8 -11-11.6745 113.915   3
   8  -4  11 181.280 173.588  14
   8   4 -12 1765.70 634.224   1
   4   8 -12 2655.75 805.644  13
   8   4 -12 2565.04 619.392  13
  -4   8 -12 38.7367 296.575  13
  -8   4 -12 119.017 183.308  13
   4  -8  12 437.947 329.224   6
  -4  -8  12 221.785 217.032   6
  -8   4 -12 1006.94 456.907   3
  -4   8 -12 2499.49 671.817  12
  -8   4 -12 1241.36 460.550  12
  -8  -4  12 1206.49 525.504   5
   8   4 -12 2757.18 732.834  11
  -8   4 -12 2071.95 648.966  20
   8   4 -12 1267.42 584.451  20
  -8  -4  12 1452.19 377.876  19
  -8   4 -12 1948.57 485.670  10
   8   4 -12 2250.62 725.165  10
  -8   4 -12 1351.78 446.870  19
   8   4 -12 3138.02 995.312   9
   4   8 -12 2743.52 842.003  18
  -8   4 -12 1739.84 417.413   9
  -8  -4  12 1988.52 739.815   2
   8   4 -12 2282.09 686.974  18
  -4   8 -12 1101.79 278.065  18
   8  -4  12 1081.82 402.228   1
  -4   8 -12 2327.26 507.650   4
   8  -4  12 2670.08 661.940   8
   4  -8  12-69.4312 198.670  17
  -8   4 -12 1203.66 556.837   4
  -4  -8  12-18.2888 151.760  17
  -8  -4  12 1761.70 671.645  17
  -8  -4  12 1665.00 481.297  16
   8  -4  12 2013.10 710.498  16
  -8   4 -12 2538.18 923.968  15
  -8   4 -12 2635.97 993.710   7
  -4   8 -12 2556.94 757.001   3
   8  -4  12 3731.25 904.347   6
   8   4 -12 2260.25 425.436   3
   8  -4  12 3346.67 805.829  14
   8   4 -12-110.563 227.719  14
  -4   8 -13-122.721 234.391   3
   8  -4  13-131.647 219.696   6
   8   4 -13 159.207 225.276   1
   4  -8  13-46.3551 103.283  14
   8   4 -13-33.8012 38.9232   3
  -4   8 -13-87.5088 256.520  13
   4   8 -13-28.9244 158.442  13
  -8   4 -13-68.8352 184.465  13
  -4  -8  13-8.33560 95.3966   6
   4  -8  13 97.5947 138.675   6
   8   4 -13 38.3480 101.615  13
  -8   4 -13-50.3502 96.8312   3
  -8   4 -13 59.5275 142.401  12
  -4   8 -13 33.1670 122.314  12
   4   8 -13-14.7600 65.6883  18
  -8  -4  13 11.7748 113.859   5
   8   4 -13-218.364 391.943  11
   8  -4  13-75.3444 264.205   1
  -8   4 -13-28.7275 152.497  20
   8   4 -13-4.86263 271.259  20
  -8   4 -13-13.5542 82.2297  10
   8   4 -13-230.890 133.253  10
  -8   4 -13-161.243 99.5280  19
  -8  -4  13-98.7403 143.629  19
   8   4 -13 229.514 277.986   9
  -8   4 -13 107.023 205.009   9
  -4   8 -13-3.69788 77.9775  18
  -8  -4  13-27.1615 89.7920   2
   8   4 -13-104.498 196.241  18
  -8   4 -13-157.280 218.184   4
   4  -8  13 154.671 295.189  17
  -4  -8  13-180.042 265.857  17
  -8  -4  13 50.4400 179.994  17
   8  -4  13-44.6552 142.307   8
  -8  -4  13-229.372 239.861  16
   8  -4  13 16.8663 74.3658  16
  -4   8 -13-67.4785 128.458   4
  -8   4 -13 447.106 585.418   7
  -8   4 -13-37.6529 54.4179  15
   8   4 -13-231.676 320.361  14
   4   8 -13-379.399 249.847   3
   8  -4  13 165.969 216.214  14
   4   8 -14 3323.01 918.173  13
   8   4 -14 2864.13 674.177  13
  -4   8 -14 1080.78 573.751  13
   8   4 -14 2203.55 763.185   1
  -4  -8  14 527.273 319.617   6
   4  -8  14 1467.85 572.589   6
  -8   4 -14 822.410 369.643  13
  -8   4 -14 2806.41 864.010  12
  -4   8 -14 2711.25 724.161  12
  -8   4 -14 1244.05 542.733   3
  -8  -4  14 1419.73 439.909   5
   8   4 -14 3077.32 800.775  11
  -8   4 -14 2481.26 827.193  20
  -8   4 -14 1949.06 595.400  10
   8   4 -14 2225.59 675.308  10
  -8  -4  14 737.416 169.463  19
  -8   4 -14 2011.92 633.928  19
  -4   8 -14 2280.82 482.923  18
   4   8 -14 2990.51 823.386  18
   8   4 -14 2713.45 888.793   9
   8   4 -14 2872.59 829.204  18
  -8   4 -14 1490.52 471.904   9
  -8  -4  14 2388.11 802.677   2
  -4   8 -14 3422.19 654.127   4
   8  -4  14 3261.41 780.903   8
  -8   4 -14 830.693 402.950   4
  -8  -4  14 2725.22 1044.85  17
   4  -8  14 1282.68 475.186  17
  -4  -8  14 800.319 493.514  17
   8   4 -14-135.576 652.706  20
  -8  -4  14 2213.17 578.872  16
   8  -4  14 3713.45 1003.15  16
  -8   4 -14 1882.38 877.094   7
   4   8 -14 3158.41 743.016   3
   8  -4  14 5067.50 1154.06   6
  -8   4 -14 1711.75 855.954  15
  -4   8 -14 2302.75 731.515   3
   8  -4  14 4473.79 1002.06  14
   4  -8  14 1287.72 404.004  14
   8   4 -14 2955.22 512.080   3
   8   4 -14 303.518 219.686  14
   8  -4  15-33.9900 139.500   6
   4  -8  15 3.50500 16.0450  14
  -4   8 -15 112.934 154.509   3
  -4  -8  15-116.596 58.3824   6
  -4   8 -15-25.1746 167.118  13
   4  -8  15 59.1035 249.440   6
   8   4 -15 35.7262 232.320   1
   4   8 -15-49.8286 233.655  13
  -8   4 -15-40.9089 63.2999  13
   8   4 -15 17.5282 35.4506   3
  -8   4 -15 256.645 341.714  12
  -8   4 -15 5.57826 191.416   3
  -4   8 -15 96.0846 28.3966  12
  -8  -4  15 88.1028 97.4770   5
   8   4 -15-69.8135 260.516  11
  -8   4 -15-5.45898 40.5444  20
  -8   4 -15 96.3937 168.872  19
   8   4 -15-567.342 645.255  20
  -8   4 -15-123.725 244.231  10
   8   4 -15-212.810 258.533   9
  -8   4 -15-171.904 286.787   9
  -4   8 -15 130.466 161.227  18
   4   8 -15 16.3334 73.9010  18
  -8  -4  15 328.503 386.718   2
   8   4 -15-100.691 238.111  18
   4  -8  15 33.6488 72.6173  17
  -4  -8  15 156.082 385.041  17
  -8  -4  15 116.153 53.4235  17
   8  -4  15 74.1790 161.202   8
  -4   8 -15 65.3957 97.6777   4
   8   4 -15-383.701 454.813  10
  -8  -4  15-2.08471 52.2413  16
   8  -4  15 52.3803 165.551  16
  -8   4 -15 351.242 430.191   7
  -8   4 -15 194.094 322.834  15
   8  -4  15-154.761 297.289  14
   4   8 -15 61.0955 43.9857   3
   8   5  -1 835.027 429.913   1
  -8  -5   1 289.530 447.651  17
  -8   5  -2 618.954 286.999  19
   8  -5   2 311.850 238.471  14
   8  -5   2 199.547 187.054   6
   8   5  -2 191.800 145.380   1
   8   5  -2 122.009 300.957  18
  -8   5  -2 285.304 119.865   5
  -8  -5   2-48.5847 312.317  17
   8  -5   2-31.5466 238.098   8
   8  -5   3 352.154 246.179  14
   8  -5   3 200.802 207.421   6
   8   5  -3 662.600 452.032   1
  -8  -5   3-319.516 428.778  19
  -8   5  -3 579.144 260.271  19
  -8   5  -3 298.185 161.042   5
   8   5  -3 255.924 289.406  18
   8   5  -3 9.13053 289.531   8
  -8  -5   3 208.520 333.327  17
   8  -5   3 201.292 137.880   1
   8  -5   3 16.8647 147.674   8
  -8   5  -3 340.269 197.142   4
   8  -5   4 150.482 186.608  14
   8  -5   4 169.801 142.868   1
   8  -5   4 102.981 122.068   6
  -8   5  -4 207.751 151.154  12
  -8  -5   4 9.85081 91.0627  19
   8   5  -4 265.696 322.480   1
  -8   5  -4 287.089 185.639  19
  -8   5  -4 202.299 147.858   5
   8   5  -4 454.420 379.587  18
   8   5  -4 63.8009 99.0420   8
  -8  -5   4 68.7219 111.602  17
   8  -5   4 71.7850 148.663   8
  -8   5  -4 169.063 154.364   4
   8  -5   5-123.400 151.366  14
   8  -5   5 171.320 252.573   6
  -8   5  -5-127.253 145.910  12
  -8  -5   5-148.874 96.5457  19
   8  -5   5-26.8250 61.9190   1
  -8   5  -5 6.07431 46.3687   5
  -8   5  -5 107.255 163.293  19
   8   5  -5-147.786 266.781   1
   8   5  -5 9.42422 77.5932  18
   8   5  -5-114.527 161.670   8
  -8  -5   5-142.663 324.369  17
   8  -5   5-13.0534 64.2938   8
  -8   5  -5 29.0395 72.0674   4
   8  -5   6 129.037 144.909  14
   8   5  -6 175.659 162.828  13
  -8   5  -6 182.020 164.785  12
  -8  -5   6 31.4771 46.1352  19
  -8   5  -6 189.645 141.254  19
   8   5  -6 375.360 329.131  18
   8   5  -6 185.303 248.100   1
   8   5  -6 80.4187 144.860   8
  -8  -5   6 2.23151 142.744  17
  -8   5  -6 171.929 170.677   5
   8  -5   6 91.3644 139.672   8
  -8   5  -6 163.880 226.911   4
   8  -5   6 140.799 135.477   1
  -8   5  -6 78.3575 123.143   3
  -8   5  -7 7.44704 76.4549   3
   8  -5   7 51.5810 96.4041  14
   8   5  -7 105.701 118.405  13
   8  -5   7 114.556 125.341   6
  -8   5  -7 131.901 162.798  12
   8  -5   7 158.346 194.097   1
  -8  -5   7-336.277 284.820  19
  -8   5  -7 9.11860 31.8761   5
  -8   5  -7 74.5042 75.9921  19
   8   5  -7 171.295 228.332  18
   8   5  -7-37.1695 208.740   1
   8   5  -7 85.0285 118.456   8
  -8  -5   7-18.9650 209.165  17
   8  -5   7 3.42486 137.042   8
  -8   5  -7 132.617 169.678   4
   8  -5   8 82.9494 177.430  14
  -8   5  -8 53.5405 88.3614   3
   8   5  -8 76.7220 157.618  13
   8  -5   8-13.0259 71.2371   6
  -8   5  -8 67.1266 113.220  12
  -8   5  -8 87.9153 119.757   5
  -8  -5   8 247.563 211.745  19
  -8   5  -8 61.7477 124.607  19
   5   8  -8-539.407 642.446  18
   8   5  -8-26.1392 131.440  18
  -5  -8   8 145.231 365.977  17
   8   5  -8-65.9756 169.539   1
  -8  -5   8-75.3269 263.255  17
   8   5  -8 102.092 117.965   8
   8  -5   8 47.9580 97.8885   8
  -8   5  -8 79.1217 139.215   4
   8  -5   8 96.3890 128.467   1
   8  -5   9-41.0027 85.9057  14
  -8   5  -9-38.8833 94.0313   3
   5   8  -9-151.637 335.447  13
   8  -5   9 12.2081 96.3076   6
   8   5  -9 58.3958 77.4064  13
   5  -8   9 52.8442 167.384   6
  -8   5  -9-25.7044 41.5951  12
  -5   8  -9-269.573 319.911  12
  -8   5  -9 107.278 147.356   5
  -8  -5   9 183.167 231.512  19
  -8   5  -9-59.3443 137.176  19
   5   8  -9-82.7961 351.570  18
   8   5  -9-117.823 41.5916  18
  -5  -8   9-79.7949 197.383  17
   8  -5   9-24.9591 73.3472   1
  -8  -5   9-91.5588 190.502  17
   8   5  -9 121.935 142.622   1
   8   5  -9 29.5414 122.904   8
  -8   5  -9-58.2332 91.9919   4
   8  -5   9-8.70625 96.5946   8
   8  -5  10 133.921 153.435  14
  -8   5 -10-1.34629 35.4604   3
   5   8 -10 43.2295 169.156  13
   8  -5  10 158.824 150.118   6
   8   5 -10 184.938 206.790  13
   5  -8  10-53.6831 153.290   6
  -5  -8  10 33.0352 121.464   6
  -8   5 -10-47.5323 191.500  12
  -5   8 -10 59.3322 34.6093  12
   8   5 -10 344.242 341.835  20
   8  -5  10 108.114 150.483   1
  -8   5 -10 61.4097 9.64414   5
  -8  -5  10 170.581 304.908   2
  -8  -5  10-74.6866 133.651  19
  -8   5 -10 195.591 119.657  19
   5   8 -10-90.4219 289.073  18
   8   5 -10-2.91110 125.461  18
  -5  -8  10 236.680 441.088  17
  -8  -5  10-111.619 182.362  17
   8   5 -10 51.2613 30.8759   8
   8   5 -10 104.449 186.436   1
  -8   5 -10 149.836 195.851   4
   8  -5  10 46.4583 135.268   8
  -5   8 -10 28.6233 76.2173   3
   8  -5  11 1478.76 514.151  14
   8  -5  11 1216.62 392.358   1
  -8   5 -11-148.929 299.574  13
   8  -5  11 1861.17 604.958   6
  -8   5 -11 748.994 377.155   3
   5   8 -11 1642.74 632.924  13
   8   5 -11 1210.89 411.806  13
   5  -8  11 577.922 363.485   6
  -5  -8  11 141.328 192.014   6
  -8   5 -11 718.378 335.494  12
  -5   8 -11 1205.60 477.292  12
   8   5 -11 1787.06 707.227  11
  -8   5 -11 963.856 391.598   5
   8   5 -11 1646.79 662.391  20
  -8  -5  11 750.070 465.982   2
  -8   5 -11 930.719 330.681  19
  -8  -5  11 745.706 280.950  19
   5   8 -11 1540.19 677.026  18
   8   5 -11 1355.57 606.946  18
   8   5 -11 1118.79 279.856   8
  -5  -8  11 37.1725 334.224  17
  -8  -5  11 799.003 484.149  17
  -8   5 -11 829.191 376.051   4
   8  -5  11 1187.04 430.723   8
   8   5 -11 939.615 504.318   1
   8  -5  11 4.22944 552.216  16
  -5   8 -11 1072.99 364.698   4
  -5   8 -11 1123.63 525.333   3
  -5   8 -12 123.891 200.067   3
   5  -8  12 8.04362 7.41684  14
   8  -5  12 109.754 136.916   6
  -8   5 -12-69.5075 252.077  13
   5   8 -12-22.6188 174.237  13
  -8   5 -12 28.0502 160.441   3
   8   5 -12 209.956 210.312  13
   5  -8  12 112.697 65.2402   6
  -5  -8  12-108.368 180.182   6
  -8   5 -12-2.46679 154.875  12
  -5   8 -12 144.825 191.640  12
   8   5 -12-50.0361 153.102  11
  -8   5 -12 251.895 226.078   5
  -8   5 -12 185.833 317.466  20
   8   5 -12-250.012 455.028  20
   8   5 -12 370.791 429.644  10
  -8  -5  12 154.918 291.113   2
  -8  -5  12-5.29349 106.798  19
  -8   5 -12-16.6861 137.680  19
  -5   8 -12-43.4810 127.601   5
   5   8 -12 152.873 241.458  18
   8   5 -12 283.254 285.352  18
   5  -8  12 39.3122 176.059  17
  -5  -8  12-185.201 445.335  17
  -8   5 -12 161.341 217.239   4
  -8  -5  12-142.250 186.278  17
   8  -5  12-51.0667 65.7753   8
   8  -5  12-218.261 410.416  16
   8   5 -12 108.242 301.182   1
   8  -5  12 295.188 243.794   1
  -5   8 -12 34.1642 89.9706   4
   8   5 -12 14.9127 61.2543   3
   8  -5  12 212.498 252.160  14
  -5   8 -13 1323.96 555.032   3
   5  -8  13 464.122 255.264  14
   8  -5  13 2064.96 749.491   6
   8   5 -13 2995.36 814.954  13
  -5   8 -13 21.6358 331.742  13
  -8   5 -13 148.892 75.9579  13
   5   8 -13 1886.28 678.684  13
  -5  -8  13 184.917 124.940   6
  -8   5 -13 858.978 427.527   3
   5  -8  13 526.717 382.079   6
  -5   8 -13 1676.93 596.506  12
  -8   5 -13 1006.01 474.253  12
  -8   5 -13 731.443 331.464   5
   8   5 -13 2775.57 782.747  11
  -8   5 -13 1348.48 473.788  20
   8   5 -13 1348.20 321.722  20
  -8  -5  13 2240.32 513.399  19
  -8   5 -13 1332.01 476.261  10
   8   5 -13 2596.10 813.376  10
  -8  -5  13 2418.17 876.464   2
  -8   5 -13 1177.95 423.524  19
   5   8 -13 1234.24 567.500  18
  -5   8 -13 1677.45 487.479   4
   8   5 -13 2414.35 763.195  18
   8  -5  13 481.278 243.444   1
  -8  -5  13 5251.88 1389.77  17
   5  -8  13 482.687 257.447  17
  -8   5 -13 568.394 287.285   4
  -5  -8  13 205.595 208.111  17
   8  -5  13 1493.02 511.846   8
  -8  -5  13 789.127 381.822  16
   8  -5  13 889.125 532.800  16
   8   5 -13 1747.48 618.092   1
   8   5 -13 1654.28 426.421   3
  -8   5 -13 2089.86 908.454  15
   8  -5  13 1995.01 619.700  14
  -5   8 -14 66.1236 18.4110   3
   8   5 -14-21.7796 71.2644   3
   5  -8  14 30.2707 54.0534  14
   8  -5  14 117.964 179.699   6
  -5   8 -14-312.020 307.708  13
  -5  -8  14-71.8398 37.4934   6
  -8   5 -14-12.5170 38.9692  13
   5   8 -14-51.5189 122.798  13
   5  -8  14 147.299 171.382   6
   8   5 -14-188.203 212.677  13
  -8   5 -14 38.1229 131.379   3
  -8   5 -14 115.992 58.4795  12
  -5   8 -14 4.38398 92.5254  12
   8   5 -14 108.767 259.079  11
  -8   5 -14 111.388 80.7814  20
   8   5 -14 291.012 374.745  20
  -8   5 -14-38.3270 55.5332  10
   8   5 -14-26.1168 91.0821  10
  -8   5 -14 6.68653 31.6141  19
  -8  -5  14-41.5939 59.9218   2
   8   5 -14 958.643 751.746   9
  -8   5 -14 265.675 328.549   9
   5   8 -14 244.946 298.157  18
   8   5 -14 72.5277 105.371  18
  -8   5 -14 99.4226 62.9083   4
  -5  -8  14-121.194 122.162  17
  -8  -5  14-161.325 263.343  17
   8  -5  14 49.9871 89.1241   8
  -5   8 -14 157.552 143.921   4
  -8  -5  14-279.974 253.693  16
   8  -5  14 57.3304 216.466  16
   8   5 -14 22.4762 65.4145   1
  -8   5 -14 423.940 681.800   7
  -8   5 -14 257.949 431.654  15
   5   8 -14-95.4877 209.088   3
   8  -5  14 206.734 238.241  14
  -8  -6   2-195.688 281.573  17
   8   6  -3 182.263 390.462  18
  -8  -6   3-84.1957 332.143  17
   8  -6   4 38.2701 78.5011   6
   8   6  -4-315.473 370.176  18
  -8  -6   4 177.385 381.733  17
  -8   6  -4-99.8940 195.899   4
   8  -6   5 233.379 199.550  14
   8  -6   5 286.618 192.584   1
   8  -6   5 193.475 184.743   6
  -8   6  -5 328.006 194.614  12
   8   6  -5 115.851 344.424   1
  -8   6  -5 167.360 71.9512  19
  -8   6  -5 366.651 183.270   5
   8   6  -5 631.156 420.144  18
   8   6  -5-117.417 415.167   8
  -8  -6   5 89.3685 148.470  17
   8  -6   5-34.5057 239.625   8
  -8   6  -5 277.552 195.089   4
   8  -6   6 157.592 175.889  14
   8  -6   6 149.100 211.522   6
  -8   6  -6 103.600 123.564  12
   8  -6   6 46.2297 84.5620   1
   8   6  -6-28.7741 155.991   1
  -8  -6   6-19.2180 199.963  19
  -8   6  -6 207.069 136.705  19
  -8   6  -6 254.003 177.703   5
   8   6  -6 346.177 287.888  18
   8   6  -6 107.035 121.107   8
  -8  -6   6-66.2155 144.386  17
   8  -6   6-33.0056 145.051   8
  -8   6  -6 326.971 186.459   4
   8  -6   7 39.9141 13.0215  14
   8   6  -7 14.5919 182.164  13
   8  -6   7 78.9137 145.230   6
  -8   6  -7 189.522 196.448  12
  -8  -6   7-26.1014 41.8430  19
   8   6  -7 448.707 430.202   1
   8  -6   7 135.958 161.641   1
  -8   6  -7 218.368 193.657   5
  -8   6  -7 80.5610 69.9375  19
   8   6  -7 203.154 331.743  18
   8   6  -7 37.1392 79.9042   8
  -8  -6   7-127.591 357.051  17
   8  -6   7 73.1365 30.5040   8
  -8   6  -7 94.8383 143.177   4
  -8   6  -7-129.888 280.663   3
   8  -6   8 481.274 306.174  14
   8   6  -8 646.388 334.136  13
   8  -6   8 412.781 273.876   6
  -8   6  -8 501.427 306.094  12
  -8  -6   8 35.4093 186.984  19
   8   6  -8 670.631 453.852   1
  -8   6  -8 574.000 276.337   5
  -8   6  -8 526.971 259.676  19
   6   8  -8-181.478 383.294  18
   8   6  -8 616.055 444.992  18
  -6  -8   8 57.5808 287.709  17
   8   6  -8 475.340 299.240   8
  -8  -6   8-189.327 223.201  17
   8  -6   8 288.834 212.225   8
  -8   6  -8 613.890 343.281   4
   8  -6   8 341.201 175.003   1
  -8   6  -8 309.698 255.550   3
  -8   6  -9 282.797 229.696   3
   8  -6   9 307.143 237.067  14
   6   8  -9 34.3258 283.071  13
   8   6  -9 587.817 363.718  13
   8  -6   9 140.643 194.321   6
   6  -8   9 266.124 278.287   6
  -8   6  -9 149.794 227.789  12
  -6   8  -9 180.621 214.880  12
   8  -6   9 382.950 199.413   1
  -8  -6   9-207.485 137.080  19
  -8   6  -9 297.229 162.775   5
  -8   6  -9 310.584 182.707  19
   8   6  -9 198.556 224.485   1
   6   8  -9 386.877 134.247  18
   8   6  -9 361.141 327.373  18
  -6  -8   9-61.4908 225.012  17
   8   6  -9 366.795 212.747   8
  -8  -6   9-168.172 156.809  17
  -8   6  -9 237.451 199.438   4
   8  -6   9 241.858 186.649   8
   8  -6  10-22.1427 77.9966  14
  -8   6 -10 9.24690 107.928   3
   6   8 -10-49.4214 149.664  13
   8   6 -10-55.4756 110.250  13
   8  -6  10 194.343 280.865   6
   6  -8  10 12.4655 48.6275   6
  -6  -8  10-93.7386 142.021   6
  -8   6 -10-30.5835 83.5949  12
  -6   8 -10-8.05248 133.373  12
  -8   6 -10 147.922 148.140   5
  -8  -6  10 489.758 301.981  19
  -8   6 -10 16.0108 114.896  19
   8   6 -10-55.6870 187.455   1
   6   8 -10 96.2660 230.324  18
   8   6 -10-53.7813 54.0797  18
  -6  -8  10 13.7773 141.486  17
  -8  -6  10-157.638 215.690  17
   8   6 -10 55.2781 40.4726   8
  -8   6 -10 115.520 200.376   4
   8  -6  10 43.2501 126.394   8
   8  -6  10-6.25988 81.5158   1
  -6   8 -10-112.020 223.984   4
  -6   8 -10-148.616 264.153   3
   8  -6  11 175.109 110.523  14
  -8   6 -11 55.7219 53.9142   3
   6  -8  11 56.4752 102.585  14
   6   8 -11 479.623 320.017  13
   8  -6  11 332.510 291.991   6
   8   6 -11 371.615 414.446  13
   6  -8  11 44.0264 58.4944   6
  -6  -8  11-64.7726 117.008   6
  -8   6 -11 138.003 182.572  12
  -6   8 -11 84.1954 146.572  12
  -8   6 -11 165.785 175.936   5
  -8  -6  11 7.69559 29.2661  19
   8  -6  11 170.105 145.999   1
  -8   6 -11 158.128 149.253  19
  -6   8 -11 100.948 85.0857   5
   6   8 -11 277.459 361.998  18
   8   6 -11 153.880 315.944  18
   8   6 -11 157.139 455.865   1
  -6  -8  11-448.253 617.483  17
  -8  -6  11-485.415 506.536  17
  -8   6 -11 287.731 252.983   4
   8  -6  11 227.762 143.566   8
  -6   8 -11 152.192 168.245   4
  -6   8 -11 149.208 201.201   3
   8  -6  12 203.369 171.592  14
   6  -8  12 159.611 158.132  14
  -8   6 -12 305.501 317.573   3
   8  -6  12 479.588 312.230   6
   6   8 -12 677.562 402.436  13
   8   6 -12 792.993 415.762  13
  -6  -8  12-49.3697 108.295   6
   8  -6  12 242.246 120.546   1
   6  -8  12 282.272 339.127   6
  -8   6 -12 404.541 343.879  12
  -6   8 -12 493.820 302.471  12
  -8   6 -12 481.710 337.348   5
  -8  -6  12 214.338 215.487  19
  -8   6 -12 808.201 367.506  19
  -6   8 -12 478.359 202.255   5
   8   6 -12 778.919 546.436  20
   6   8 -12 118.760 106.157  18
   8   6 -12 744.067 513.823  18
   8   6 -12 144.594 179.611   1
  -6  -8  12-494.839 382.233  17
  -8  -6  12 336.702 436.049  17
  -8   6 -12 254.000 241.354   4
   8  -6  12 381.445 243.322   8
  -6   8 -12 350.749 263.921   4
  -6   8 -12 237.633 257.933   3
   8  -6  13 468.464 343.332  14
  -6   8 -13 197.449 238.395   3
   6  -8  13 132.828 94.8814  14
  -8   6 -13-204.402 326.097  13
   8  -6  13 410.821 320.378   6
  -8   6 -13 1.39816 111.017   3
   6   8 -13 429.124 331.423  13
   8   6 -13 296.869 251.312  13
   6  -8  13 404.518 435.647   6
  -8   6 -13 118.266 233.689  12
  -6   8 -13 278.598 275.783  12
   8   6 -13 540.936 287.510  11
  -8   6 -13 347.119 257.007   5
   8   6 -13 986.572 599.500  20
  -8   6 -13 362.791 248.156  19
   6   8 -13 371.856 289.454  18
   8   6 -13 399.855 300.073  18
   8   6 -13 257.389 247.071   1
  -6  -8  13 88.4914 259.447  17
  -8  -6  13-18.5536 154.026  17
  -8   6 -13 337.902 241.072   4
   8  -6  13 295.891 274.111   8
  -6   8 -13 380.995 251.239   4
   8   6 -13-72.1982 224.193   3
   8   7  -5 974.536 502.299  18
  -8  -7   5 455.969 687.173  17
   8  -7   6 151.153 259.531   6
   8   7  -6 328.805 323.962  18
  -8  -7   6-132.799 335.784  17
   8  -7   7 243.676 223.384   6
   8   7  -7 236.915 479.378   1
  -8   7  -7 1135.69 435.657  12
  -8   7  -7 1218.89 376.043   5
   7   8  -7 859.134 336.324  18
   8   7  -7 1225.71 675.974  18
   8   7  -7 125.703 399.906   8
  -7  -8   7 195.323 540.099  17
  -8  -7   7 327.262 523.097  17
   8  -7   7-71.6123 381.211   8
  -8   7  -7 1249.97 450.704   4
   8  -7   8 90.1588 156.714  14
   8   7  -8-67.9926 309.723  13
   8  -7   8 113.267 154.566   6
   8  -7   8-34.0037 72.5468   1
  -8   7  -8 32.0028 54.9108  12
   8   7  -8-527.807 680.444   1
  -8  -7   8 80.8811 109.580  19
  -8   7  -8 136.220 121.470   5
   7   8  -8 298.789 318.373  18
   8   7  -8 272.158 294.818  18
   8   7  -8-38.2552 111.091   8
  -7  -8   8 506.322 564.665  17
  -8  -7   8 527.210 583.532  17
   8  -7   8-349.033 345.377   8
  -8   7  -8 206.528 207.443   4
   8  -7   9 407.811 247.769  14
   8   7  -9 1351.37 521.961  13
   8  -7   9 379.808 273.016   6
   7  -8   9 246.101 371.419   6
  -8   7  -9 1225.73 535.005  12
  -8   7  -9 1243.22 410.108   5
  -7   8  -9 542.326 310.233  12
   8  -7   9 533.757 238.235   1
   8   7  -9 311.199 414.009   1
  -8   7  -9 536.034 204.059  19
   7   8  -9 796.591 495.174  18
   8   7  -9 615.871 390.964  18
   8   7  -9 804.362 355.145   8
  -8  -7   9-206.810 264.000  19
  -7  -8   9 661.165 678.236  17
  -8  -7   9 49.9289 158.273  17
   8  -7   9 249.442 120.632   8
  -8   7  -9 871.711 398.174   4
  -7   8  -9 647.490 288.041   4
  -8   7  -9 665.077 407.040   3
   8  -7  10 95.4699 234.283  14
   7   8 -10 68.1212 15.1617  13
   8   7 -10 220.113 195.008  13
   8  -7  10-56.3926 198.363   6
   7  -8  10-63.2561 90.0499   6
  -8   7 -10 93.5596 134.836  12
  -7   8 -10 151.029 117.084  12
   8   7 -10-192.915 475.924   1
  -8  -7  10 301.336 265.782  19
  -8   7 -10 251.659 211.228   5
  -8   7 -10 5.43768 152.704  19
  -7   8 -10 26.2683 53.6961   5
   7   8 -10 279.153 380.903  18
   8   7 -10 150.953 94.9725  18
   8  -7  10 41.3232 85.4225   1
  -7  -8  10 272.752 546.226  17
  -8  -7  10-24.1599 66.6538  17
  -8   7 -10 78.0397 134.774   4
   8  -7  10 102.652 75.0415   8
  -7   8 -10 304.711 245.670   4
  -7   8 -10-264.209 256.803   3
  -8   7 -10 6.57099 113.424   3
  -8   7 -11 85.7064 165.854   3
   8  -7  11 151.935 260.405  14
   7  -8  11 132.182 210.494  14
   8  -7  11 87.5719 109.943   1
   7   8 -11 36.0259 48.0443  13
   7  -8  11 5.91105 12.4227   1
   8   7 -11 195.689 195.838  13
   8  -7  11 252.795 299.198   6
   7  -8  11 8.40534 64.1745   6
  -8   7 -11 76.9592 167.129  12
  -7   8 -11-32.1217 166.170  12
   8   7 -11 169.753 211.859   1
  -7  -8  11-77.5979 169.729  19
  -8  -7  11-146.428 184.872  19
  -8   7 -11 4.48841 31.2720   5
  -7   8 -11 92.2199 128.107   5
  -8   7 -11-127.276 215.488  19
   7   8 -11 27.2106 160.298  18
   8   7 -11-134.977 100.931  18
  -7  -8  11-232.386 340.099  17
  -8  -7  11-30.2219 125.642  17
  -8   7 -11 161.389 203.398   4
   8  -7  11 74.5566 184.587   8
  -7   8 -11-43.5551 187.673   4
  -7   8 -11-59.4361 122.549   3
  -8  -7  12 64.9799 178.768  19
  -7  -8  12 52.5574 361.283  17
  -8  -7  12 588.711 594.647  17
   8   8  -7 5.86541 135.038  18
  -8  -8   7 800.756 769.621  17
   8   8  -8 1689.34 778.718  18
  -8  -8   8-216.501 210.447  17
   8  -8   9-15.0860 164.920   6
  -8   8  -9-426.714 310.648  12
  -8  -8   9-495.658 553.003  19
   8   8  -9 396.130 431.385  18
  -8  -8   9 198.588 335.637  17
  -8   8  -9 67.5711 176.849   4
  -8  -8  10 93.0878 235.332  19
  -8  -8  10-411.338 474.252  17
   9   0   0-7.47117 93.9350   6
  -9   0   0 9.36085 42.0615  12
   9   0   0-81.7238 154.394   1
   9   0   0-59.5028 118.826  11
  -9   0   0 53.7816 94.4379   5
  -9   0   0-3.07769 49.6680   2
  -9   0   0 32.0642 70.2742  19
   9   0   0 45.6455 8.10966  18
  -9   0   0-62.6135 96.5230   4
  -9   0   0-143.988 173.905  17
   9   0   0 47.0987 147.656   8
  -9   0   0 105.228 222.532   7
  -9   0   0 86.1693 140.686  15
   9   0   0-59.8480 110.814  14
  -9   0  -1-48.5938 91.5911   3
   9   0   1 386.687 221.200   6
   9   0  -1 504.374 224.739   6
   9   0  -1 202.697 84.0444  13
   9   0   1 330.912 221.401   1
  -9   0  -1 48.2881 34.5623  12
  -9   0   1 18.6805 51.5399  12
   9   0   1 432.282 148.795  11
  -9   0  -1 265.025 233.022   5
   9   0  -1 463.104 197.733  11
  -9   0   1 309.223 262.010   5
   9   0  -1 547.809 328.046   1
  -9   0  -1 198.959 188.551  19
  -9   0   1 292.184 228.208  19
  -9   0   1 292.586 193.843   2
   9   0   1 345.855 178.912  18
   9   0  -1 317.564 191.744  18
  -9   0  -1 238.508 188.645   4
  -9   0  -1 150.922 102.871  17
  -9   0   1 121.543 116.704   4
   9   0   1 426.324 288.305   8
  -9   0   1 143.193 109.783  17
   9   0  -1 238.783 174.214   8
  -9   0  -1 321.545 289.991   7
  -9   0  -1 159.047 143.191  15
  -9   0   1 323.805 271.163  15
   9   0   1 388.394 283.475  14
   9   0  -1 453.311 294.569  14
   9   0   2-20.0294 65.0008   6
   9   0   2 61.4886 61.9330   1
   9   0  -2 96.1958 98.9957   6
  -9   0  -2-34.5824 41.4971   3
   9   0  -2 5.88449 56.3541  13
  -9   0  -2 80.9780 161.612  12
  -9   0   2-9.27645 75.8216  12
   9   0   2 136.210 109.379  11
  -9   0  -2 100.115 179.600   5
   9   0  -2 115.044 117.183  11
  -9   0   2 29.9252 191.671   5
  -9   0  -2-77.7169 204.902  19
  -9   0   2 97.6443 210.527  19
   9   0  -2 25.1835 57.8568   1
   9   0   2 112.145 143.906  18
  -9   0   2 113.677 138.460   2
   9   0  -2 17.6982 93.1735  18
  -9   0  -2 30.8185 121.390   4
  -9   0  -2 18.3642 95.4058  17
   9   0   2-23.2702 64.4928   8
  -9   0   2 128.984 186.445  17
  -9   0   2 50.2890 125.917   4
   9   0  -2-56.6582 110.209   8
  -9   0  -2-69.6768 201.111   7
  -9   0  -2 89.9308 79.0323  15
   9   0   2 43.2970 132.293  14
   9   0  -2 26.9627 138.053  14
   9   0   3 22.9800 90.6489   6
   9   0  -3 59.7464 81.8673   6
  -9   0  -3 323.602 292.506  12
  -9   0  -3 22.9526 109.211   3
  -9   0  -3 168.787 214.596   5
   9   0   3 311.000 143.382  11
   9   0  -3 7.96979 89.5862  11
  -9   0   3 65.3418 115.109   5
  -9   0  -3-30.7449 119.788  19
  -9   0   3 197.472 193.607  19
   9   0   3 119.777 114.287  18
   9   0  -3 67.8423 108.346  18
   9   0  -3 97.5607 143.857   1
  -9   0   3 5.00040 44.3403   2
  -9   0  -3 18.8347 77.7650   4
   9   0   3 75.9992 175.647   8
  -9   0  -3 156.744 160.875  17
  -9   0   3 94.0466 149.089  17
  -9   0   3 105.868 147.577   4
   9   0  -3 0.19385 82.1339   8
   9   0   3-93.1673 124.721  16
  -9   0  -3-14.5555 64.6651   7
  -9   0  -3-132.863 245.542  15
   9   0   3 176.229 227.455   1
   9   0   3 12.3216 58.2453  14
   9   0  -3 20.7229 77.1042  14
   9   0  -4 8.98241 49.7518  14
   9   0  -4-27.6816 14.5855   6
   9   0   4 34.9940 51.0260  11
   9   0  -4-71.9362 125.521  11
  -9   0   4 41.1263 110.919   5
  -9   0  -4-27.7786 26.6216  19
  -9   0   4 59.5314 119.439  19
   9   0   4-5.30166 44.6079  18
   9   0  -4 141.894 126.011  18
  -9   0  -4-108.313 173.873   4
  -9   0   4-19.6811 98.6937   2
   9   0   4 76.7877 100.804   8
  -9   0  -4 12.5340 102.051  17
   9   0  -4-51.9728 110.707   1
  -9   0   4 18.4844 125.018  17
  -9   0   4-18.1101 87.2685   4
   9   0  -4 35.9241 91.6693   8
   9   0   4-12.8708 50.5547  16
   9   0   4-5.60399 76.7109   1
  -9   0  -4-251.747 368.549   7
  -9   0  -4-130.338 292.490  15
   9   0   4 44.7743 153.708  14
   9   0   4 51.7998 153.971   6
   9   0  -5 208.736 168.869  14
   9   0  -5 416.165 155.356   6
   9   0   5 905.691 208.453  11
   9   0  -5 11.0576 55.1826  11
  -9   0   5 317.808 222.040   5
  -9   0  -5 217.556 174.444  19
  -9   0   5 235.166 131.214  19
   9   0   5 311.118 154.299  18
   9   0  -5 242.689 181.240  18
  -9   0  -5-59.2012 258.126   4
   9   0   5 435.803 308.326   8
  -9   0  -5-6.31529 52.1259  17
  -9   0   5 326.402 205.853   2
  -9   0   5 190.435 166.295  17
   9   0   5 453.702 320.079   1
  -9   0   5 262.915 190.018   4
   9   0  -5 228.820 177.129   8
   9   0   5 412.890 194.993  16
  -9   0   5 122.437 57.1099  16
  -9   0  -5-290.369 488.548   7
   9   0  -5 111.146 152.960   1
   9   0   5 421.316 295.612  14
   9   0   5 379.341 263.145   6
   9   0  -6 106.702 81.2028  14
   9   0  -6-36.7684 57.8356   6
   9   0  -6 87.4975 104.877  11
  -9   0   6 33.0460 118.433   5
  -9   0  -6 107.480 131.529  19
  -9   0   6-12.8715 46.9857  19
   9   0   6 45.6673 96.3318  18
  -9   0  -6-173.057 421.255   4
   9   0  -6-33.5333 120.748  18
   9   0   6-4.56996 187.947   1
   9   0   6-56.2853 114.116   8
  -9   0  -6-36.3477 89.2563  17
  -9   0   6 29.1462 107.909   2
  -9   0   6-13.5458 71.6008  17
  -9   0   6 65.1712 125.411   4
   9   0  -6 21.9899 53.3977   8
   9   0   6 56.2299 142.168  16
  -9   0   6 49.5684 48.2174  16
   9   0  -6 2.64331 41.5510   1
   9   0   6 45.2458 83.3906  14
   9   0   6 84.2326 101.588   6
   9   0  -7 218.735 168.894  14
   9   0  -7 163.904 154.472   1
  -9   0   7 370.331 252.630  19
   9   0  -7 291.803 114.113   6
   9   0  -7 230.225 209.558  11
  -9   0  -7 9.34227 145.557  19
  -9   0   7 195.171 193.694   5
   9   0   7 148.897 110.343   1
   9   0   7 282.804 165.987  18
   9   0  -7 67.7909 112.128  18
   9   0   7 347.439 260.098   8
  -9   0  -7 20.7216 80.4756  17
  -9   0   7 280.094 205.615  17
  -9   0   7 225.039 161.386   2
  -9   0   7 320.244 216.123   4
   9   0  -7-32.4454 138.700   8
   9   0   7 374.176 234.000  16
  -9   0   7 197.600 110.900  16
   9   0   7 352.334 265.957  14
   9   0   7 82.8723 126.265   6
   9   0  -8-10.8888 68.4388  14
   9   0  -8 6.08856 92.7462   1
   9   0  -8-31.5430 44.0289   6
   9   0  -8-0.72812 74.3136  11
   9   0   8-156.959 209.615   1
  -9   0  -8-53.0083 64.3733  19
  -9   0   8 5.44480 78.8436   5
   9   0   8 63.5127 101.590  18
   9   0  -8 13.1688 55.1916  18
  -9   0  -8-132.770 115.200  17
  -9   0   8-39.6661 107.147  19
   9   0   8-28.1917 153.502   8
  -9   0   8-9.47177 98.3295  17
  -9   0   8 118.626 150.686   2
  -9   0   8 36.4441 88.8801   4
   9   0   8-63.3395 104.692  16
  -9   0   8 11.4677 22.6937  16
   9   0   8-1.97401 26.5117  14
   9   0   8-131.304 264.488   6
   9   0  -9 39.9456 132.658  14
   9   0  -9-183.761 143.465   6
   9   0  -9 150.145 151.951   1
   9   0  -9 57.8323 109.955  11
  -9   0  -9 213.401 274.756  19
  -9   0   9 11.1690 14.0027   5
  -9   0   9-112.041 200.809  19
   9   0   9 134.701 102.069  18
   9   0  -9 57.4711 93.4932  18
  -9   0  -9-82.4690 58.2743  17
   9   0   9 80.8858 61.5063   8
  -9   0   9 118.353 181.700  17
  -9   0   9-1.15248 39.1311   2
  -9   0   9 58.3493 100.255   4
   9   0   9 135.157 173.212  16
  -9   0   9 55.7900 72.1821  16
   9   0   9 59.4099 150.889  14
   9   0   9 99.3763 222.597   6
   9   0 -10-36.3355 69.6632  14
   9   0 -10 24.7650 79.5109   1
   9   0 -10 84.1399 118.363  11
  -9   0 -10 354.006 364.332  19
  -9   0  10 20.6957 105.939   5
   9   0  10-39.7270 75.4468  18
   9   0 -10 60.6551 170.698  18
  -9   0 -10 256.441 164.280  17
   9   0  10-68.2819 105.619   8
  -9   0  10 1.33564 63.7917  17
  -9   0  10-39.7529 86.5905   2
  -9   0  10 11.9461 79.1311   4
   9   0  10-61.9995 58.5815  16
  -9   0  10-2.82072 73.2308  16
   9   0  10 71.3602 168.608  14
   9   0  10 9.42828 50.8186   6
   9   0 -11 232.063 187.824  14
   9   0 -11-102.779 210.843  11
   9   0 -11 49.1264 76.0471   1
  -9   0  11 92.3650 118.145   5
   9   0 -11 15.3575 112.284  18
  -9   0 -11 72.9558 122.461  17
   9   0  11 118.502 117.433   8
  -9   0  11 248.925 205.907  17
  -9   0  11 68.7416 121.586   2
  -9   0  11 198.074 163.968   4
   9   0  11 510.014 358.238  16
  -9   0  11 228.660 165.949  16
   9   0  11 69.0968 246.660  14
   9   0  11 266.757 304.475   6
  -9   0 -11-2.68937 160.839  19
   9   0 -12 133.147 144.469  14
   0   9 -12-190.315 414.439  13
   0  -9  12 166.490 217.634   6
   9   0 -12-139.243 259.716  11
  -9   0 -12 33.2498 245.186  19
  -9   0  12 96.3432 168.651   5
   9   0 -12-8.46666 82.4682   1
   9   0 -12-28.4259 110.164  18
   0  -9  12-32.8569 127.524  17
   9   0  12-41.0941 199.182   8
  -9   0  12-77.5773 195.254  17
  -9   0  12 115.925 177.046   2
   9   0  12 96.1720 242.352  16
  -9   0  12-45.2380 21.3201   4
  -9   0  12 2.55494 59.7338  16
   9   0  12-45.7242 221.930  14
   9   0  12-17.4281 110.543   6
   9   0 -13 484.554 286.476  14
   0   9 -13 963.210 541.999  13
   0  -9  13-81.5429 95.6204   6
   9   0 -13-83.5924 364.396  11
  -9   0 -13 76.3546 190.659  19
  -9   0  13 1208.94 466.636   5
   0   9 -13 633.499 395.157  18
   9   0 -13 154.932 160.545  18
   9   0 -13 571.975 360.583   1
   0  -9  13-42.7152 91.2451  17
   9   0  13 1243.53 474.515   8
  -9   0  13 1075.08 522.239  17
  -9   0  13 902.878 427.402   2
   9   0  13 967.682 444.356  16
  -9   0  13 979.259 341.590   4
  -9   0  13 727.290 311.882  16
   9   0  13 677.920 271.764  14
   9   0  13 401.447 308.677   6
   0   9 -13 1172.59 500.584   3
   9   0 -14 44.8332 153.166  14
   0   9 -14 130.637 235.512  13
   0  -9  14-134.038 155.564   6
   9   0 -14-235.998 492.685  11
  -9   0 -14-81.6188 22.8726  19
  -9   0  14 222.653 230.568   5
   0   9 -14 167.130 232.309  18
   9   0 -14-115.518 254.352  18
   9   0  14 318.746 334.176   8
   0  -9  14-74.7804 171.379  17
   9   0 -14 134.354 237.763   1
  -9   0  14-54.1207 125.034  17
  -9   0  14-91.1564 149.143   2
   9   0  14-5.04964 134.628  16
  -9   0  14 6.31214 134.366   4
  -9   0  14-17.5558 55.1307  16
   0   9 -14-59.5274 114.696   3
   9   0 -15-2.71776 40.3053  14
   0   9 -15 46.2450 81.9574  13
   0  -9  15 147.384 197.528   6
   0   9 -15-16.7282 236.327  12
  -9   0 -15-182.486 288.538  19
  -9   0  15 302.085 261.573   5
   0   9 -15 118.314 244.707  18
   9   0 -15-196.978 329.179  18
   9   0  15 554.389 386.677   8
   0  -9  15 176.844 339.442  17
   9   0 -15-79.6538 142.000   1
  -9   0  15 116.637 185.739  17
  -9   0  15 406.374 304.278   2
   9   0  15 194.710 87.3570  16
  -9   0  15 240.889 179.778  16
  -9   0  15 153.670 61.2831   4
   9   0  15-296.744 550.012   6
   0   9 -15 420.492 305.389   3
   9  -1   0 973.969 428.840  14
  -9  -1   0 19.7230 35.1218   3
  -9  -1   0 528.679 225.803  12
  -9   1   0 469.982 237.982  12
  -9   1   0 1099.23 326.795   2
   9   1   0 1946.74 417.538  11
  -9  -1   0 303.101 220.702   5
   9  -1   0-150.055 192.495  11
  -9   1   0 934.831 419.411   5
  -9  -1   0 507.165 259.726  19
  -9   1   0 753.912 368.553  19
   9   1   0 247.501 96.2390   9
   9   1   0 1125.62 341.946  18
   9  -1   0 545.614 225.631  18
   9  -1   0 947.894 387.519   1
  -9  -1   0 261.653 159.106   4
  -9  -1   0 484.570 237.210  17
   9   1   0 1146.13 405.558   8
  -9   1   0 353.473 201.306  17
  -9   1   0 576.152 316.140   4
   9  -1   0 1083.58 415.210   8
   9  -1   0 1083.21 351.613   6
   9   1   0 1178.92 458.900  14
   9   1   0 605.178 259.008   6
   9   1   0 1380.55 530.700   1
   9  -1  -1-19.8623 104.900  14
   9   1  -1-56.4417 92.7238   1
   9  -1   1 7.00727 90.9875   6
   9  -1  -1 33.4661 16.5475   6
  -9  -1  -1 33.3120 73.0802   3
  -9  -1   1 96.9117 108.797  12
  -9   1  -1 28.3231 39.4032  12
  -9   1   1-4.17696 81.8212  12
   9   1   1 175.411 125.906  11
  -9  -1  -1-149.964 224.839   5
   9   1  -1 280.891 180.039  11
  -9  -1   1 43.5031 103.717   5
  -9   1  -1 0.72738 47.7357  20
  -9  -1   1 66.6168 92.5027   2
  -9   1  -1-58.9678 139.716   5
   9  -1  -1-332.376 229.876  11
  -9   1   1-65.2189 91.4045   5
  -9  -1  -1 35.8394 67.5904  19
  -9  -1   1 49.1801 45.9494  19
  -9   1  -1 30.5971 139.018  19
  -9   1   1 123.842 186.652  19
   9  -1   1 39.9013 124.559   1
  -9   1  -1 5.13407 76.1703   2
   9   1   1 18.5488 13.7393   9
   9   1  -1-9.00212 108.463   9
   9   1   1-7.36828 75.8916  18
   9   1  -1-41.2796 111.732  18
   9  -1   1-8.10216 80.5652  18
   9  -1  -1 22.9211 29.3364  18
  -9  -1  -1-70.0626 194.679   4
  -9  -1   1-193.153 179.954   4
  -9   1   1 56.1415 99.5767   2
  -9  -1  -1-229.661 234.739  17
   9   1   1 25.6924 78.5020   8
  -9  -1   1 171.514 166.281  17
   9   1  -1-12.0780 55.3048   8
  -9   1  -1-102.059 165.836   4
  -9   1  -1-35.6337 76.9853  17
   9  -1   1 26.2291 101.712   8
  -9   1   1 5.88804 87.0879  17
   9  -1  -1-9.33302 110.903   8
  -9   1   1 32.6345 84.2323   4
   9  -1  -1 5.02919 62.6961   1
   9   1   1-23.8312 190.779   1
   9   1   1 51.2638 9.23545  14
   9   1   1-61.0517 142.474   6
   9   1  -1-149.200 215.898  14
   9   1  -1 44.8819 99.8145   6
   9  -1   1-76.5919 145.878  14
   9  -1  -2 341.920 283.369  14
  -9   1  -2 50.1203 49.2757   3
   9  -1   2 356.726 212.969   6
   9   1  -2 307.306 132.902  13
   9  -1  -2 302.247 161.941   6
   9   1  -2 426.394 339.154   1
  -9   1  -2 197.582 175.803  12
  -9  -1   2 96.9057 70.7971  12
   9   1  -2 839.447 313.648  11
  -9  -1   2 298.685 251.027   5
   9  -1   2 316.569 243.674   1
  -9   1  -2 222.966 218.915   5
  -9   1  -2 9.56324 68.8451  20
  -9   1  -2 216.190 155.996   2
   9  -1  -2-297.088 246.640  11
  -9   1   2 372.298 254.367   5
  -9  -1  -2 3.37956 247.046  19
  -9  -1   2 408.824 265.935   2
  -9  -1   2 355.511 271.100  19
  -9   1  -2 172.120 146.252  19
  -9   1   2 315.095 190.483  19
   9   1  -2-215.146 178.994   9
   9   1   2 387.644 228.939  18
   9   1  -2 456.050 253.438  18
   9  -1   2 232.334 140.323  18
   9  -1  -2 173.220 127.033  18
  -9  -1  -2-139.862 259.799   4
  -9  -1   2 142.034 132.210   4
  -9  -1  -2 173.069 186.741  17
   9   1   2 619.937 368.985   8
  -9  -1   2 110.475 180.679  17
  -9   1  -2 107.424 121.968   4
  -9   1   2 328.756 183.963   2
   9   1  -2 336.080 222.003   8
   9  -1   2 365.572 247.786   8
  -9   1  -2 56.9138 37.4507  17
  -9   1   2 173.169 185.359  17
   9  -1  -2 282.207 203.089   8
  -9   1   2 306.897 251.821   4
   9   1   2 225.269 113.191  16
   9   1   2 438.102 321.406   1
  -9  -1   2-103.460 257.482   7
   9  -1  -2 350.549 259.200   1
   9   1   2 317.780 188.068   6
   9   1   2 454.793 334.968  14
   9   1  -2 612.908 336.062  14
   9   1  -2 238.022 128.619   6
   9  -1   2 420.323 260.381  14
   9  -1  -3 67.1180 113.363  14
   9  -1   3 185.968 171.960   6
  -9   1  -3 52.7785 81.3857   3
   9  -1  -3 104.337 161.863   1
   9   1  -3 125.720 72.9621  13
   9  -1  -3 104.483 123.534   6
   9  -1   3 56.7337 129.086   1
  -9   1  -3-26.6815 130.382  12
  -9  -1   3-9.62560 61.6655  12
   9   1  -3-150.479 185.217   1
   9   1  -3 90.6213 136.983  11
  -9   1  -3 164.123 196.818   5
  -9  -1   3 40.2256 144.842   5
  -9   1  -3-212.876 192.789  20
   9  -1  -3-393.166 266.432  11
  -9   1   3 183.322 204.407   5
  -9   1  -3-20.7913 91.0058  19
  -9  -1   3 138.139 167.531  19
  -9   1   3 87.1456 129.284  19
  -9  -1   3-66.1865 116.093   2
   9   1   3 82.5635 128.155  18
   9   1  -3 138.840 174.449  18
   9  -1   3 33.6993 81.5410  18
  -9  -1  -3-139.237 388.777   4
   9  -1  -3 116.341 151.470  18
  -9  -1  -3 41.3398 73.4693  19
   9   1   3 115.090 126.143   8
  -9  -1  -3 158.012 187.399  17
  -9  -1   3 62.3923 48.7939   4
  -9   1  -3 44.1841 68.6690   4
  -9  -1   3-45.5820 137.362  17
   9  -1   3 34.5636 93.2943   8
   9   1   3 110.236 136.226   1
  -9   1  -3-40.5554 51.4789  17
   9   1  -3 28.6230 155.034   8
  -9   1   3 392.241 312.104  17
  -9   1   3 273.768 206.901   2
   9  -1  -3-6.96866 73.2339   8
  -9   1   3 169.391 184.599   4
   9   1   3 156.855 108.991  16
  -9  -1   3-10.0622 130.637   7
  -9  -1   3-191.269 218.156  15
  -9   1  -3 358.983 381.928  15
   9   1   3 237.151 187.556   6
   9   1   3 159.345 216.308  14
   9   1  -3-33.6683 32.2785  14
   9  -1   3 6.19831 36.6887  14
   9   1  -3 6.35296 40.2773   6
   9   1  -4-30.4429 50.6104   6
   9  -1  -4-104.305 149.823  14
   9  -1   4-6.98898 117.795   6
   9  -1   4 100.695 204.682   1
  -9   1  -4 0.47407 42.2885   3
   9   1  -4 53.1383 87.5989  13
   9  -1  -4-3.25403 53.5557   6
  -9   1  -4-102.320 104.093  12
   9  -1  -4-18.7303 117.566   1
  -9   1  -4 39.6010 124.183   5
   9   1  -4 247.403 220.966  11
  -9  -1   4 87.4165 83.2177   5
   9   1  -4-143.526 157.501   1
  -9   1  -4-254.265 244.489  20
  -9  -1  -4-70.5163 211.874  19
  -9   1   4-161.509 155.935   5
  -9   1  -4-86.8387 202.398  19
  -9  -1   4-164.765 168.381  19
  -9   1   4-148.592 159.730  19
   9   1   4-9.96100 57.2399  18
  -9  -1   4 52.2545 89.6801   2
   9   1  -4 200.892 141.808  18
   9  -1   4 19.4725 53.6133  18
   9  -1  -4 39.2455 45.9750  18
   9   1   4 40.6745 225.231   1
   9   1   4-56.8153 101.594   8
  -9  -1  -4-73.3827 128.192  17
  -9   1  -4 90.7311 204.861   4
  -9  -1   4-36.1212 49.1863   4
  -9  -1   4 12.7350 146.196  17
   9  -1   4-114.419 190.055   8
  -9   1  -4-75.5471 85.7666  17
   9   1  -4-28.3540 88.7562   8
  -9   1   4 37.1980 84.3750  17
   9  -1  -4-97.3933 111.034   8
  -9   1   4-11.8956 66.8502   2
  -9   1   4-18.0708 91.2911   4
   9   1   4-20.4054 41.3151  16
  -9  -1   4-29.3937 100.086   7
  -9   1  -4 89.1724 281.657   7
  -9  -1   4-35.6640 92.6040  15
  -9   1  -4 164.445 270.222  15
   9   1   4-58.9693 45.2323   6
   9   1   4-21.2702 163.327  14
   9   1  -4-33.6507 105.719  14
   9  -1   4-1.24299 81.0296  14
   9   1  -5 12.8491 31.8856   6
   9  -1  -5 5.89562 82.0900  14
   9  -1   5-63.7039 112.137   6
  -9   1  -5 27.5129 71.8800   3
  -9   1  -5 194.801 273.520  12
   9  -1  -5-27.5605 89.3688   6
  -9   1  -5-87.5392 137.985   5
   9   1  -5 27.7782 65.5751  11
  -9  -1   5 122.376 186.699   5
   9  -1  -5 55.8575 131.307   1
  -9  -1  -5 165.017 229.519  19
   9   1  -5 116.919 101.818   1
  -9   1  -5-74.3261 100.958  19
  -9   1   5-13.7012 26.2930   5
  -9  -1   5-89.2914 163.353  19
  -9   1   5-37.8977 108.492  19
   9   1   5 56.7055 71.1158   1
   9   1   5-6.07454 55.1155  18
   9   1  -5 9.16025 48.4287  18
  -9  -1   5-17.8976 66.3721   2
   9  -1   5-9.96690 31.0609  18
   9  -1  -5 4.36651 46.7980  18
  -9   1  -5 42.8586 132.952   4
   9   1   5 46.1276 109.127   8
  -9  -1  -5 53.2281 39.1991  17
   9  -1   5 112.867 145.338   8
  -9  -1   5 96.1231 122.978   4
  -9  -1   5 101.359 137.555  17
  -9   1  -5 125.213 111.027  17
  -9   1   5 76.8832 24.4601  17
   9   1  -5-32.1772 84.7151   8
   9  -1   5 39.3428 121.379  16
   9  -1  -5 18.3512 38.9653   8
  -9   1   5 20.6059 86.1584   4
  -9   1   5 39.2471 102.159   2
   9   1   5 50.8328 67.5759  16
  -9  -1   5 48.3916 91.9024   7
  -9   1  -5 71.6696 176.822   7
  -9  -1   5 1.01005 42.5077  15
  -9   1  -5-47.4277 117.489  15
   9  -1   5-31.0271 150.613   1
   9   1   5 67.6153 126.564   6
   9   1   5 29.9918 55.2475  14
   9  -1   5-21.1592 121.801  14
   9   1  -5 6.68455 14.0579  14
   9  -1   6 276.196 208.000   6
   9  -1  -6 172.968 142.901  14
   9   1  -6 202.852 104.403   6
  -9   1  -6 451.871 371.570  12
   9  -1  -6 162.423 124.800   6
  -9   1  -6 133.879 182.643   3
  -9   1  -6 120.053 186.456   5
   9   1  -6 226.468 154.679  11
  -9  -1   6 199.645 224.096   5
  -9  -1  -6-104.263 115.258  19
   9   1   6 321.837 286.221   1
  -9   1  -6 106.542 138.671  19
  -9   1   6 92.9842 109.583   5
  -9  -1   6-105.372 146.426  19
  -9   1   6 73.6069 136.499  19
   9  -1  -6 272.202 213.204   1
   9   1   6 247.873 212.498  18
   9   1  -6 308.715 245.854   1
   9  -1   6 147.102 104.822  18
   9   1  -6 223.971 201.181  18
   9  -1  -6-0.35569 72.0823  18
  -9  -1   6 72.4174 99.1337   2
  -9   1  -6 217.982 225.277   4
  -9  -1  -6 54.9709 116.930  17
   9   1   6 331.320 290.784   8
   9  -1   6 192.245 188.716   8
  -9  -1   6 213.450 247.074  17
  -9   1  -6 21.2813 86.1199  17
  -9  -1   6 85.5884 115.048   4
  -9   1   6 117.488 148.639  17
   9   1  -6 288.621 181.519   8
  -9  -1   6 42.6686 30.8737  16
   9  -1   6 166.673 149.917  16
   9  -1  -6-193.823 245.041   8
   9  -1   6 352.757 261.277   1
  -9   1   6 185.833 173.424   4
   9   1   6 197.304 184.112  16
  -9   1  -6 335.280 212.844   7
  -9   1   6 286.403 199.206   2
  -9   1  -6 88.1854 126.831  15
  -9  -1   6 212.076 153.696  15
   9   1   6 68.9274 36.5530   6
   9   1   6 321.132 330.553  14
   9  -1   6 233.525 221.336  14
   9   1  -6 239.478 185.976  14
   9  -1   7 21.5329 55.2103   6
   9  -1  -7 131.199 143.929  14
   9   1  -7 168.067 79.0531   6
   9   1   7-119.412 350.751   1
   9   1  -7 213.031 200.846  11
  -9  -1   7 117.740 167.350   5
  -9  -1  -7 75.4364 213.724  19
  -9   1  -7 219.869 306.166  19
  -9   1   7 55.1082 104.396   5
  -9  -1   7 85.4722 126.804  19
  -9   1   7 33.8697 83.2807  19
   9   1   7 144.967 66.9851  18
   9  -1   7 119.886 77.0776  18
   9   1  -7 81.4007 79.1522  18
   9   1  -7 252.247 244.805   1
   9  -1  -7-113.299 144.309  18
  -9   1  -7-99.1208 202.142   4
  -9  -1  -7 388.714 267.047  17
  -9  -1   7 91.3248 164.272   2
   9   1   7 53.0972 34.0549   8
   9  -1  -7 118.841 145.214   1
   9  -1   7 246.575 200.745   8
   9  -1   7 199.420 174.548   1
  -9   1  -7 209.354 125.939  17
  -9  -1   7 111.462 142.904  17
  -9  -1   7 147.977 160.284   4
  -9   1   7 155.972 184.239  17
   9   1  -7 69.4539 23.5413   8
  -9  -1   7 141.105 87.2489  16
   9  -1   7 111.878 167.987  16
  -9   1   7 41.1487 63.1252   4
  -9   1  -7 29.8902 53.3678   7
   9   1   7-38.5388 138.935  16
  -9   1   7 29.2074 48.2839   2
  -9   1  -7 8.44019 145.681  15
   9   1   7-34.4728 174.331   6
   9   1   7 159.217 207.587  14
   9  -1   7-7.59862 64.0164  14
   9   1  -7 222.237 189.785  14
   9  -1  -8 105.776 163.584  14
   9   1  -8 130.475 69.0355   6
  -9   1  -8-7.70068 34.8630  13
   9   1   8-462.362 612.903   1
   9   1  -8 110.892 180.196  11
  -9  -1   8 76.0523 185.019   5
  -9  -1  -8 22.8193 211.992  19
  -9   1  -8 81.3563 120.363  19
  -9  -1   8 99.1182 125.295  19
  -9   1   8 129.693 168.539   5
  -9   1   8-379.494 239.324  19
   9  -1   8 150.056 83.1514  18
   9  -1   8 191.851 173.360   1
   9   1  -8 102.572 86.1299  18
  -9   1  -8-127.267 378.662   4
   9  -1  -8-38.5566 156.934  18
  -9  -1  -8-63.8228 75.7759  17
   9   1   8 116.649 199.480   8
  -9  -1   8 122.098 192.026   2
   9  -1   8 418.022 284.613   8
   9   1  -8 73.8481 152.523   1
  -9   1  -8 45.1216 55.8086  17
  -9  -1   8 262.143 249.658  17
  -9  -1   8 189.344 166.831   4
  -9   1   8-21.9819 54.1376  17
   9   1  -8 84.8128 64.8173   8
   9  -1   8 120.549 161.938  16
  -9  -1   8 226.727 124.865  16
   9  -1  -8 309.019 256.009   1
  -9   1  -8-201.102 427.322   7
  -9   1   8 172.277 153.263   4
   9   1   8 130.803 134.214  16
  -9   1   8 27.5133 60.4394   2
   9   1   8-115.789 281.933   6
   9   1   8 38.0700 92.5439  14
   9  -1   8 421.015 312.808  14
   9   1  -8 115.440 154.427  14
   9  -1   8 248.906 269.347   6
   9  -1  -9-53.0995 55.5095  14
   9   1  -9 39.5877 26.2740   6
  -9   1  -9 189.954 147.619  13
   9   1  -9-69.1403 171.039  11
  -9  -1   9 115.929 160.704   5
  -9  -1  -9-85.2765 194.412  19
  -9   1  -9 90.5418 193.712  19
   9  -1   9 31.4893 83.5411   1
  -9  -1   9 223.253 205.726  19
  -9   1   9 107.909 176.424   5
   9  -1   9 62.5777 56.1300  18
   9   1  -9-45.0556 123.167  18
   9  -1  -9-166.335 254.258  18
  -9  -1  -9-234.344 325.906  17
   9   1   9 122.697 194.766   8
   9  -1   9 395.687 280.720   8
  -9  -1   9 101.839 96.2389   2
  -9   1  -9 90.4193 73.2451  17
  -9  -1   9 208.523 176.931  17
  -9   1   9-216.489 268.552  17
  -9  -1   9 105.095 118.593   4
   9   1  -9 59.4165 134.244   1
   9  -1   9 283.864 214.304  16
  -9  -1   9 152.297 124.861  16
  -9   1  -9-385.370 540.313   7
   9   1   9 45.1003 153.459  16
  -9   1   9-18.8411 57.3285   4
  -9   1   9 55.7561 148.194   2
   9   1   9-297.975 392.897   6
   9   1   9-278.057 348.615  14
   9  -1  -9 18.0844 28.0453   1
   9  -1   9 78.5757 155.481  14
   9  -1   9 204.338 278.335   6
   9   1  -9 166.029 204.575  14
   9  -1 -10-27.0489 13.1807  14
   9  -1 -10-106.142 163.783   1
   9  -1  10-110.463 283.900   1
   9   1 -10-106.385 180.639  11
  -9  -1 -10 22.8408 144.591  19
  -9  -1  10 24.7118 35.2407   5
  -9   1 -10 176.167 225.799  19
  -9  -1  10 123.036 35.0620  19
  -9   1  10 80.2846 102.153   5
   9  -1  10 91.6602 55.4115  18
   9   1 -10 68.4530 110.528  18
   9  -1 -10-208.399 286.502  18
   9   1  10 70.6236 164.587   8
   9  -1  10-42.9369 136.975   8
  -9  -1  10 139.296 195.893   2
  -9  -1  10-44.2891 114.875  17
  -9   1  10-199.254 339.439  17
  -9  -1  10 104.960 89.6874   4
   9  -1  10 178.413 193.227  16
  -9  -1  10-86.0084 121.670  16
   9   1 -10-84.2390 159.830   1
   9   1  10 173.046 158.711  16
  -9   1  10-80.4550 189.686   4
  -9   1  10 171.803 164.260   2
   9   1  10-521.641 538.205   6
   9   1  10-340.315 320.804  14
   9  -1  10 142.321 179.631  14
   9  -1  10 0.06146 114.402   6
   9   1 -10 6.70504 125.102  14
   9  -1 -11 93.7877 151.371  14
   9  -1 -11-11.1814 147.296   1
   9   1 -11 63.0150 190.729  11
  -9  -1 -11 37.5791 158.450  19
  -9  -1  11 180.850 239.909   5
  -9   1 -11-65.3743 127.001  19
  -9  -1  11-132.534 236.096  19
  -9   1  11 59.6150 202.628   5
   9   1 -11 66.3388 41.9220  18
   9   1  11 306.326 337.744   8
   9  -1  11 92.3079 30.0762   8
  -9  -1  11 187.788 298.969   2
  -9  -1  11 177.374 243.942  17
  -9   1  11-242.627 378.742  17
  -9  -1  11 106.421 123.457   4
   9  -1  11 64.0123 66.0492  16
  -9  -1  11 43.7031 31.8983  16
   9   1  11 112.254 104.739  16
  -9   1  11-132.322 234.871   4
  -9   1  11 222.141 209.589   2
   9   1 -11-46.3971 119.449   1
   9   1  11-280.829 541.719  14
   9  -1  11 185.962 209.699  14
   9  -1  11-9.92153 114.060   6
   9   1 -11-29.6629 99.5852  14
   9   1 -12 449.255 277.744  14
   9  -1 -12 210.981 183.130  14
  -1   9 -12 269.993 250.086  13
   1   9 -12 362.561 283.810  13
   1  -9  12 153.700 197.492   6
  -1  -9  12-15.6417 139.602   6
   9  -1 -12 132.722 170.723   1
   9   1 -12 266.799 190.048  11
  -9  -1 -12 48.0330 204.810  19
  -9   1 -12 99.6754 204.417  19
  -9  -1  12 787.733 401.048   5
  -9   1  12 756.381 356.949   5
   1   9 -12 358.123 172.815  18
   9   1 -12 172.725 132.115  18
   9   1  12 740.952 414.203   8
   1  -9  12 389.220 433.301  17
  -1  -9  12-123.794 190.637  17
   9  -1  12 980.450 449.824   8
  -9  -1  12 895.333 459.187  17
  -9  -1  12 682.376 395.241   2
  -9   1  12 11.4865 283.797  17
  -9  -1  12 814.133 351.440   4
   9  -1  12 885.980 404.609  16
  -9  -1  12 704.340 298.275  16
   9   1  12 388.378 295.063  16
  -9   1  12 799.381 441.998   2
   9  -1  12 948.508 518.801  14
  -1   9 -12 765.571 382.666   3
   9  -1  12 930.576 498.391   6
   9   1 -12 516.819 351.278   1
   9   1 -13 85.3110 136.897  14
   9   1 -13 39.3056 126.400   1
  -1   9 -13 62.3134 219.210  13
   1   9 -13-16.5246 191.191  13
   1  -9  13 98.7090 237.288   6
  -1  -9  13 148.504 224.731   6
   9   1 -13 37.5898 77.6018  11
  -9  -1 -13-195.326 365.012  19
   9  -1 -13 237.461 270.650   1
  -9   1 -13-21.3321 123.762  19
  -9  -1  13 84.3105 124.473   5
  -1   9 -13 55.4806 73.5400  18
   1   9 -13-80.0064 246.826  18
   9   1 -13 86.9896 126.070  18
   9   1  13-42.3234 173.700   8
   1  -9  13 60.4060 258.521  17
  -1  -9  13 254.852 299.859  17
   9  -1  13-84.3006 58.4655   8
  -9  -1  13-45.3588 252.895  17
  -9  -1  13 292.221 251.568   2
  -9  -1  13 132.119 154.866   4
   9  -1  13 11.6153 82.8362  16
  -9  -1  13 96.0926 29.4309  16
   9   1  13-141.005 200.336  16
   9  -1  13 43.4658 174.867  14
   9  -1  13 43.9444 121.447   6
   1   9 -13-60.2443 204.039   3
  -1   9 -13 105.184 76.6188   3
   9   1 -14 381.412 246.392  14
  -1   9 -14 740.056 495.376  13
   1   9 -14 1153.48 589.567  13
   9   1 -14 402.730 259.660   1
   1  -9  14 109.788 210.494   6
  -1  -9  14-63.3699 140.422   6
  -1   9 -14 709.310 307.722  12
   9   1 -14 300.776 224.970  11
  -9  -1 -14-454.310 471.558  19
  -9   1 -14-898.386 483.823  19
  -9  -1  14 1111.06 472.470   5
  -1   9 -14 1092.24 447.682  18
   1   9 -14 1280.41 593.417  18
   9   1 -14 447.826 306.914  18
   9   1  14 637.165 410.193   8
   1  -9  14 80.3507 155.019  17
  -1  -9  14-444.848 575.938  17
   9  -1  14 1675.29 595.976   8
  -9  -1  14 896.096 502.444  17
  -9  -1  14 747.628 441.302   2
  -9  -1  14 945.430 341.714   4
   9  -1  14 1181.40 525.670  16
  -9  -1  14 995.454 379.640  16
   9   1  14 1106.36 544.490  16
   9  -1  14 1312.10 529.238  14
   9  -1  14 2345.19 811.528   6
   1   9 -14 1209.11 495.753   3
  -1   9 -14 1194.90 507.443   3
   9   1 -15 19.0362 66.4572  14
  -1   9 -15-64.6002 89.5599   3
  -1   9 -15-33.2935 217.106  13
   1   9 -15 201.964 294.247  13
  -1  -9  15 103.836 253.180   6
   1  -9  15 129.377 229.817   6
   9   1 -15 142.287 183.171   1
  -1   9 -15-82.9646 237.420  12
   9   1 -15-86.8578 305.674  11
  -9  -1 -15-470.634 580.745  19
  -9   1 -15 15.1048 132.471  19
  -9  -1  15-138.021 210.015   5
  -1   9 -15 44.8274 121.719  18
   1   9 -15-118.654 167.456  18
   9   1 -15 175.444 219.120  18
   9   1  15 38.4092 221.075   8
   1  -9  15 373.516 384.090  17
  -1  -9  15 38.6146 321.587  17
   9  -1  15 273.815 276.006   8
  -9  -1  15-88.6506 127.928  17
  -9  -1  15 3.52868 180.696   2
  -9  -1  15-30.3493 44.2221   4
   9  -1  15 92.1403 93.7540  16
  -9  -1  15-128.778 174.044  16
   9  -1  15 5.72838 461.214  14
   9  -1  15 95.4204 224.038   6
   1   9 -15 1.54987 140.755   3
   9  -2   0 74.9738 73.0466  14
   9  -2   0 182.587 102.409   1
   9  -2   0 175.731 130.937   6
  -9   2   0 31.6885 99.8606  12
  -9  -2   0-65.5042 117.339  19
  -9   2   0 245.034 204.821   5
   9   2   0 191.146 106.411  18
   9   2   0 245.756 194.541   8
  -9  -2   0 68.3019 28.6968  17
   9   2   0 313.868 258.076   1
   9  -2   0 171.017 74.7957   8
  -9   2   0 185.480 119.387   2
  -9   2   0 92.9369 101.663   4
   9   2   0 363.199 222.895  14
  -9   2   0 65.4454 41.9085  19
   9   2   1 2906.75 854.455   1
   9   2  -1 3163.67 829.926   1
   9  -2   1 1987.40 557.625   1
   9  -2  -1 1790.31 534.382   1
  -9   2  -1 1088.32 370.625  12
  -9   2  -1 2394.46 623.549   5
  -9   2   1 2042.43 555.337   5
  -9   2  -1 2440.71 412.329   2
  -9   2   1 2006.26 416.075   2
  -9   2  -1 2075.75 607.309  19
  -9   2   1 2023.11 564.310  19
  -9  -2  -1 289.429 300.936  19
  -9  -2   1 609.488 394.294  19
   9   2   1 2455.47 596.337  18
   9   2  -1 2677.97 627.666  18
  -9   2  -1 2260.20 615.604   4
  -9   2   1 2244.64 571.300   4
   9   2   1 2422.01 668.844   8
   9   2  -1 2574.94 632.326   8
   9  -2   1 2018.25 557.969   8
   9  -2  -1 1554.77 501.199   8
  -9  -2   1 6.32827 125.404   4
   9  -2   1 43.8626 200.055  18
   9  -2  -1-35.8961 189.967  18
  -9  -2  -1 374.370 217.270  17
  -9  -2   1 714.109 346.002  17
  -9   2  -1-166.616 220.144  17
   9  -2   1 2608.92 572.862   6
   9   2   1 2016.69 666.075  14
   9   2  -1 1863.73 611.981  14
   9  -2  -1 2471.80 533.329   6
   9  -2   1 2016.36 596.163  14
   9  -2  -1 1797.01 543.906  14
   9  -2   2-79.8749 153.826  14
   9  -2  -2 59.2571 115.443  14
   9   2  -2-248.416 194.588  13
   9  -2   2-26.2149 114.655   6
   9  -2  -2 41.5194 62.1948   6
  -9  -2   2 7.88709 56.3908  12
  -9   2  -2 106.986 83.8261  12
  -9  -2   2-81.8123 178.414   5
  -9   2  -2 75.5980 78.8619   5
   9   2  -2 188.967 124.032  10
  -9  -2  -2 28.9612 159.388  19
  -9  -2   2 200.005 232.310  19
  -9   2   2 113.944 153.056   5
  -9   2  -2-32.5852 129.188  19
  -9   2   2 103.769 80.4205  19
   9  -2  -2 10.4491 50.7559   1
   9   2   2 107.738 168.075  18
   9   2  -2 78.0103 49.4322  18
  -9   2  -2 188.673 126.175   2
  -9  -2   2-91.9028 249.599   4
   9   2   2 112.567 97.3809   1
   9   2   2 210.047 285.137   8
  -9  -2  -2 8.41773 105.425  17
  -9  -2   2-187.490 222.271  17
   9   2  -2 238.582 214.873   8
   9  -2   2 43.2352 105.205   1
   9  -2   2-17.4617 126.108   8
  -9   2  -2 64.0346 116.382   4
   9  -2  -2 20.1036 60.2666   8
  -9   2   2 48.8238 77.6952   4
   9   2   2 101.059 99.3258  16
  -9   2   2 91.1288 112.864   2
   9   2  -2-16.4143 89.2829   1
   9   2   2-5.26573 189.412  14
   9   2  -2-98.6932 167.463  14
   9  -2   3 476.934 308.957  14
   9  -2  -3 370.248 273.730  14
   9  -2   3 280.843 159.455   6
   9   2  -3 303.838 161.447  13
   9  -2  -3 261.260 148.944   6
  -9  -2   3 115.527 80.7820  12
  -9   2  -3 289.928 210.232  12
   9   2  -3 1278.27 411.789  11
  -9  -2   3 296.999 268.691   5
  -9  -2   3 174.527 90.2795   2
  -9   2  -3 421.877 291.603   5
  -9   2  -3 227.981 86.7483  10
  -9  -2  -3-74.7752 113.641  19
   9   2  -3 356.247 141.954  10
  -9  -2   3 175.220 193.590  19
  -9   2  -3 182.048 216.915  19
  -9   2   3 412.009 274.944   5
  -9   2  -3 360.892 149.811   2
  -9   2   3 241.910 239.133  19
   9   2   3 504.546 370.436   1
   9   2   3 382.804 265.092  18
   9  -2   3 438.041 285.572   1
   9   2  -3 565.765 242.311  18
  -9  -2   3 155.584 194.520   4
   9   2   3 252.397 213.716   8
  -9  -2  -3 409.435 311.824  17
  -9  -2   3 275.936 238.270  17
   9  -2  -3 295.231 229.778   1
   9   2  -3 656.992 298.902   8
  -9   2  -3 234.987 219.754   4
   9  -2   3 319.266 211.837   8
   9  -2  -3 207.134 195.447   8
  -9   2   3 278.032 207.802   4
   9   2   3 147.587 103.129  16
  -9   2   3 365.498 197.191   2
   9   2   3 220.501 254.636  14
   9   2  -3 258.984 224.284  14
   9   2  -3 471.904 326.096   1
  -9   2  -3 34.2792 79.1412   3
   9  -2   4-56.7482 67.0884  14
   9  -2  -4 29.2148 66.3690  14
   9   2  -4 112.143 158.316   1
  -9   2  -4 18.9555 57.0116   3
   9  -2   4-86.8749 164.673   6
   9   2  -4-4.88181 66.9930  13
   9  -2  -4-52.1684 114.489   6
  -9   2  -4 45.7138 121.678  12
  -9  -2   4 34.9066 28.4116  12
   9   2  -4 67.6199 173.709  11
  -9  -2   4 170.479 227.277   5
  -9   2  -4 38.0669 97.4457  20
  -9   2  -4-56.0674 58.2841   5
   9  -2   4 7.03705 84.3237   1
  -9  -2  -4-5.87239 136.685  19
  -9   2  -4 58.5330 71.2039  10
   9   2  -4 88.8212 79.0829  10
   9   2   4 30.0640 232.740   1
  -9  -2   4 6.19605 159.740  19
  -9   2  -4-7.23277 98.7069  19
  -9   2   4 34.1847 130.569   5
  -9   2   4-18.9479 122.950  19
   9   2  -4 802.905 358.705   9
   9   2   4 250.408 240.355  18
   9   2  -4 0.24723 70.6433  18
  -9  -2   4 30.1289 66.2752   4
   9   2   4-14.7775 217.429   8
  -9  -2  -4 74.9157 192.988  17
  -9  -2   4-69.2722 149.229   2
  -9  -2   4-182.084 210.651  17
   9   2  -4 177.853 155.418   8
  -9   2  -4-7.87951 90.4021   4
   9  -2   4-22.1032 109.739   8
   9  -2  -4-88.7560 196.764   8
  -9   2   4 41.8692 112.211   4
   9   2   4-15.5936 77.1836  16
   9  -2  -4 133.520 191.048   1
  -9   2   4 51.1544 87.0837   2
   9   2   4-28.3795 116.883  14
   9   2  -4 30.2203 90.4306  14
   9  -2  -5-11.2852 71.2368  14
   9  -2   5 65.2054 136.055   6
  -9   2  -5-39.9794 55.7888   3
   9   2  -5 87.3037 164.790   1
   9   2  -5 10.1249 43.5699  13
   9  -2  -5-2.43948 77.9986   1
  -9   2  -5-27.0523 103.100  12
   9  -2   5 28.8235 76.1087   1
   9   2  -5-86.0553 99.4982  11
  -9  -2   5 71.0174 185.476   5
  -9   2  -5-21.7336 13.5980   5
  -9   2  -5-133.886 158.082  20
   9   2   5 24.7555 155.002   1
  -9  -2  -5-85.5767 259.860  19
  -9   2  -5-97.6142 72.2996  10
   9   2  -5 124.661 131.903  10
  -9  -2   5 99.9854 165.172  19
  -9   2  -5 19.7988 77.5545  19
  -9  -2   5-21.5789 17.9320   2
  -9   2   5 71.5279 129.642   5
  -9   2   5-38.6707 90.9132  19
   9   2  -5 156.768 169.594   9
   9   2   5-53.3722 159.830  18
   9   2  -5 94.5660 174.842  18
   9   2   5 199.145 252.598   8
  -9  -2  -5 73.4059 195.670  17
  -9  -2   5 171.145 222.135   4
  -9  -2   5 21.5172 145.376  17
  -9   2  -5 53.0116 154.106   4
   9  -2   5 78.5282 145.633   8
   9   2  -5 50.5717 96.1198   8
  -9   2   5-14.9826 18.1447   4
   9   2   5 66.8861 56.6516  16
   9   2   5-67.5978 203.804  14
  -9   2   5 88.4302 117.684   2
   9   2  -5-36.2653 69.9799  14
   9  -2   5 83.8133 159.539  14
   9  -2  -6 76.2288 100.989  14
   9  -2   6 442.503 259.185   1
   9  -2   6 149.576 130.543   6
  -9   2  -6 68.4456 60.2033   3
   9   2  -6 190.510 142.952  13
   9   2  -6 471.014 233.557   1
  -9   2  -6 34.1677 83.7505  12
   9   2   6-142.470 485.724   1
   9   2  -6 515.286 279.803  11
  -9   2  -6 218.420 225.545   5
  -9  -2   6 31.5473 46.1645   5
   9  -2  -6 102.220 201.882   1
  -9   2  -6 216.773 194.554  20
  -9  -2  -6-33.6716 216.624  19
  -9   2  -6 204.005 240.129  19
  -9   2  -6 39.3948 39.4378  10
  -9  -2   6 56.0354 109.025  19
   9   2  -6 121.228 90.7916  10
  -9   2   6 57.7546 76.8953  19
  -9   2   6 351.786 200.604   5
   9   2  -6 72.8803 31.0593   9
  -9  -2   6 174.732 175.033   2
   9   2  -6 145.533 191.358  18
   9   2   6 61.7849 208.363   8
  -9  -2  -6 141.034 234.189  17
  -9  -2   6 147.822 177.664   4
  -9   2  -6 178.462 232.645   4
  -9  -2   6 131.924 71.6259  17
   9  -2   6 312.245 272.957   8
   9   2  -6 394.804 231.315   8
   9  -2   6-216.417 336.939  16
  -9   2   6 24.3334 58.5393   4
   9   2   6 117.136 11.6464  16
  -9   2  -6 408.161 403.686  15
   9   2   6-22.8092 235.728  14
  -9   2   6 68.8016 99.9065   2
   9   2  -6 112.816 159.942  14
   9  -2   6 218.609 219.421  14
   9  -2   7 369.752 250.428   6
   9  -2  -7 30.3310 66.3063  14
   9   2  -7 197.946 172.284  13
  -9   2  -7 70.9760 168.364   3
  -9   2  -7 221.693 261.959  12
   9   2  -7-61.0118 143.183   1
  -9   2  -7 148.031 178.570   5
   9   2  -7 291.244 221.382  11
  -9  -2   7-22.2805 137.548   5
  -9   2  -7 77.7542 110.407  20
  -9  -2  -7-45.1709 323.372  19
  -9   2  -7-126.977 174.093  19
  -9  -2   7-69.5501 81.6904  19
  -9   2  -7-166.352 194.139  10
   9   2  -7-254.205 249.723  10
  -9   2   7 41.8567 121.259   5
   9   2  -7 196.918 226.881   9
  -9  -2   7 130.276 162.573   2
   9   2  -7-81.8262 177.658  18
   9  -2  -7-27.0636 91.8063   1
   9   2   7 152.951 234.414   8
  -9   2  -7 106.400 128.338   4
  -9  -2   7 213.764 210.242   4
  -9  -2   7-130.251 262.826  17
   9  -2   7 68.0035 118.601   8
   9   2  -7 119.337 73.9707   8
   9  -2   7 54.6974 109.031  16
   9   2   7 42.5172 54.6308  16
  -9   2   7-171.714 256.735   4
  -9   2  -7 310.181 425.353   7
  -9   2  -7 100.924 348.332  15
   9  -2   7 118.372 177.629   1
   9   2   7-99.7558 392.253  14
  -9   2   7 24.6499 65.9849   2
   9   2  -7 89.5993 113.150  14
   9  -2   7 56.9186 185.984  14
   9  -2   8 155.389 181.132   6
   9  -2  -8-23.7708 73.7059  14
  -9   2  -8 254.336 309.524  12
  -9   2  -8 88.2045 142.724   3
  -9   2  -8 56.9534 224.240   5
   9   2  -8-56.6135 152.280  11
  -9  -2   8 54.0499 136.373   5
   9   2  -8 141.571 180.416   1
  -9   2  -8-40.4655 33.5078  20
  -9  -2  -8-324.758 402.370  19
  -9   2  -8 144.126 130.419  19
  -9  -2   8 59.2499 124.831  19
   9   2  -8-684.639 402.879  10
  -9   2   8 40.2766 15.6765   5
   9   2  -8 83.6448 54.9810   9
  -9  -2   8-36.0710 103.646   2
   9   2  -8 211.090 196.947  18
   9   2   8 197.350 295.809   8
  -9   2  -8 177.314 222.188   4
  -9  -2   8 23.6884 90.3522   4
   9  -2   8 246.463 259.297   8
  -9  -2   8 226.926 283.309  17
   9   2  -8 1.88545 101.818   8
  -9  -2   8-0.63042 24.9426  16
   9  -2   8-47.6976 121.989   1
   9  -2   8 149.149 145.340  16
   9  -2  -8 46.3686 94.3686   1
  -9   2  -8 441.267 428.578   7
  -9   2  -8 76.0744 230.106  15
   9   2  -8 2.25347 124.357  14
  -9   2   8 163.391 175.352   2
   9  -2   8-65.1946 75.4788  14
   9  -2   9-106.985 166.854   6
   9   2  -9 2.42729 12.7210   3
  -9   2  -9 170.628 149.748  13
  -9   2  -9 390.644 347.695  12
  -9   2  -9 228.821 252.522   3
   9   2  -9-85.0814 214.242  11
  -9  -2   9 27.8795 38.3833   5
  -9   2  -9 93.9906 149.459  20
  -9  -2  -9-283.362 414.438  19
   9   2  -9 131.394 190.674   1
  -9   2  -9 101.066 187.459  19
  -9  -2   9 102.418 146.051  19
   9   2  -9-179.339 210.527   9
   9   2  -9 126.756 170.942  18
  -9  -2   9-12.0848 132.942   2
   9   2   9 22.0537 108.639   8
  -9   2  -9 73.4491 174.640   4
   9  -2   9 118.726 139.220   1
  -9  -2   9 33.5963 161.468   4
   9  -2   9 132.311 182.303   8
  -9  -2   9 50.0097 84.4163  17
  -9  -2   9 87.0592 121.156  16
   9   2  -9 21.0824 75.2740   8
   9  -2   9 132.255 182.737  16
  -9   2  -9-135.033 255.083   7
  -9   2  -9-209.731 290.102  15
   9  -2   9-18.0403 41.2542  14
   9   2  -9-16.1000 36.0132  14
   9  -2  -9 145.534 224.912   1
   9  -2  10 474.530 360.410   6
   9   2 -10 94.4977 76.3836   3
  -9   2 -10 73.7126 89.9093  13
  -9   2 -10 354.747 349.950   3
   9   2 -10 226.887 240.930  11
  -9  -2  10 91.6825 152.311   5
  -9   2 -10 46.8337 147.797  20
  -9  -2 -10-487.497 567.607  19
  -9   2 -10 148.879 225.842  19
   9   2 -10 219.845 192.112   1
  -9  -2  10 142.994 163.033  19
   9  -2  10 201.031 167.620   1
   9   2 -10-113.630 177.104   9
   9   2 -10 164.029 147.340  18
  -9   2 -10-186.393 304.605   4
  -9  -2  10 98.5025 121.639   2
   9   2  10 165.653 172.527   8
   9  -2  10 435.039 286.758   8
  -9  -2  10 141.510 182.589   4
  -9  -2  10 87.0782 195.326  17
  -9  -2  10 300.303 189.358  16
   9  -2  10 275.256 291.574  16
   9   2 -10-101.938 241.407   8
  -9   2 -10 251.661 366.766   7
  -9   2 -10 104.572 157.420  15
   9  -2  10-3.44489 160.886  14
   9   2 -10 151.200 181.776  14
   9  -2  11 1052.42 526.511   6
   2   9 -11 795.673 347.320  13
  -9   2 -11 108.198 117.802  13
   9   2 -11 623.379 354.170  11
   9  -2  11 176.537 88.3472   1
  -9  -2  11 693.762 362.604   5
  -9   2 -11-140.712 278.013  20
  -9  -2 -11-1167.82 644.026  19
  -9   2 -11 210.643 227.429  19
  -9  -2  11 370.005 219.971  19
   9   2 -11 588.634 352.434   1
   9   2 -11 417.446 240.192   9
   9   2 -11 722.749 360.558  18
   9   2  11 351.492 301.556   8
  -9  -2  11 925.518 460.230   2
   9  -2  11 1568.34 535.345   8
  -9  -2  11 617.884 280.386   4
  -9  -2  11 809.914 448.441  17
   9  -2  11 1273.53 512.655  16
  -9  -2  11 878.536 312.036  16
  -9   2 -11-51.1019 373.116   7
  -9   2 -11 183.422 180.406  15
   9   2 -11 781.223 209.368   3
   9  -2  11 1388.06 568.407  14
   9   2 -11 467.381 304.938  14
   2   9 -12 220.551 77.0757  13
  -9   2 -12 120.838 190.373  13
   2  -9  12 89.4122 195.451   6
  -2  -9  12 164.409 251.467   6
   9   2 -12-5.23339 133.690  11
  -9  -2  12 88.9397 135.371   5
  -9   2 -12-241.949 186.055  19
  -9  -2  12-58.3563 153.898  19
   2   9 -12 8.68334 130.958  18
   9   2 -12-563.968 372.136   9
   9   2 -12 180.702 258.444   1
   9   2 -12 94.8733 141.822  18
  -2  -9  12 23.9747 296.837  17
  -9  -2  12 99.4571 162.493   2
   9  -2  12 339.773 266.961   8
  -9  -2  12 249.255 291.769  17
  -9  -2  12 110.640 132.214   4
   9  -2  12 209.424 182.105  16
  -9  -2  12 113.864 98.8176  16
  -9   2 -12-477.417 724.239   7
  -9   2 -12-540.253 620.945  15
   9  -2  12 57.2513 75.5323  14
  -2   9 -12 51.1154 101.348   3
   9   2 -12 138.403 158.644  14
   9  -2  12 385.590 321.051   6
  -2   9 -13 890.212 441.299  13
   2   9 -13 1676.13 679.958  13
   2  -9  13 394.527 385.875   6
  -2  -9  13 76.2504 195.719   6
   9   2 -13 790.124 344.460  11
  -9  -2  13 1332.42 540.206   5
  -9   2 -13 364.062 293.484  19
  -2   9 -13 984.938 444.068  18
   2   9 -13 1442.87 613.461  18
   9   2 -13-216.856 377.722   9
   9   2 -13 874.655 416.634  18
   2  -9  13 59.2400 267.814  17
   9   2 -13 1117.85 483.650   1
  -2  -9  13 102.606 302.993  17
  -9  -2  13 1648.25 626.991   2
   9  -2  13 1689.15 592.753   8
  -9  -2  13 1055.86 555.963  17
  -9  -2  13 1043.16 347.610   4
   9  -2  13 1739.34 612.520  16
  -9  -2  13 1429.12 434.847  16
  -2   9 -13 1671.70 626.347   3
   9  -2  13 2534.85 870.773  14
   9   2 -13 403.542 265.286  14
   9  -2  13 2398.95 809.735   6
  -2   9 -14-184.192 296.094  13
   2   9 -14-36.9889 106.852  13
  -2  -9  14 14.8658 171.248   6
   2  -9  14 153.430 270.795   6
  -2   9 -14-50.1122 220.440  12
   9   2 -14 121.282 80.3590  11
  -9  -2  14 38.9591 131.743   5
  -9   2 -14-45.9880 98.7038  19
  -2   9 -14 76.4636 27.2686  18
   2   9 -14 160.488 286.580  18
   9   2 -14-152.221 174.811  18
   2  -9  14 21.8930 105.403  17
  -2  -9  14 110.652 141.083  17
  -9  -2  14-13.0999 74.1025   2
   9   2 -14 224.475 227.130   1
   9  -2  14-29.3635 310.833   8
  -9  -2  14 155.266 163.827  17
  -9  -2  14-21.1780 50.9784   4
   9  -2  14 93.3218 175.281  16
  -9  -2  14-1.41118 70.4595  16
   9  -2  14-23.8294 182.651  14
   2   9 -14-50.7022 190.482   3
   9  -2  14-102.572 57.9176   6
   9   2 -14 42.9380 117.603  14
  -2   9 -14 76.2747 163.255   3
   9   2 -15 939.316 447.919  18
  -2  -9  15 116.186 299.046  17
  -9  -2  15 1578.52 676.900  17
   2   9 -15 1631.71 594.186   3
   9   3   0 6216.07 1264.04   1
   9  -3   0 3169.41 686.255   1
  -9   3   0 4559.72 815.151   5
  -9   3   0 3260.13 486.323   2
  -9   3   0 4845.32 885.204  19
  -9  -3   0-154.670 284.979  19
   9   3   0 5099.30 965.260  18
   9   3   0 4337.52 912.327   8
  -9   3   0 4484.55 815.064   4
   9  -3   0 2943.38 707.212   8
  -9  -3   0-50.3682 208.413  17
   9   3   0 2676.44 791.868  14
   9  -3   0 4149.31 746.936   6
   9  -3   0 3443.16 743.444  14
  -9   3   1-83.8247 128.062   2
   9  -3   1-55.9549 92.6424  14
   9  -3  -1 11.1165 86.2356  14
   9  -3  -1 39.5437 118.489   1
   9  -3   1 14.9415 41.1128   6
   9  -3  -1 27.1954 80.5451   6
  -9   3  -1-17.9686 137.247  12
  -9  -3  -1-109.353 280.246  19
  -9  -3   1 38.5592 84.1951  19
  -9   3  -1 98.9575 164.784   5
  -9   3  -1-14.7949 122.737  19
  -9   3   1 1.67953 153.016   5
  -9   3   1-105.058 152.106  19
   9  -3   1 29.8763 76.6730   1
   9   3   1-78.3539 236.335   1
   9   3   1-9.03580 107.584  18
   9   3  -1-56.5283 162.046  18
   9   3   1 133.028 209.398   8
  -9  -3  -1-261.485 256.908  17
   9   3  -1 55.8322 104.120   1
   9   3  -1-13.3293 79.5552   8
  -9  -3   1 197.909 172.924  17
   9  -3   1-59.4085 124.706   8
   9  -3  -1-25.6324 115.733   8
  -9   3  -1 115.633 147.480   4
  -9   3   1-13.3924 81.7650   4
  -9   3  -1-8.54260 9.94665   2
   9   3   1-106.755 250.758  14
   9   3  -1 66.9349 150.015  14
   9   3   2 3128.93 953.320   1
   9   3  -2 3270.93 880.336   1
   9  -3   2 2445.25 602.403   1
  -9   3  -2 1332.71 432.284  12
  -9   3  -2 2428.59 607.617   5
  -9   3   2 2468.79 603.133   5
  -9   3  -2 2479.42 360.229   2
   9  -3  -2 1193.48 432.737   1
  -9   3   2 1372.83 330.839   2
  -9   3  -2 2402.11 624.479  19
  -9   3   2 2122.32 580.310  19
  -9  -3  -2 26.1320 183.142  19
  -9  -3   2 233.102 260.806  19
   9   3   2 2417.38 689.123  18
   9   3  -2 3587.22 735.896  18
  -9   3  -2 2299.89 593.264   4
   9   3   2 2234.47 695.586   8
   9   3  -2 3150.54 726.854   8
  -9   3   2 2221.85 583.331   4
   9  -3   2 2481.21 644.787   8
  -9  -3  -2 60.9015 266.824  17
  -9  -3   2 421.882 334.642  17
   9  -3  -2 763.801 349.817   8
   9   3  -2 1867.73 644.782  14
   9  -3   2 2787.85 634.923   6
   9  -3  -2 1352.72 410.010   6
   9  -3   2 2557.47 637.055  14
   9  -3  -2 1321.25 461.589  14
   9   3   2 1621.22 601.411  14
   9  -3   3 107.985 140.487   1
   9  -3   3 1.00627 96.7555  14
   9  -3  -3 39.4198 36.0996  14
   9   3  -3-240.738 235.867  13
   9  -3   3 69.5900 122.682   6
  -9   3  -3 139.222 145.427  12
   9   3   3-67.1908 193.500   1
  -9  -3  -3 135.011 211.526  19
  -9   3  -3 113.730 148.752   5
  -9  -3   3 53.2502 86.2345  19
  -9   3  -3-76.1305 185.564  19
  -9   3   3 9.11746 23.1745  19
  -9   3   3 82.7527 121.676   5
   9   3   3-109.288 310.921  18
   9   3  -3 131.208 174.740  18
   9   3   3 126.973 172.053   8
  -9  -3  -3 182.475 192.912  17
  -9  -3   3 39.4747 188.878  17
   9   3  -3 145.601 159.519   8
   9  -3  -3 64.6574 126.511   1
   9  -3   3 42.0483 101.420   8
   9   3  -3 197.246 221.081   1
  -9   3  -3 74.5114 65.6006   2
  -9   3  -3 88.8438 86.0593   4
  -9   3   3-84.8193 168.435   4
   9   3   3-131.547 352.863  14
   9   3  -3 43.3663 118.359  14
  -9   3  -3-128.902 246.277   3
   9  -3   4 436.461 290.272  14
   9  -3  -4 263.623 216.159  14
   9   3  -4 389.577 200.121  13
   9  -3   4 308.188 193.259   6
  -9  -3   4 109.664 88.3876  12
  -9   3  -4 205.560 149.025  12
   9   3   4 76.0662 423.843   1
   9   3  -4 314.020 161.612  20
  -9  -3  -4-102.801 287.674  19
  -9   3  -4 392.351 261.117   5
  -9  -3   4 137.717 143.349  19
  -9   3  -4 223.971 166.901  19
  -9   3   4 141.732 66.1280  19
  -9   3   4 238.996 177.864   5
   9   3  -4 385.811 271.663  18
   9   3   4 88.6467 55.4631   8
  -9   3  -4 348.059 122.434   2
  -9  -3  -4 67.2454 101.763  17
  -9  -3   4 59.7262 75.7393  17
   9   3  -4 418.571 238.636   8
   9  -3   4 371.503 268.827   8
  -9   3  -4 269.786 208.897   4
   9  -3   4 371.810 183.952   1
   9   3  -4 549.328 352.685   1
  -9   3   4 53.6580 147.942   4
   9   3   4-117.499 400.508  14
   9   3  -4-76.1959 134.874  14
   9  -3  -4 155.239 180.821   1
  -9   3  -4-23.9289 97.9797   3
   9  -3   5 98.4026 97.8040  14
  -9   3  -5-33.2576 152.254   3
   9  -3  -5 132.346 156.272  14
   9  -3   5-4.63924 127.684   6
   9   3  -5 66.0872 38.0895  13
  -9   3  -5 41.2627 137.374  12
  -9  -3   5-10.8626 35.4079  12
   9   3  -5 42.1778 80.1460  20
  -9  -3   5-50.0612 167.422   2
   9  -3  -5-39.6525 49.6081   1
  -9   3  -5 113.847 176.713   5
  -9  -3  -5-84.6430 294.136  19
  -9  -3   5 80.0114 69.8145  19
  -9   3  -5-24.0431 96.3533  19
  -9   3   5-220.242 177.462   5
   9   3  -5 69.5594 120.273  18
   9  -3   5 126.462 114.213   1
   9   3   5-87.1738 285.069   8
  -9  -3   5 51.4345 7.18964  17
   9   3  -5 90.1068 151.530   8
  -9   3  -5 97.1329 163.151   4
   9  -3   5 18.9012 118.351   8
   9   3  -5 124.858 185.143   1
   9   3  -5-75.9746 159.038  14
   9  -3   6-105.746 96.1394  14
  -9   3  -6-73.7648 131.346   3
   9  -3   6-1.35657 84.7592   6
   9   3  -6-60.8687 95.6965  13
  -9   3  -6 126.512 178.467  12
   9   3  -6 193.963 200.113  11
  -9  -3   6-56.5097 93.0355   5
   9   3  -6-23.2283 42.8702  20
  -9   3  -6-11.7137 64.7262   5
   9  -3   6 70.8517 112.293   1
   9   3  -6 349.608 263.740  10
  -9  -3   6-39.7948 99.3792   2
  -9  -3   6-151.395 201.507  19
  -9   3  -6-69.3536 32.2100  19
   9   3  -6 286.538 260.656  18
  -9  -3   6-372.732 254.167   4
   9   3   6-130.521 265.211   8
  -9  -3   6 78.5216 181.453  17
   9   3  -6-29.9239 96.6807   8
  -9   3  -6 133.532 203.611   4
   9  -3   6-39.4181 177.999   8
   9   3  -6-38.5999 128.941  14
   9   3  -7 831.874 414.288  13
   9  -3   7 186.184 211.011   6
  -9   3  -7 77.3422 128.242   3
   9  -3   7-4.01697 49.1324   1
  -9   3  -7 42.9288 127.060  12
   9   3  -7 241.915 282.706  11
  -9  -3   7 51.4147 208.722   5
  -9   3  -7 259.644 244.071  20
  -9   3  -7 150.452 225.428   5
   9   3  -7-6.50317 274.482  20
  -9   3  -7 152.269 165.908  10
   9   3  -7 200.355 202.498  10
  -9  -3   7 125.527 168.697   2
  -9   3  -7 152.757 187.950  19
  -9   3  -7 18.2412 48.0714   9
   9   3  -7 245.165 232.683  18
  -9  -3   7-350.810 241.855   4
   9   3   7-407.522 489.733   8
  -9   3  -7 38.5490 167.158   4
   9   3  -7-28.2236 107.540   8
   9  -3   7-122.598 135.222   8
   9  -3   7 35.6584 56.7149  14
   9  -3   8 122.282 148.463   1
   9   3  -8 40.4013 133.914   1
   9  -3   8 229.047 306.421   6
  -9   3  -8 18.4489 99.4362   3
   9   3  -8 191.405 154.432  13
  -9   3  -8 173.759 199.656  12
   9   3  -8 72.9147 125.695  11
  -9  -3   8 150.377 210.135   5
  -9   3  -8 107.448 167.486   5
  -9   3  -8 72.0533 154.617  20
  -9   3  -8 353.933 202.762  10
   9   3  -8 249.775 229.824  10
  -9  -3   8 182.539 156.595  19
  -9   3  -8 171.491 201.785  19
  -9  -3   8 163.738 222.965   2
   9   3  -8 1344.26 590.045   9
  -9   3  -8-54.0329 81.3730   9
   9   3  -8 157.427 192.562  18
  -9  -3   8-81.7428 166.533   4
  -9   3  -8 195.588 270.950   4
  -9  -3   8 870.641 768.779  17
   9  -3   8 159.111 189.846   8
   9   3  -8 180.368 132.866   8
   9  -3   8-256.719 416.976  16
   9   3  -8 39.6565 97.2680  14
   9  -3   8 41.4109 104.512  14
   9  -3   9-8.18672 64.6096   6
   9   3  -9 23.4930 114.600   1
   9   3  -9-101.098 185.574  13
  -9   3  -9-119.809 149.900   3
  -9   3  -9-249.994 215.171  12
  -9   3  -9 23.6338 59.7719   5
   9   3  -9-123.567 160.689  11
  -9  -3   9 83.8892 253.937   5
  -9   3  -9 21.0867 59.0502  20
  -9   3  -9 41.8535 122.954  10
   9   3  -9-27.0758 116.243  10
  -9   3  -9-22.7093 48.1983  19
  -9  -3   9 21.0374 170.766  19
   9   3  -9 538.825 323.516   9
  -9  -3   9 62.8957 121.361   2
  -9   3  -9-243.518 234.403   9
   9   3  -9 123.851 76.4064  18
  -9  -3   9-4.06014 112.760   4
  -9   3  -9 70.3204 94.2671   4
  -9  -3   9 167.139 284.366  17
   9  -3   9 35.9151 197.407   8
   9   3  -9 30.1727 72.3330   8
   9  -3   9 29.3234 129.896  16
   9  -3   9-53.3346 71.2553   1
  -9   3  -9 804.016 641.306   7
  -9   3  -9 340.912 450.537  15
   9   3  -9-55.2806 86.5835  14
   9  -3   9-89.5044 194.537  14
   9  -3  10 1107.75 429.841   6
  -9   3 -10-33.5653 132.303  13
   9   3 -10 902.295 360.325  13
   9   3 -10 623.618 386.660   1
  -9   3 -10 210.206 168.217   3
  -9   3 -10 94.6082 147.523  12
   9   3 -10 814.472 476.395  11
  -9  -3  10 541.670 324.347   5
  -9   3 -10 449.312 291.549  20
  -9   3 -10 445.809 238.818  10
   9   3 -10 175.228 164.370  10
  -9   3 -10 590.424 315.354  19
  -9  -3  10 639.936 291.985  19
   9   3 -10 466.035 421.444   9
  -9  -3  10 531.771 379.642   2
   9   3 -10 907.844 467.574  18
  -9  -3  10 349.314 180.719   4
  -9   3 -10 428.938 293.873   4
  -9  -3  10 523.953 366.831  17
   9  -3  10 882.766 357.751   8
   9  -3  10 705.605 378.404   1
  -9  -3  10 391.925 188.111  16
   9  -3  10 715.418 445.429  16
   9   3 -10 495.168 233.260   8
  -9   3 -10 913.878 672.975   7
  -9   3 -10 881.406 581.913  15
   9   3 -10 259.782 172.013  14
   9   3 -10 275.989 112.132   3
   9  -3  10 1086.67 435.326  14
   9  -3  11 9.34606 101.397   6
   9   3 -11-38.0798 55.4632   3
   3   9 -11-96.5462 328.116  13
  -9   3 -11-22.7967 97.6690  13
   9   3 -11 212.832 266.057  13
  -9   3 -11 249.900 314.544  12
  -9   3 -11 120.781 148.456   3
   9   3 -11 43.3684 117.488   1
   9   3 -11-3.24336 168.397  11
  -9  -3  11 1.50636 156.182   5
  -9   3 -11-54.3295 151.624  20
  -9   3 -11 218.413 219.246  19
  -9   3 -11-16.0443 127.562  10
   9   3 -11-113.677 139.236  10
  -9  -3  11-7.43151 49.9013  19
   9   3 -11 379.523 294.974   9
   3   9 -11-139.126 388.244  18
  -9  -3  11 148.445 274.525   2
   9  -3  11 42.2562 67.4110   1
   9   3 -11-183.793 238.575  18
  -9   3 -11 43.7768 78.0801   4
  -3  -9  11 131.813 385.173  17
  -9  -3  11-3.34284 64.8149   4
  -9  -3  11 134.632 263.283  17
   9  -3  11 133.069 227.324   8
  -9  -3  11 14.5226 86.1342  16
   9  -3  11 27.1147 158.375  16
  -9   3 -11 29.8213 99.7247   7
  -9   3 -11 226.811 318.357  15
   9   3 -11 17.2149 61.7913  14
   9  -3  11 88.8129 140.409  14
   3   9 -12 2555.77 820.945  13
  -9   3 -12-100.578 89.8952  13
   3  -9  12-23.8117 149.621   6
  -9   3 -12 771.925 627.317  12
  -3  -9  12-27.8222 119.187   6
  -9   3 -12 701.272 486.493   3
   9   3 -12 1800.84 628.960   1
   9   3 -12 2139.47 705.745  11
  -9  -3  12 1441.61 529.735   5
  -9   3 -12 653.661 383.698  20
   9  -3  12 961.100 526.423   1
  -9   3 -12 1330.96 616.364  19
  -9   3 -12 461.213 215.761  10
   9   3 -12 388.495 230.791  10
  -9  -3  12 1062.88 386.067  19
   9   3 -12 1993.25 660.269  18
   9   3 -12 1053.36 549.779   9
   3   9 -12 2036.68 780.359  18
  -9  -3  12 1815.31 662.662   2
   9  -3  12 2977.10 744.782   8
  -9   3 -12-5.54718 236.785   4
  -3  -9  12 54.7231 357.710  17
  -9  -3  12 990.497 369.680   4
  -9  -3  12 1513.43 603.605  17
  -9  -3  12 1495.00 422.791  16
   9  -3  12 2356.80 744.359  16
  -9   3 -12 1436.51 705.461   7
  -3   9 -12 2514.52 771.744   3
  -9   3 -12 898.512 534.918  15
   9  -3  12 3429.65 967.972   6
   9  -3  12 3345.71 875.131  14
   9   3 -12 2051.52 354.977   3
   9   3 -12 355.125 247.375  14
   3   9 -13-78.8536 268.246  13
   9   3 -13 24.2190 50.0317   3
  -9   3 -13 1164.85 423.860  13
   3  -9  13 142.144 247.814   6
  -3  -9  13 95.2678 230.820   6
  -9   3 -13 1652.45 750.192  12
   9  -3  13-1338.96 912.739   1
  -9   3 -13 979.275 643.010   3
  -3   9 -13-177.555 259.943  12
   9   3 -13 221.974 186.863   1
   9   3 -13 200.492 164.770  11
  -9  -3  13 122.722 171.182   5
  -9   3 -13 524.511 432.186  20
  -9   3 -13 1550.59 646.470  19
   9   3 -13-64.2394 166.454  10
  -9   3 -13 947.288 494.196  10
  -9  -3  13-25.2382 154.935  19
  -3   9 -13-109.327 242.625  18
   3   9 -13-10.8867 244.748  18
   9   3 -13 12.6560 246.146   9
   9  -3  13 1463.86 748.952   8
  -9  -3  13 71.1269 109.249   2
   9   3 -13 112.227 191.806  18
   3  -9  13 25.6960 250.006  17
  -3  -9  13 164.853 350.348  17
  -9  -3  13-56.0993 91.5306   4
  -9  -3  13-108.212 271.388  17
  -9  -3  13 38.7940 120.732  16
   9  -3  13 511.422 501.048  16
  -9   3 -13 213.253 133.946   7
  -9   3 -13 259.176 304.352  15
   9  -3  13 2088.13 862.715   6
   9   3 -13 139.028 171.104  14
   9  -3  13 697.051 767.890  14
  -3   9 -13-84.6455 119.834   3
   3   9 -14 2833.99 913.084  13
  -3   9 -14 913.255 468.276  13
  -9   3 -14 96.3393 141.022  13
  -3  -9  14-102.651 158.853   6
   3  -9  14 408.587 391.839   6
  -3   9 -14 2395.55 657.164  12
  -9   3 -14 987.696 611.923  12
  -9   3 -14 503.454 438.227   3
  -9  -3  14 2563.96 838.250   2
   9   3 -14 2006.93 695.507  11
   9   3 -14 1494.53 578.373   1
  -9  -3  14 1742.70 600.710   5
  -9   3 -14 19.9758 231.782  20
  -9   3 -14 587.865 295.227  19
   9   3 -14-228.626 502.565  10
  -9   3 -14-234.939 418.758  10
  -3   9 -14 2037.22 572.774  18
   9   3 -14 2184.46 689.326  18
   3   9 -14 2058.46 684.450  18
   9   3 -14 31.6741 287.207   9
  -3   9 -14 2442.65 517.168   4
   9  -3  14 2592.22 745.736   8
   3  -9  14-11.5776 130.437  17
  -3  -9  14 504.259 566.121  17
  -9  -3  14 1211.40 412.674   4
  -9  -3  14 2307.14 818.428  17
  -9  -3  14 2045.23 547.962  16
   9  -3  14 2938.68 879.517  16
  -9   3 -14 182.293 255.707   7
   3   9 -14 2555.33 688.535   3
  -9   3 -14 22.4575 480.459  15
   9  -3  14 3559.12 942.552   6
  -3   9 -14 2686.80 819.013   3
   9  -3  14 3104.52 872.728  14
   9   3 -14 2198.11 401.060   3
   9  -4   0 204.073 207.287  14
   9  -4   0 114.667 183.594   6
  -9  -4   0-14.4242 89.8593  19
   9   4   0 399.788 342.831   1
  -9   4   0 359.689 201.626  19
  -9   4   0 385.586 242.792   5
   9   4   0 494.355 340.624  18
   9   4   0 369.203 265.389   8
  -9  -4   0 284.755 290.118  17
   9  -4   0-47.0710 246.731   8
  -9   4   0 320.414 179.088   4
   9  -4   0 279.180 221.864   1
   9   4   1 4212.01 1142.84   1
   9   4  -1 4811.20 1190.46   1
   9  -4   1 2185.28 575.734   1
   9  -4  -1 1673.79 513.542   1
  -9   4  -1 3902.62 750.833   5
  -9   4   1 3457.84 700.356   5
  -9   4  -1 4438.04 857.821  19
  -9   4   1 4207.74 849.477  19
  -9  -4  -1-223.182 397.817  19
  -9  -4   1 87.0962 153.638  19
   9   4   1 3372.14 807.053  18
   9   4  -1 4575.40 960.973  18
   9   4   1 2920.74 781.775   8
   9   4  -1 3388.59 805.456   8
  -9   4  -1 3551.29 730.289   4
  -9   4   1 3111.69 671.587   4
   9  -4   1 2199.85 626.836   8
  -9  -4  -1 214.974 204.901  17
  -9  -4   1 198.097 275.341  17
   9  -4  -1 644.178 153.842   8
   9  -4   1 2387.80 615.741   6
   9  -4   1 2469.54 639.717  14
   9  -4  -1 1738.77 551.786  14
   9  -4   2 53.1269 115.692   1
   9  -4   2 89.0474 145.000  14
   9  -4  -2 95.8696 165.143  14
   9  -4   2 91.5720 40.0066   6
   9   4   2-931.678 560.590   1
  -9   4  -2-268.648 208.534  12
  -9  -4  -2-736.055 667.243  19
  -9  -4   2 134.238 189.129  19
  -9   4  -2 96.9029 75.7299   5
  -9   4  -2 15.7349 140.185  19
  -9   4   2-136.975 295.491  19
  -9   4   2 74.0655 116.947   5
   9   4  -2 16.0339 120.411   1
   9   4  -2 172.050 148.883  18
   9   4   2 2.07823 226.999   8
  -9  -4  -2 65.9435 268.406  17
   9   4  -2 233.146 254.227   8
  -9  -4   2 31.5842 195.226  17
   9  -4   2 24.3589 111.756   8
  -9   4  -2 135.590 96.8444   4
   9   4  -2-649.013 526.126  14
   9  -4   3 1076.18 414.330  14
   9  -4   3 1302.27 451.619   6
   9  -4   3 1470.31 447.215   1
  -9   4  -3 961.440 393.608  12
  -9   4  -3 1512.36 466.370   5
  -9   4  -3 1622.77 512.769  19
  -9  -4   3-9.28893 217.745  19
   9   4  -3 1778.97 621.547  18
  -9   4  -3 1437.88 500.485   4
   9   4  -3 1767.87 662.028   1
   9   4   3 376.264 146.237   8
   9   4  -3 1894.06 527.897   8
  -9  -4   3 134.842 213.844  17
   9  -4   3 963.365 448.575   8
   9   4  -3-23.7068 188.578  14
  -9   4  -4 342.586 102.587   2
   9  -4   4 874.157 352.481  14
   9  -4   4 771.248 333.748   6
  -9   4  -4 602.992 317.316  12
   9  -4   4 843.993 339.347   1
  -9  -4   4-78.5434 169.128  19
  -9   4  -4 602.098 279.804   5
  -9   4  -4 717.186 308.156  19
   9   4  -4 602.587 333.545  18
   9   4   4 93.0120 558.947   8
   9   4  -4 676.356 434.508   1
   9   4  -4 903.913 366.969   8
  -9  -4   4 576.667 432.171  17
   9  -4   4 638.623 342.410   8
  -9   4  -4 866.689 397.703   4
   9   4  -4-90.9055 291.808  14
   9  -4   5 182.229 146.374  14
   9  -4   5 240.713 183.219   1
   9   4  -5 92.0290 108.228  13
   9  -4   5 161.768 170.012   6
  -9  -4   5 107.004 73.5761  12
  -9   4  -5 90.1861 17.6298  12
  -9  -4   5 131.509 181.481  19
  -9   4  -5 177.776 152.352   5
  -9   4  -5 68.6092 63.9787  19
   9   4  -5 466.196 349.589  18
  -9  -4   5 40.0695 131.961  17
   9   4  -5 123.030 131.839   8
   9   4  -5 60.3303 145.802   1
   9  -4   5 8.39509 90.7296   8
  -9   4  -5 178.044 193.183   4
  -9   4  -5 69.1346 51.9029   2
   9   4  -5-231.181 312.366  14
  -9   4  -5-45.3295 134.269   3
  -9   4  -6 73.0719 129.835   3
   9  -4   6 238.174 205.939  14
   9   4  -6 159.028 157.514  13
   9  -4   6 50.9023 86.0754   6
  -9   4  -6 57.6335 56.4412  12
  -9   4  -6 245.214 186.567   5
  -9  -4   6 256.182 296.752  19
  -9   4  -6 135.597 170.162  19
   9   4  -6 232.567 269.719  18
  -9  -4   6 82.4434 128.732  17
   9   4  -6 251.705 200.980   8
   9   4  -6 113.943 210.018   1
   9  -4   6 150.345 166.802   8
  -9   4  -6 98.3082 69.1351   4
   9  -4   6 132.137 111.451   1
   9   4  -6-178.208 283.985  14
   9  -4   7 52.4505 140.314  14
  -9   4  -7 10.1305 25.0404   3
   9  -4   7 207.343 178.389   6
   9   4  -7 35.2281 74.6422  13
  -9   4  -7 51.3003 39.4168  12
   9   4  -7 75.8832 144.308  20
  -9   4  -7 75.4831 194.794   5
  -9  -4   7-210.031 171.757  19
  -9   4  -7-110.692 173.289  19
   9   4  -7-111.426 158.704  18
   9  -4   7-103.056 133.735   1
  -9  -4   7-3.42896 115.147  17
   9   4  -7 154.124 190.165   8
  -9   4  -7-7.15114 46.7762   4
   9  -4   7 174.642 204.028   8
   9   4  -7 39.2755 132.597   1
   9   4  -7-251.103 315.356  14
   9  -4   8 253.824 216.237  14
  -9   4  -8 203.714 183.610   3
   9  -4   8 286.526 205.157   6
   9   4  -8 273.852 218.493  13
  -9   4  -8 141.662 141.047  12
   9   4  -8 357.211 430.215  11
   9  -4   8 325.428 228.397   1
   9   4  -8 56.6517 136.579  20
  -9   4  -8 91.3622 194.546   5
  -9  -4   8 64.1140 159.789   2
  -9  -4   8 162.508 207.952  19
  -9   4  -8 13.3758 127.177  19
   9   4  -8 156.528 156.374  18
  -9  -4   8 126.866 239.033  17
   9   4  -8 237.832 220.664   8
  -9   4  -8 53.4584 118.170   4
   9  -4   8 66.2672 79.1529   8
   9   4  -8 283.607 289.316   1
   9   4  -8-199.426 259.527  14
   9  -4   9 450.840 265.100  14
   9  -4   9 763.271 362.415   6
  -9   4  -9 249.186 198.517   3
   9  -4   9 766.701 326.084   1
   9   4  -9 487.914 255.017  13
  -9   4  -9 209.825 152.796  12
   9   4  -9 554.419 348.218  11
  -9   4  -9 851.376 437.122  20
  -9   4  -9 403.959 277.577   5
   9   4  -9 446.321 356.221  20
   9   4  -9 1003.47 488.429  10
  -9  -4   9 154.039 258.396   2
  -9  -4   9 273.922 154.233  19
  -9   4  -9 112.415 138.738  19
   9   4  -9 698.879 409.150  18
  -9  -4   9 106.303 49.8816  17
  -9   4  -9 401.194 338.675   4
   9   4  -9 472.850 237.603   8
   9  -4   9 689.841 302.376   8
   9   4  -9 481.915 305.759   1
   9   4  -9-177.115 289.161  14
   9  -4  10 329.838 332.184   6
  -9   4 -10 25.2702 125.135   3
   9   4 -10 180.045 167.394  13
  -9   4 -10 27.9848 55.1030  12
   9   4 -10 215.565 305.593  11
  -9   4 -10 108.041 206.656   5
  -9   4 -10 269.194 263.699  20
   9   4 -10-102.267 208.672  20
  -9   4 -10 402.529 288.660  10
   9   4 -10 195.481 221.877  10
  -9  -4  10 13.2290 83.1377   2
  -9  -4  10-19.3661 99.6471  19
  -9   4 -10 100.572 171.270  19
  -9   4 -10 579.903 309.652   9
   9   4 -10 112.967 278.627  18
  -9   4 -10 55.8243 93.5384   4
  -9  -4  10 119.580 206.976  17
   9  -4  10 201.942 189.791   8
   9   4 -10 131.968 145.006   8
   9  -4  10-249.227 493.474  16
   9   4 -10 141.363 193.598   1
   9   4 -10-19.7126 128.379  14
   9  -4  10 136.059 129.991   1
   9  -4  10 71.5595 114.044  14
   9  -4  11 2349.37 700.691   6
   4   9 -11 1971.71 757.547  13
   9   4 -11 1846.05 544.633  13
  -9   4 -11-226.305 348.011  13
  -9   4 -11 541.286 331.103   3
  -9   4 -11 942.065 431.003  12
  -9  -4  11 727.477 392.711   5
  -9   4 -11 649.074 286.781   5
   9   4 -11 1696.17 638.376  11
  -9   4 -11 1067.88 442.513  20
   9   4 -11 784.461 384.130  20
  -9   4 -11 1254.06 366.301  10
   9   4 -11 1245.11 468.085  10
  -9   4 -11 776.561 391.563  19
  -9  -4  11 916.661 362.143  19
  -9  -4  11 1179.38 577.870   2
   9   4 -11 1823.19 769.207   9
  -9   4 -11 1168.25 329.422   9
   4   9 -11 1174.09 649.804  18
   9   4 -11 1685.08 580.939  18
   9   4 -11 1101.94 329.218   8
  -4  -9  11 382.768 596.717  17
  -9   4 -11 1141.25 503.351   4
  -9  -4  11 711.717 447.950  17
   9  -4  11 1754.67 549.474   8
   9  -4  11 1559.68 468.246   1
   9  -4  11 932.261 403.193  16
  -9   4 -11 1937.87 771.534  15
   9  -4  11 2308.03 693.112  14
   9   4 -11-84.0892 196.348  14
   9   4 -11 1531.79 568.180   1
   9  -4  12 1205.11 616.568   6
   4   9 -12 137.160 120.485  13
  -9   4 -12 1496.44 518.434  13
   9   4 -12 267.211 158.218  13
  -9   4 -12 671.767 387.308   3
   4  -9  12 195.567 51.9702   6
  -4  -9  12 50.4765 183.349   6
  -9   4 -12 2085.42 719.825  12
  -4   9 -12-50.9044 297.547  12
  -9  -4  12 67.2697 34.6524   5
   9   4 -12 193.332 193.437  11
  -9   4 -12 284.031 239.865  20
   9   4 -12-178.649 492.722  20
  -9   4 -12 211.210 254.243  10
   9   4 -12 546.496 430.063  10
  -9   4 -12 1541.99 631.856  19
  -9  -4  12 442.402 297.221  19
  -9  -4  12 473.551 437.137   2
   9   4 -12 490.169 427.442   9
  -9   4 -12 184.190 216.962   9
   4   9 -12-42.6882 182.214  18
   9   4 -12 54.6269 35.6555  18
   9  -4  12 161.966 104.055   1
  -9   4 -12 444.454 292.094   4
  -4  -9  12 281.781 510.810  17
  -9  -4  12 38.4187 337.274  17
   9  -4  12 64.0690 122.162   8
  -9  -4  12 133.165 21.5754  16
   9  -4  12 341.996 268.019  16
  -9   4 -12 688.133 534.054   7
  -9   4 -12 452.285 483.391  15
   9   4 -12-5.85771 210.596  14
  -4   9 -12 3.71629 197.622   3
   9  -4  12 491.991 312.327  14
   9   4 -12 351.035 168.661   3
   9   4 -12 65.4899 239.945   1
   9   4 -13 2175.74 725.688   1
   4   9 -13 2970.22 887.210  13
   9   4 -13 2769.25 679.094  13
  -9   4 -13 58.9456 181.432  13
   4  -9  13 294.461 296.004   6
  -4  -9  13 65.0140 169.026   6
  -9   4 -13 651.581 359.401   3
  -4   9 -13 2421.19 699.749  12
  -9   4 -13 833.607 380.009  12
  -9  -4  13 1037.33 513.635   5
   9   4 -13 2961.29 808.401  11
  -9   4 -13 1470.98 625.875  20
   9   4 -13-303.654 590.251  20
   9  -4  13 265.804 192.674   1
  -9   4 -13 1307.31 436.847  10
   9   4 -13 997.065 416.810  10
  -9   4 -13 1361.06 483.070  19
  -9  -4  13 925.079 327.983  19
   9   4 -13 2321.05 795.952   9
  -9  -4  13 1780.52 776.059   2
  -4   9 -13 1382.69 403.980  18
  -9   4 -13 540.499 147.556   9
   4   9 -13 2405.43 868.624  18
   9   4 -13 2011.01 639.190  18
  -4   9 -13 2028.64 503.821   4
   9  -4  13 2774.48 716.098   8
  -9   4 -13 799.503 411.273   4
   4  -9  13-52.7115 176.172  17
  -4  -9  13-389.645 469.236  17
  -9  -4  13 1446.07 707.828  17
  -9  -4  13 1383.32 445.678  16
   9  -4  13 2250.66 774.106  16
  -9   4 -13 2162.90 970.615   7
  -4   9 -13 2557.98 816.642   3
   9  -4  13 3031.20 859.323   6
  -9   4 -13 1490.32 888.879  15
   9   4 -13 2077.33 395.752   3
   9  -4  13 3614.20 892.406  14
   9   4 -13-153.538 274.747  14
   9   5   0 1162.46 447.297  18
   9   5   0 1068.08 295.473   8
   9  -5   1 332.352 254.067  14
   9   5  -1 391.430 203.910   1
  -9   5  -1 537.505 197.011  19
  -9   5  -1 575.441 265.819   5
   9   5  -1 542.766 287.128  18
   9   5  -1 200.408 220.692   8
  -9  -5  -1 388.077 444.512  17
  -9  -5   1-77.7123 284.190  17
   9  -5   1-169.090 279.016   8
  -9   5  -1 407.896 195.440   4
   9  -5   2 672.176 333.311  14
   9  -5   2 600.539 281.060   1
   9  -5   2 622.730 334.989   6
   9   5  -2 1265.77 673.628   1
  -9  -5   2 9.93307 139.510  19
  -9   5  -2 1413.08 461.936  19
  -9   5  -2 1037.69 385.722   5
   9   5  -2 1885.62 624.795  18
   9   5  -2 964.577 422.338   8
  -9  -5   2 126.767 395.656  17
   9  -5   2 152.426 97.7777   8
  -9   5  -2 1090.43 418.450   4
   9  -5   3 700.872 307.785  14
   9  -5   3 610.085 315.015   6
  -9  -5   3 132.808 216.938  19
   9   5  -3 1623.37 706.353   1
  -9   5  -3 1287.05 447.703  19
  -9   5  -3 1303.21 430.554   5
   9   5  -3 1424.04 572.420  18
   9   5  -3 959.438 445.525   8
  -9  -5   3 297.326 433.881  17
   9  -5   3 871.996 327.639   1
   9  -5   3 729.181 349.418   8
  -9   5  -3 1099.12 416.659   4
   9  -5   4 244.972 201.283  14
   9  -5   4 103.840 49.4655   1
   9  -5   4 360.379 266.380   6
  -9   5  -4 67.4541 76.5051  12
  -9  -5   4 52.8750 280.139  19
   9   5  -4 180.018 182.425   1
  -9   5  -4 211.421 172.537   5
  -9   5  -4 238.724 173.513  19
   9   5  -4 531.407 397.260  18
   9   5  -4 296.818 255.543   8
  -9  -5   4-41.0495 198.607  17
   9  -5   4 44.0518 131.035   8
  -9   5  -4 147.729 190.552   4
   9  -5   5 551.642 324.599  14
   9  -5   5 614.167 410.779   6
  -9   5  -5 516.067 331.479  12
  -9  -5   5-215.901 274.953  19
  -9   5  -5 979.203 381.115   5
  -9   5  -5 1038.77 409.565  19
   9   5  -5 949.783 469.151   1
   9   5  -5 877.180 477.915  18
   9   5  -5 1311.73 477.010   8
  -9  -5   5 156.228 340.087  17
   9  -5   5 616.955 279.358   1
   9  -5   5 667.685 340.508   8
  -9   5  -5 853.664 368.569   4
   9  -5   6 53.9957 151.279  14
   9   5  -6-11.5184 152.523  13
   9  -5   6 53.5860 76.5623   6
  -9   5  -6 82.2510 143.625  12
   9  -5   6 85.8985 97.9285   1
  -9  -5   6 54.6622 122.720  19
  -9   5  -6 12.3539 49.4060   5
  -9   5  -6 68.7483 123.551  19
   9   5  -6 207.231 238.495  18
   9   5  -6 207.645 249.488   1
   9   5  -6 31.4397 110.568   8
  -9  -5   6 466.831 416.667  17
   9  -5   6 122.631 124.490   8
  -9   5  -6 153.097 178.274   4
  -9   5  -6-53.9502 216.717   3
   9  -5   7 790.978 360.977  14
   9  -5   7 811.401 314.358   1
   9   5  -7 996.226 415.100  13
   9  -5   7 1070.63 462.768   6
  -9   5  -7 735.994 360.797  12
  -9  -5   7 481.972 370.121  19
  -9   5  -7 922.605 377.534   5
  -9   5  -7 699.291 324.039  19
   9   5  -7 1003.81 485.863  18
   9   5  -7 443.220 350.438   1
  -9  -5   7 436.654 452.262  17
   9   5  -7 937.651 383.835   8
   9  -5   7 584.792 341.030   8
  -9   5  -7 675.072 355.659   4
  -9   5  -7 341.378 281.622   3
  -9   5  -8 72.3824 176.708   3
   9  -5   8 57.4412 32.9168  14
   9   5  -8-0.43951 85.7611  13
   9  -5   8 126.824 237.124   6
  -9   5  -8-272.612 229.086  12
  -9   5  -8 40.6194 79.1415   5
  -9  -5   8 169.886 205.136  19
  -9   5  -8-193.593 178.253  19
   9   5  -8 130.993 193.053  18
   9   5  -8 64.7081 109.722   1
  -9  -5   8 401.632 470.497  17
   9   5  -8 58.6622 157.361   8
   9  -5   8-127.336 155.953   1
  -9   5  -8 9.32450 33.2995   4
   9  -5   8 25.3435 67.4224   8
   9  -5   9 809.941 352.636  14
  -9   5  -9 458.954 296.723   3
   9  -5   9 801.189 384.664   6
   9   5  -9 648.484 355.932  13
  -9   5  -9 282.914 260.165  12
   9   5  -9 1039.96 569.716  20
  -9   5  -9 653.233 337.408   5
  -9  -5   9 309.722 264.213  19
  -9   5  -9 691.550 348.436  19
   9  -5   9 1052.88 339.338   1
   9   5  -9 767.771 441.055  18
  -9  -5   9 140.385 250.807  17
   9   5  -9 494.448 304.561   1
   9   5  -9 817.400 316.263   8
  -9   5  -9 450.680 284.492   4
   9  -5   9 670.733 305.482   8
   9  -5  10 647.192 319.615  14
  -9   5 -10 166.016 175.451   3
   9  -5  10 538.450 332.269   6
   9   5 -10 472.524 470.554  13
  -9   5 -10 343.053 322.921  12
   9  -5  10 506.266 231.138   1
   9   5 -10 336.185 482.407  11
   9   5 -10 421.648 385.612  20
  -9   5 -10 523.752 319.814   5
  -9  -5  10-32.7500 181.859  19
  -9   5 -10 523.622 296.111  19
   9   5 -10 333.148 337.172  18
  -5  -9  10 316.668 507.982  17
  -9  -5  10-238.968 335.367  17
  -9   5 -10 223.814 186.224   4
   9   5 -10 321.876 209.368   8
   9   5 -10 634.069 462.221   1
   9  -5  10 579.364 335.523   8
   9  -5  11 1046.72 429.743  14
   9  -5  11 999.065 367.402   1
   9   5 -11 1899.10 874.408   1
   9  -5  11 1148.76 484.674   6
   5   9 -11 679.326 383.900  13
  -9   5 -11 351.614 319.379   3
   5  -9  11 240.807 326.601   6
  -9   5 -11 531.684 386.211  12
   9   5 -11 2380.06 868.428  11
  -9   5 -11 762.179 382.835   5
   9   5 -11 2493.41 823.325  20
  -9  -5  11 967.312 568.929   2
  -9  -5  11 481.229 316.572  19
  -9   5 -11 876.797 388.293  19
   5   9 -11 673.361 419.238  18
   9   5 -11 1322.07 678.226  18
  -5  -9  11 394.343 481.967  17
  -9  -5  11 1357.89 791.911  17
  -9   5 -11 787.168 426.174   4
   9  -5  11 939.965 408.586   8
   9  -5  12 1989.40 711.085   6
   5   9 -12 1922.17 691.016  13
  -9   5 -12 704.511 390.377   3
   9   5 -12 1326.35 544.557  10
   9   5 -12 1508.69 516.702  13
   5  -9  12 150.219 268.161   6
  -5  -9  12 54.1052 133.170   6
  -9   5 -12 648.602 355.274  12
  -5   9 -12 993.677 415.571  12
   9   5 -12 1272.76 578.499  11
  -9   5 -12 833.167 362.380   5
  -9  -5  12 678.793 299.414  19
  -9   5 -12 1162.71 561.616  20
   9   5 -12 1359.95 623.536  20
  -9   5 -12 1564.86 490.974  10
  -9  -5  12 793.929 494.655   2
  -9   5 -12 812.620 341.196  19
   5   9 -12 1393.30 689.127  18
   9   5 -12 1429.04 578.182  18
  -5  -9  12 190.913 395.962  17
  -9   5 -12 451.917 297.629   4
  -9  -5  12 534.441 347.039  17
   9  -5  12 1144.42 463.876   8
   9  -5  12 473.607 484.308  16
   9   5 -12 1156.91 596.879   1
   9  -5  12 952.082 369.018   1
  -5   9 -12 1033.84 368.999   4
  -5   9 -12 1284.99 564.163   3
   9  -5  12 1819.22 568.182  14
   9   6  -2 405.409 68.4693  18
  -9  -6   2-55.1729 266.440  17
   9   6  -3 182.362 245.762  18
  -9  -6   3-64.4443 101.399  17
   9  -6   4 495.733 302.011  14
   9  -6   4 669.309 374.410   6
   9   6  -4 847.617 429.935   1
  -9  -6   4-246.490 453.150  19
  -9   6  -4 995.356 356.098  19
  -9   6  -4 1075.34 395.809   5
   9   6  -4 1500.84 606.989  18
   9   6  -4 1035.77 416.118   8
  -9  -6   4 591.150 665.589  17
   9  -6   4-77.2508 298.402   8
  -9   6  -4 953.415 394.541   4
   9  -6   5 214.607 202.803  14
   9  -6   5 151.241 202.883   6
  -9   6  -5 18.0869 195.715  12
   9   6  -5-37.5748 236.140   1
  -9  -6   5 38.3389 217.759  19
  -9   6  -5 254.512 143.993  19
  -9   6  -5 452.784 259.746   5
   9   6  -5 140.819 159.140  18
   9   6  -5 216.896 164.758   8
  -9  -6   5-336.517 372.319  17
   9  -6   5-133.735 280.811   8
   9  -6   5 156.826 151.885   1
  -9   6  -5 394.262 301.135   4
   9  -6   6 459.804 314.441  14
   9  -6   6 443.819 380.099   6
   9  -6   6 447.661 237.469   1
  -9   6  -6 706.055 396.837  12
   9   6  -6 864.123 575.738   1
  -9  -6   6 127.786 272.692  19
  -9   6  -6 1074.55 364.174   5
  -9   6  -6 887.112 403.093  19
   9   6  -6 1211.11 572.145  18
   9   6  -6 1022.26 419.730   8
  -9  -6   6 10.2064 137.826  17
   9  -6   6 376.823 261.628   8
  -9   6  -6 950.471 404.195   4
   9  -6   7 597.234 362.052  14
   9   6  -7 521.595 267.027  13
   9  -6   7 470.611 367.566   6
  -9   6  -7 575.926 383.296  12
  -9  -6   7-19.6017 47.8596  19
   9   6  -7 801.141 501.580   1
  -9   6  -7 962.540 389.279   5
  -9   6  -7 510.357 285.700  19
   9   6  -7 873.444 495.302  18
   9   6  -7 738.647 371.336   8
  -9  -6   7 168.723 341.836  17
   9  -6   7 388.013 229.542   1
   9  -6   7 320.524 249.437   8
  -9   6  -7 777.211 401.502   4
  -9   6  -7 172.882 215.235   3
   9  -6   8 498.612 262.094  14
   9   6  -8 845.126 392.552  13
   9  -6   8 616.495 465.153   6
  -9   6  -8 323.899 295.397  12
   9  -6   8 778.909 312.308   1
  -9  -6   8-1.22039 197.392  19
  -9   6  -8 700.393 279.970   5
   9   6  -8 537.546 405.977   1
  -9   6  -8 589.308 296.210  19
   9   6  -8 876.316 511.355  18
   9   6  -8 783.627 339.804   8
  -9  -6   8 122.172 259.964  17
  -9   6  -8 631.472 318.364   4
   9  -6   8 660.816 346.232   8
  -9   6  -8 231.313 226.882   3
   9  -6   9-16.8179 43.0724  14
   9   6  -9 112.884 174.990  13
   9  -6   9 53.1944 156.639   6
  -9   6  -9-2.66795 85.0170  12
  -9   6  -9 41.0012 55.1053   5
  -9  -6   9-52.8183 88.9260  19
  -9   6  -9 36.1464 48.1923  19
   9   6  -9 86.9286 310.511   1
   9   6  -9 257.308 376.838  18
  -9  -6   9-80.5185 91.0136  17
   9   6  -9 113.462 183.586   8
  -9   6  -9 100.188 130.455   4
   9  -6   9 56.6715 83.0931   8
   9  -6   9 126.096 115.126   1
  -9   6  -9-60.2183 193.666   3
  -9   6 -10 629.472 381.429   3
   9  -6  10 1036.26 418.842  14
   9   6 -10 1168.39 462.119  13
   9  -6  10 1116.96 499.433   6
  -9   6 -10 732.575 346.890  12
  -9   6 -10 945.088 392.108   5
  -9  -6  10 40.2798 168.348  19
  -9   6 -10 1174.99 430.203  19
   6   9 -10 1099.20 657.571  18
   9   6 -10 1120.97 575.998  18
   9   6 -10 739.291 464.438   1
   9  -6  10 866.710 290.257   1
  -6  -9  10 44.8048 294.942  17
  -9  -6  10 148.242 334.549  17
  -9   6 -10 969.667 456.580   4
   9  -6  10 867.495 414.300   8
   9  -6  11 88.2845 185.050  14
  -9   6 -11-2.60177 29.1389   3
   6   9 -11-136.864 367.852  13
   9  -6  11-58.0252 49.6742   6
   9   6 -11 93.1302 107.575  13
   6  -9  11 244.454 401.220   6
  -9   6 -11 145.127 187.574  12
  -6   9 -11-96.6590 265.759  12
   9  -6  11 199.962 162.653   1
  -9   6 -11 200.309 238.939   5
  -9  -6  11 103.109 189.127  19
  -9   6 -11 1.83514 61.8504  19
   6   9 -11 138.106 333.029  18
   9   6 -11 144.579 198.362  18
   9   6 -11 243.908 400.444   1
  -6  -9  11 200.924 542.012  17
  -9  -6  11 105.883 285.768  17
  -9   6 -11 144.957 180.626   4
   9  -6  11-82.9827 237.443   8
   9   7  -4 316.831 31.0597  18
  -9  -7   4 696.784 582.239  17
   9   7  -5 1194.75 666.499  18
   9   7  -5-226.983 548.384   8
  -9  -7   5 407.553 550.312  17
   9  -7   6 326.698 356.701   6
   9   7  -6-102.689 746.725   1
  -9  -7   6-49.2555 442.746  19
   9   7  -6 1711.50 725.193  18
  -9   7  -6 1652.78 555.080   4
   9   7  -6 745.140 318.439   8
  -9  -7   6 735.769 682.296  17
   9  -7   7 226.702 210.502  14
   9  -7   7 29.8767 18.2631   6
  -9   7  -7 223.412 146.672  12
   9   7  -7-336.985 805.340   1
  -9  -7   7-86.2717 296.065  19
  -9   7  -7 544.354 269.585   5
   9   7  -7 586.595 428.006  18
   9   7  -7 445.266 298.028   8
  -9  -7   7-495.037 511.454  17
   9  -7   7 185.121 192.887   1
  -9   7  -7 412.149 275.768   4
   9  -7   8 593.334 344.310  14
   9  -7   8 703.934 281.765   1
   9  -7   8 416.734 272.096   6
  -9   7  -8 979.705 501.460  12
   9   7  -8 907.267 341.521   1
  -9  -7   8 109.689 363.373  19
  -9   7  -8 1418.52 449.436   5
  -9   7  -8 904.415 360.060  19
   9   7  -8 1401.48 645.256  18
   9   7  -8 1355.96 525.326   8
  -9  -7   8-675.476 539.353  17
   9  -7   8-270.966 238.831   8
  -9   7  -8 1602.45 562.424   4
   9  -7   9 281.488 285.468  14
   9   7  -9 410.425 237.434  13
   9  -7   9 237.303 212.950   6
  -9   7  -9 426.217 327.014  12
   9   7  -9 103.948 300.127   1
  -9  -7   9-92.7774 92.4091  19
  -9   7  -9 306.761 240.164   5
  -9   7  -9 70.1210 138.509  19
   9   7  -9 346.371 373.986  18
   9  -7   9 263.043 181.856   1
  -9  -7   9 216.624 356.806  17
  -9   7  -9 309.725 271.094   4
   9  -7   9-30.1444 201.338   8
  -9   7  -9 50.5806 85.2656   3
   9   8  -6 355.071 510.983  18
  -9  -8   6 536.581 700.599  17
  -9  -8   7 946.991 992.927  17
  10   0   0 170.768 137.548   6
  10   0   0 61.6617 56.4468   1
 -10   0   0-107.494 106.219  12
 -10   0   0 111.572 162.279   5
  10   0   0 201.307 118.813  11
 -10   0   0-74.1694 125.896   2
 -10   0   0 172.803 221.649  19
  10   0   0 139.262 139.720  18
 -10   0   0-124.396 209.906   4
 -10   0   0 173.831 222.280  17
  10   0   0 200.611 124.432   8
 -10   0   0 75.5510 147.154   7
 -10   0   0 90.6681 147.301  15
  10   0   0-78.4098 211.219  14
  10   0   1 38.7519 86.2126   6
  10   0  -1 5.72743 48.1560   6
  10   0   1 21.4631 221.950   1
  10   0  -1 23.0932 37.7816  13
 -10   0  -1 77.4316 136.003  12
 -10   0   1-47.8133 121.695  12
  10   0  -1 3.18729 72.5727   1
 -10   0  -1 81.7766 196.388   5
  10   0   1 42.5978 51.9998  11
  10   0  -1 71.5313 100.924  11
 -10   0   1 99.3631 122.646   5
 -10   0  -1 34.2416 94.7949  19
 -10   0   1-31.3257 140.333  19
 -10   0   1 18.8938 131.696   2
  10   0   1 57.2333 95.4046  18
  10   0  -1 11.7051 78.2144  18
 -10   0  -1 106.890 204.478   4
 -10   0   1 128.428 223.936   4
 -10   0  -1 68.1998 95.4449  17
 -10   0   1 1.10317 109.041  17
  10   0   1 33.3932 156.609   8
  10   0  -1 89.4369 187.156   8
 -10   0  -1 55.3856 77.6203   7
 -10   0   1 348.882 343.205   7
 -10   0  -1 19.0260 49.1310  15
 -10   0   1 113.002 172.120  15
  10   0   1 14.0641 172.113  14
 -10   0  -1 26.7952 15.7777   3
  10   0  -1 112.273 181.457  14
  10   0   2 47.7380 111.649   6
  10   0  -2 141.441 146.478   6
 -10   0  -2-12.1460 69.1080   3
  10   0  -2 128.050 82.5868  13
 -10   0  -2 69.4544 121.798  12
 -10   0   2 2.78019 61.6289  12
 -10   0  -2-47.3521 39.0728   5
  10   0   2-31.0193 86.0033  11
  10   0  -2-63.3802 115.963  11
 -10   0   2-43.1697 114.954   5
  10   0  -2 27.6818 144.261   1
 -10   0  -2 81.5397 117.013  19
 -10   0   2-45.6601 130.571  19
 -10   0   2 40.5977 107.658   2
  10   0   2 131.146 152.465  18
  10   0  -2 181.448 148.350  18
 -10   0  -2-0.77185 159.560   4
 -10   0  -2 68.6187 89.4572  17
  10   0   2 172.076 206.834   8
 -10   0   2 22.4202 32.4368   4
 -10   0   2 59.6475 96.6941  17
  10   0  -2-39.6923 202.395   8
 -10   0  -2 41.3403 110.578   7
 -10   0  -2-147.582 276.307  15
 -10   0   2 263.140 303.820  15
  10   0   2 290.025 267.078  14
  10   0   2 111.453 158.738   1
  10   0  -2 334.455 281.153  14
  10   0  -3 16.1470 63.4902   6
 -10   0  -3-3.90461 46.5708   3
  10   0  -3 179.866 121.910  13
 -10   0  -3 102.369 142.839  12
 -10   0  -3-98.1965 92.9725   5
  10   0   3 275.549 131.743  11
  10   0  -3-85.9069 101.352  11
 -10   0   3 83.2939 95.0978   5
 -10   0  -3-3.00054 70.0542  19
 -10   0   3-57.4238 124.342  19
  10   0  -3-44.5343 53.3344   1
  10   0   3 30.0806 121.560  18
 -10   0   3 88.4002 119.860   2
  10   0  -3 20.6347 47.2526  18
 -10   0  -3-38.1605 179.516   4
  10   0   3 16.2727 135.181   8
 -10   0  -3-110.073 107.555  17
 -10   0   3-45.0598 121.118  17
 -10   0   3 120.694 168.434   4
  10   0  -3-53.3389 91.6896   8
 -10   0  -3-235.229 400.896   7
 -10   0  -3-172.436 358.952  15
  10   0   3 79.2044 202.660   1
  10   0   3 24.8414 128.010  14
  10   0  -3-46.3659 125.124  14
  10   0   3-0.12455 116.731   6
 -10   0  -4 865.422 436.050  12
 -10   0  -4 214.612 160.571   3
  10   0   4 1641.66 279.080  11
  10   0  -4 705.516 278.000  11
 -10   0   4 993.874 471.324   5
 -10   0  -4 365.944 283.646  19
 -10   0   4 979.228 415.882  19
  10   0   4 1235.55 334.888  18
  10   0  -4 855.256 353.401  18
  10   0  -4 1130.37 495.673   1
 -10   0   4 1309.07 449.610   2
 -10   0  -4 163.564 116.432   4
  10   0   4 1247.66 464.900   8
 -10   0  -4 265.410 158.003  17
 -10   0   4 365.582 260.721  17
 -10   0   4 972.780 401.189   4
  10   0  -4 1067.59 416.333   8
  10   0   4 766.627 261.723  16
  10   0   4 1542.78 581.831   1
 -10   0  -4-175.743 398.249   7
 -10   0  -4-188.506 450.557  15
  10   0  -4 1655.80 359.040   6
  10   0   4 1491.44 605.190  14
  10   0   4 1458.00 480.815   6
  10   0  -4 1044.25 436.354  14
  10   0  -5 118.788 79.5094   6
  10   0   5 179.659 89.7942  11
  10   0  -5-49.7601 102.535  11
 -10   0   5 15.4756 135.395   5
 -10   0  -5 142.564 262.042  19
 -10   0   5 27.5001 50.0724  19
  10   0   5 27.5664 50.5012  18
  10   0  -5-101.416 136.158  18
 -10   0  -5-125.663 209.274   4
 -10   0   5 13.1521 50.6774   2
  10   0  -5 64.1623 153.471   1
  10   0   5 43.0130 113.701   8
 -10   0  -5 139.352 159.937  17
 -10   0   5 18.2631 78.7912  17
  10   0   5 9.24570 149.350   1
 -10   0   5 63.1318 104.322   4
  10   0  -5-80.9608 191.783   8
  10   0   5 56.9678 135.793  16
  10   0   5-72.5460 116.495  14
  10   0   5 8.21806 37.9298   6
  10   0  -5-121.350 145.153  14
  10   0  -6 1235.20 435.863  14
  10   0   6 2046.14 724.400   1
  10   0   6 2217.40 299.950  11
  10   0  -6 542.259 266.546  11
 -10   0   6 1442.44 521.982   5
 -10   0  -6 386.066 336.988  19
 -10   0   6 1319.70 462.243  19
  10   0   6 1668.04 366.332  18
 -10   0  -6-229.485 490.281   4
  10   0  -6 995.046 363.022  18
 -10   0   6 1525.55 490.420   2
  10   0   6 2081.74 642.580   8
 -10   0  -6 436.113 240.707  17
 -10   0   6 781.796 428.167  17
 -10   0   6 1164.60 423.139   4
  10   0   6 1905.72 457.224  16
  10   0  -6 1128.28 464.663   1
  10   0  -6 1087.74 416.336   8
  10   0  -6 1778.40 327.889   6
  10   0   6 2071.79 695.094  14
  10   0   6 1509.20 523.758   6
  10   0  -7 101.106 149.509  14
  10   0  -7-32.4770 32.0799   6
  10   0   7 114.610 82.8417  11
  10   0  -7 53.6612 119.176  11
 -10   0   7 81.4750 210.668   5
 -10   0  -7 17.0241 156.851  19
 -10   0   7 37.6001 78.4730  19
  10   0   7-128.395 244.574   1
  10   0   7 22.9818 65.6509  18
  10   0  -7-24.5297 83.0844  18
  10   0   7 15.7709 47.2020   8
 -10   0  -7 31.7270 83.2345  17
 -10   0   7-62.3107 114.265   2
 -10   0   7 37.7766 111.957  17
 -10   0   7 89.7518 148.235   4
  10   0  -7-99.5234 186.758   8
  10   0   7 9.54766 123.387  16
 -10   0   7 43.6788 47.2443  16
  10   0  -7-44.8385 45.2513   1
  10   0   7-77.7386 176.808  14
  10   0   7-69.5146 211.011   6
  10   0  -8 1045.10 408.514  14
 -10   0   8 1468.84 571.286   5
 -10   0   8 1459.76 522.101   2
  10   0  -8 334.373 227.103  11
 -10   0  -8 251.333 342.358  19
  10   0   8 1232.03 533.185   1
 -10   0   8 1161.73 439.713  19
  10   0   8 1351.64 307.261  18
  10   0  -8 714.557 400.752  18
  10   0   8 1708.74 605.732   8
 -10   0  -8 221.196 184.599  17
 -10   0   8 852.726 526.274  17
 -10   0   8 1018.08 239.890  16
 -10   0   8 1194.53 427.450   4
  10   0   8 1675.24 508.908  16
  10   0  -8-95.9969 262.589   8
  10   0  -8 1186.40 256.918   6
  10   0   8 1790.70 665.498  14
  10   0   8 1581.03 533.797   6
  10   0  -8 1125.49 505.318   1
  10   0  -9-48.6877 70.8168  14
  10   0  -9-21.5000 56.5029   1
  10   0   9-209.612 271.002   1
  10   0  -9-68.4160 110.018  11
 -10   0  -9-137.619 279.168  19
 -10   0   9 29.1016 81.9434   5
 -10   0   9-120.379 206.163  19
  10   0   9 16.6255 89.5281  18
  10   0  -9 29.6577 129.564  18
  10   0   9-44.1392 86.0680   8
 -10   0  -9 206.471 163.674  17
 -10   0   9-97.1369 188.537  17
 -10   0   9-22.8951 75.2074   2
 -10   0   9-63.1132 105.979   4
  10   0   9 75.2016 132.797  16
 -10   0   9 112.588 110.140  16
  10   0   9-28.3302 157.991  14
  10   0   9-102.692 207.735   6
  10   0 -10 247.274 265.240  14
  10   0 -10 308.267 259.115   1
  10   0 -10-34.2682 154.031  11
 -10   0 -10-121.926 271.688  19
 -10   0  10 385.182 243.629   5
 -10   0  10-38.1617 192.343  19
  10   0 -10 186.929 181.911  18
  10   0  10 505.567 342.796   8
 -10   0  10 337.648 257.162  17
 -10   0  10 407.062 282.845   2
 -10   0  10 539.162 270.125   4
  10   0  10 482.948 235.428  16
 -10   0  10 359.877 177.485  16
  10   0  10 577.669 424.903  14
  10   0  10 192.235 244.886   6
  10   0 -11-69.8458 123.121  14
  10   0 -11 149.175 192.737   1
  10   0 -11-29.8667 181.178  11
 -10   0 -11-295.036 348.076  19
 -10   0  11-164.023 164.423   5
  10   0 -11-24.8644 119.320  18
  10   0  11-389.444 309.996   8
 -10   0  11-135.358 142.353  17
 -10   0  11 146.701 196.437   2
 -10   0  11 83.7132 151.241   4
  10   0  11-131.991 191.756  16
 -10   0  11 75.3456 120.782  16
  10   0  11 77.3201 271.991  14
  10   0  11-159.976 227.159   6
  10   0 -12 82.8091 188.314  14
  10   0 -12 23.2149 124.249   1
  10   0 -12-145.781 327.838  11
 -10   0 -12-199.741 300.912  19
 -10   0  12-302.717 231.625   5
  10   0 -12 11.0217 61.5593  18
  10   0  12 102.680 222.396   8
 -10   0  12 109.340 148.802  17
 -10   0  12 80.1299 172.498   2
 -10   0  12 63.6406 154.104   4
  10   0  12 332.059 346.138  16
 -10   0  12-39.5826 48.5341  16
  10   0  12 42.2131 147.878   6
  10   0  12-600.048 437.008  14
  10   0 -13 139.578 202.840  14
  10   0 -13 243.928 237.403   1
  10   0 -13-243.091 467.133  11
 -10   0 -13 80.3432 173.046  19
 -10   0  13-0.42750 87.3187   5
  10   0 -13-9.48378 142.247  18
  10   0  13-112.203 237.950   8
 -10   0  13-80.1545 280.736  17
 -10   0  13-45.3908 49.5545   2
 -10   0  13-31.7261 103.062   4
  10   0  13 193.746 287.177  16
 -10   0  13 21.5978 116.975  16
  10   0  13-203.288 338.917   6
  10   0  13-324.721 478.180  14
  10  -1   0-75.5181 127.484   6
 -10  -1   0 31.6259 74.1066  12
 -10   1   0-28.6201 83.2777  12
 -10  -1   0 24.9464 118.852   5
  10   1   0 19.8574 90.2393  11
 -10   1   0 4.67975 9.58398   5
 -10  -1   0 1.69703 167.300  19
 -10   1   0 79.7105 130.785  19
  10  -1   0 48.5391 151.140   1
 -10   1   0-2.92199 93.5417   2
  10   1   0 97.8063 134.499  18
  10  -1   0-60.0512 127.958  18
 -10  -1   0-59.5193 139.144   4
 -10  -1   0 58.2215 152.605  17
  10   1   0 22.3572 124.642   8
 -10   1   0 98.4803 214.888   4
 -10   1   0 90.7365 115.321  17
  10  -1   0 18.0287 103.058   8
  10   1   0-61.9051 129.224   1
  10   1   0 17.4933 21.5610   6
  10   1   0 16.8259 137.193  14
 -10  -1   0-9.46557 38.8229   3
  10  -1   0-60.4427 70.3031  14
  10  -1  -1 122.305 107.324  14
  10   1  -1 167.170 156.314   1
  10  -1   1 151.498 116.329   6
  10  -1  -1 186.822 153.851   6
 -10  -1  -1 0.64573 28.4414   3
  10  -1  -1 227.944 98.6754  13
 -10  -1  -1 133.637 182.996  12
 -10  -1   1 37.5508 65.0178  12
 -10   1  -1 162.313 165.089  12
 -10   1   1 37.0762 71.3452  12
 -10  -1  -1-52.3893 221.365   5
  10   1   1 528.131 239.461  11
  10   1  -1 444.098 234.478  11
 -10  -1   1 119.248 200.703   5
 -10   1  -1 217.644 257.627   5
  10  -1   1 104.799 200.125   1
 -10   1   1 159.505 169.643   5
 -10  -1  -1 260.691 310.127  19
 -10  -1   1-178.291 244.948  19
 -10   1  -1 108.811 110.018   2
 -10   1  -1 197.564 241.152  19
 -10   1   1 76.9581 98.1556  19
  10   1   1 164.786 141.247  18
  10   1  -1 165.032 164.369  18
  10  -1   1 35.0840 49.8949  18
 -10   1   1 136.259 172.980   2
  10  -1  -1 55.7545 26.3883  18
 -10  -1  -1-6.34755 186.224   4
  10  -1  -1 12.4010 87.1928   1
 -10  -1   1 28.0260 140.183   4
 -10  -1  -1-124.312 133.462  17
  10   1   1 283.136 221.053   8
 -10  -1   1 111.377 157.279  17
  10   1  -1 262.778 249.933   8
 -10   1  -1 118.807 197.119   4
 -10   1  -1-66.5958 132.093  17
 -10   1   1 32.8529 86.4919  17
  10  -1   1 31.9266 45.4821   8
 -10   1   1 45.9083 70.9903   4
  10  -1  -1 47.4207 78.2218   8
  10   1   1 226.960 280.414   1
  10   1   1 2.87449 127.624   6
  10   1   1 81.8622 108.170  14
  10   1  -1 245.357 224.425  14
  10   1  -1 44.0155 87.1091   6
  10  -1   1 180.144 198.503  14
  10  -1  -2-87.1729 150.048  14
  10  -1   2 131.100 154.138   6
  10   1  -2 87.2684 61.8990  13
  10   1  -2 85.3693 70.5582   1
  10  -1  -2 28.0989 92.7112   6
 -10  -1  -2 71.0112 119.255   3
 -10   1  -2-43.7380 91.8632  12
 -10  -1   2-113.842 96.2702  12
  10  -1   2 42.6710 22.4592   1
  10   1   2 55.1885 112.527  11
  10   1  -2 88.0249 134.919  11
 -10  -1   2-104.951 148.540   5
 -10   1  -2 23.3212 121.256   5
 -10   1  -2 14.3626 32.1682   2
 -10   1   2 25.7101 108.233   5
 -10  -1   2-85.6753 141.991   2
 -10  -1  -2-107.854 117.167  19
 -10  -1   2-75.4873 159.704  19
 -10   1  -2-1.95559 79.4821  19
 -10   1   2-90.6154 205.108  19
  10   1   2-0.56992 36.8581  18
  10   1  -2-82.6198 99.4528  18
  10  -1   2-0.92782 90.1458  18
  10  -1  -2-8.22673 44.9729  18
 -10  -1  -2-232.483 341.902   4
 -10   1   2-52.4147 88.0435   2
 -10  -1   2 110.460 206.585   4
 -10  -1  -2 53.6813 50.4844  17
  10   1   2 21.5965 129.477   8
 -10   1  -2 45.1953 126.895   4
 -10  -1   2-87.2310 167.482  17
  10   1  -2 17.5014 27.8229   8
  10  -1   2 83.7507 127.501   8
 -10   1  -2 26.5785 29.4476  17
  10  -1  -2-69.9516 141.088   1
 -10   1   2-55.2727 98.7460  17
 -10   1   2-24.1274 128.961   4
  10  -1  -2 43.9879 110.787   8
  10   1   2-43.8588 191.198   1
 -10   1  -2 144.075 266.515  15
  10   1   2-30.6751 78.5242   6
  10   1   2 45.6771 171.139  14
  10   1  -2-14.9464 43.2482  14
 -10   1  -2 13.6068 66.2568   3
  10   1  -2 90.8661 117.253   6
  10  -1   2 107.065 182.115  14
  10  -1  -3 271.444 253.723  14
 -10   1  -3-1.76626 63.0546   3
  10  -1   3 251.923 185.214   6
  10   1  -3 196.561 106.116  13
  10  -1   3 243.264 190.279   1
  10  -1  -3 237.663 166.155   6
  10   1  -3 326.626 266.978   1
 -10   1  -3 135.989 193.798  12
 -10  -1   3-31.7069 67.5147  12
  10   1  -3 418.243 230.478  11
 -10   1  -3 107.069 76.5892   5
 -10  -1   3 143.557 218.599   5
 -10   1   3 258.687 241.887   5
 -10  -1  -3 2.29121 105.289  19
 -10   1  -3 182.985 211.912  19
 -10  -1   3 254.890 272.133  19
 -10  -1   3 318.344 271.951   2
 -10   1   3 207.784 152.906  19
  10   1   3 394.183 218.628  18
  10   1  -3 253.927 239.180  18
 -10  -1  -3-241.146 448.427   4
  10  -1   3 86.5362 65.1153  18
  10  -1  -3 25.6087 107.641  18
 -10  -1   3 160.148 175.429   4
 -10  -1  -3 110.823 79.0516  17
  10   1   3 500.613 366.339   8
 -10   1  -3 304.583 258.951   4
 -10   1   3 198.668 122.831   2
 -10  -1   3 131.668 152.162  17
  10  -1   3 126.732 149.267   8
  10   1   3 600.471 445.322   1
 -10   1  -3 119.265 123.989  17
  10   1  -3 270.179 212.006   8
 -10   1   3 35.2011 94.4100  17
 -10   1   3 118.685 68.1855   4
  10  -1  -3 142.684 120.291   8
  10   1   3 262.028 137.830  16
 -10  -1   3-215.140 333.027   7
  10  -1  -3 184.218 158.998   1
 -10   1  -3 246.622 266.969   7
 -10   1  -3 286.855 312.982  15
  10   1   3 178.999 158.125   6
  10   1   3 256.538 292.654  14
  10   1  -3 293.086 205.220  14
  10  -1   3 156.543 193.162  14
  10   1  -3 250.925 176.591   6
  10  -1   4-0.10768 40.4929   1
  10  -1  -4-106.459 132.411  14
  10  -1   4 3.88071 142.702   6
 -10   1  -4 59.0655 139.390   3
  10   1  -4 164.077 131.204  13
  10  -1  -4 59.1871 83.4762   6
 -10   1  -4-28.3616 126.487  12
  10   1  -4-50.5249 115.346   1
 -10   1  -4 279.644 322.802   5
  10   1  -4 116.697 85.8234  11
 -10  -1   4-13.5382 7.73825   5
 -10   1   4-12.3672 60.4169   5
 -10  -1  -4-99.3071 162.076  19
 -10   1  -4 154.741 122.599  19
 -10  -1   4 114.834 180.543  19
 -10   1   4-45.4597 108.970  19
 -10  -1   4-38.7936 116.914   2
  10   1   4 18.5658 83.8923  18
  10   1  -4 96.1148 143.846  18
  10  -1   4 88.4284 160.166  18
  10  -1  -4 110.795 171.769  18
  10   1   4-106.838 181.593   1
 -10   1  -4-77.0309 263.114   4
  10   1   4 58.2319 207.541   8
 -10  -1  -4 47.5907 30.4495  17
 -10  -1   4-45.0146 54.5648   4
 -10  -1   4 31.2727 135.912  17
  10  -1   4 157.967 238.081   8
 -10   1  -4-60.7166 103.768  17
 -10   1   4 32.2522 59.0022   2
 -10   1   4 27.5153 98.7627  17
  10   1  -4-4.47634 99.6342   8
 -10   1   4 61.0712 61.0301   4
  10  -1  -4-62.4135 144.606   8
  10   1   4 33.9085 83.7835  16
 -10  -1   4-190.390 230.038   7
 -10   1  -4 213.537 318.010   7
 -10  -1   4-250.298 289.307  15
 -10   1  -4 14.5878 106.267  15
  10   1   4-10.8634 47.7350   6
  10   1   4-23.2107 115.703  14
  10   1  -4-8.49389 123.485  14
  10  -1  -4 67.0007 149.730   1
  10  -1   4-191.689 175.342  14
  10   1  -4 1.98590 60.3042   6
  10   1  -5 561.195 172.547   6
  10  -1  -5 883.293 374.078  14
  10  -1   5 1360.92 449.339   6
  10   1  -5 1246.22 311.727  13
  10  -1  -5 643.705 361.373   1
 -10   1  -5 213.609 153.477   3
 -10   1  -5 463.527 280.793  12
 -10   1  -5 455.019 305.179   5
  10   1  -5 970.288 353.639  11
 -10  -1   5 775.086 422.729   5
  10   1  -5 768.511 392.124   1
 -10  -1  -5 19.6373 97.8014  19
 -10   1   5 845.055 405.534   5
 -10   1  -5 398.853 191.184  19
 -10  -1   5 738.567 352.548  19
 -10   1   5 652.348 354.258  19
  10   1   5 1179.18 351.004  18
 -10  -1   5 1246.52 449.121   2
  10   1   5 1159.23 574.065   1
  10   1  -5 1018.95 356.290  18
  10  -1   5 768.927 237.779  18
  10  -1  -5 388.456 246.171  18
 -10   1  -5 561.270 384.404   4
  10   1   5 1151.05 495.626   8
 -10  -1  -5-130.043 156.062  17
 -10  -1   5 548.415 316.816   4
  10  -1   5 1251.24 480.761   8
 -10  -1   5 491.561 311.506  17
 -10   1  -5 75.6420 77.7239  17
 -10   1   5 467.187 300.129  17
  10   1  -5 957.146 380.815   8
 -10   1   5 1159.61 398.895   2
 -10   1   5 1011.29 401.260   4
  10  -1  -5 389.779 247.620   8
  10   1   5 1109.33 335.031  16
 -10  -1   5 565.080 221.557   7
 -10   1  -5 669.070 430.648   7
 -10   1   5 25.3263 37.6219  16
 -10  -1   5 259.367 96.4496  15
 -10   1  -5 646.925 364.268  15
  10  -1  -5 1141.66 324.278   6
  10  -1   5 1525.28 565.418   1
  10   1   5 679.368 344.985   6
  10   1   5 1088.45 541.844  14
  10  -1   5 1497.55 567.292  14
  10   1  -5 782.021 403.374  14
  10  -1   6-43.6692 135.767   6
  10   1  -6 41.7013 57.8986   6
  10  -1  -6 12.6060 89.7092  14
 -10   1  -6-21.7054 91.2618   3
  10  -1  -6 43.3423 72.5198   6
 -10   1  -6 205.378 232.528  12
  10  -1  -6 58.5818 92.5475   1
 -10   1  -6 104.282 164.288   5
  10   1  -6-1.57072 42.3000  11
 -10  -1   6-71.3917 215.063   5
 -10  -1  -6-130.567 255.901  19
  10   1  -6 137.636 167.740   1
 -10   1  -6 102.009 183.575  19
 -10   1   6-85.2686 200.648   5
  10   1   6-110.360 219.953   1
 -10  -1   6-72.3706 139.590  19
 -10   1   6-91.0106 126.349  19
  10   1   6 102.140 87.9869  18
 -10  -1   6 144.012 172.491   2
  10   1  -6-21.0571 87.5795  18
  10  -1   6 23.8098 20.8433  18
  10  -1  -6-51.1005 118.573  18
 -10   1  -6 65.1048 185.983   4
 -10  -1  -6 32.2192 94.5261  17
  10   1   6 154.254 184.813   8
  10  -1   6-24.5852 70.7724   8
 -10  -1   6-6.35625 134.975   4
 -10  -1   6 99.8413 183.118  17
 -10   1  -6-66.0423 98.0408  17
 -10   1   6-76.2360 113.261  17
  10   1  -6 20.2332 79.7737   8
  10  -1   6-1.50747 38.8463  16
 -10   1   6 70.7293 78.8494   2
 -10   1   6-182.250 160.841   4
  10  -1  -6-98.3016 244.811   8
  10  -1   6 153.490 215.488   1
  10   1   6 47.1591 80.8514  16
 -10   1  -6-56.8860 249.307   7
 -10  -1   6 28.4999 77.5519   7
 -10   1   6-144.107 104.817  16
 -10  -1   6 67.1688 5.50825  15
 -10   1  -6-135.005 283.651  15
  10   1   6-43.9277 172.745   6
  10   1   6-28.7165 198.458  14
  10  -1   6 90.6338 234.008  14
  10   1  -6 79.0382 176.924  14
  10  -1   7 1706.03 584.515   6
  10  -1  -7 1020.97 381.863  14
  10  -1   7 2021.95 673.075   1
 -10   1  -7 811.294 448.821  12
  10  -1  -7 813.199 251.968   6
 -10   1  -7 424.021 285.126   3
  10  -1  -7 942.504 450.865   1
  10   1  -7 1003.86 339.393  11
  10   1   7 1095.85 545.979   1
 -10  -1   7 1028.56 508.714   5
 -10  -1  -7-74.7505 134.351  19
 -10   1  -7 652.534 412.017  19
 -10   1   7 1148.94 423.695   5
 -10  -1   7 742.295 420.982  19
 -10   1   7 998.641 427.287  19
  10  -1   7 1018.71 240.486  18
  10   1  -7 1331.75 514.610   1
  10   1   7 1544.76 421.447  18
  10   1  -7 963.949 409.678  18
 -10  -1   7 1171.54 479.605   2
  10  -1  -7 302.340 185.865  18
 -10   1  -7 232.293 186.276   4
 -10  -1  -7-166.443 196.036  17
  10   1   7 1478.03 562.434   8
  10  -1   7 1735.35 603.183   8
 -10   1  -7 64.1099 65.5396  17
 -10  -1   7 888.798 369.826   4
 -10  -1   7 658.046 334.034  17
 -10   1   7 557.628 350.852  17
 -10  -1   7 591.717 163.250  16
  10   1  -7 951.189 364.201   8
  10  -1   7 1545.92 477.884  16
 -10   1   7 1029.70 414.708   2
 -10   1   7 1230.60 429.506   4
 -10  -1   7 993.780 292.963   7
  10   1   7 1337.14 436.129  16
 -10   1  -7 340.352 241.412   7
 -10   1  -7 78.7460 82.9772  15
  10   1  -7 816.375 198.093   6
 -10  -1   7 415.071 208.423  15
  10   1   7 751.404 332.880   6
  10   1   7 1687.37 711.779  14
  10  -1   7 2099.96 672.073  14
  10   1  -7 911.912 409.014  14
  10  -1  -8-1.36684 17.1333  14
  10  -1  -8 18.8281 16.0508   6
  10   1   8-410.089 576.727   1
  10   1  -8 0.56157 121.959  11
 -10  -1   8 108.662 214.043   5
 -10  -1  -8-210.525 223.166  19
 -10   1  -8 53.1547 100.528  19
 -10   1   8 181.896 214.151   5
  10  -1  -8 97.2045 164.945   1
 -10  -1   8-185.841 173.410  19
 -10   1   8-72.9765 232.775  19
  10   1   8 45.1745 147.479  18
  10  -1   8 15.0692 24.5542  18
  10   1  -8-2.37776 50.2525   1
  10   1  -8-66.1467 185.719  18
 -10   1  -8-320.058 406.858   4
  10  -1   8 56.3215 166.115   1
  10  -1  -8-104.322 176.253  18
 -10  -1   8 27.3896 115.295   2
 -10  -1  -8-14.8762 89.9913  17
  10   1   8-128.855 196.705   8
  10  -1   8 373.885 278.846   8
 -10   1  -8 19.9868 42.6530  17
 -10  -1   8-212.549 255.798  17
 -10  -1   8 82.6383 153.734   4
 -10   1   8-16.8598 23.2452  17
 -10  -1   8 100.433 93.5656  16
  10   1  -8-89.3003 148.481   8
  10  -1   8-44.3573 125.202  16
 -10   1   8-16.7523 39.6825   4
 -10   1   8 2.16563 56.0269   2
 -10   1  -8-391.557 553.174   7
  10   1   8-0.20861 153.971  16
 -10   1  -8-284.149 462.940  15
 -10  -1   8 139.019 129.941  15
  10   1   8-168.228 297.359   6
  10   1   8 48.7421 180.707  14
  10  -1   8-11.1035 66.7230  14
  10   1  -8 76.6223 114.013  14
  10  -1   8 168.120 246.582   6
  10  -1  -9 265.238 222.299  14
  10   1  -9 455.211 296.709  11
 -10  -1   9 375.554 323.579   5
 -10  -1  -9 163.161 361.849  19
 -10   1  -9-304.026 232.083  19
 -10   1   9 513.384 312.996   5
 -10  -1   9 355.849 247.845  19
  10  -1   9 326.290 264.330   1
  10   1   9 404.601 166.158  18
  10  -1  -9 343.484 321.771   1
  10   1  -9 253.307 238.739  18
  10  -1  -9-129.712 286.758  18
 -10  -1  -9 377.655 280.194  17
  10   1   9 509.671 300.643   8
 -10  -1   9 582.612 362.137   2
  10   1  -9 462.361 261.197   1
  10  -1   9 573.245 334.239   8
 -10  -1   9 495.528 371.961  17
 -10  -1   9 415.394 232.822   4
 -10   1   9 187.596 95.8456  17
  10  -1   9 586.357 298.017  16
 -10  -1   9 509.883 176.943  16
  10   1  -9-110.596 247.762   8
 -10   1   9 356.302 237.780   4
  10   1   9 452.010 291.982  16
 -10   1   9 491.696 255.019   2
  10   1   9-5.94505 348.399   6
  10   1   9 237.364 223.114  14
  10  -1   9 957.474 431.382  14
  10  -1   9 907.672 394.592   6
  10   1  -9 489.017 289.118  14
  10  -1 -10 43.4862 107.799  14
  10   1 -10-39.8877 72.6096  11
  10  -1  10-114.359 272.165   1
 -10  -1  10 120.107 171.758   5
 -10  -1 -10-42.3418 131.511  19
 -10   1 -10-364.830 356.142  19
 -10   1  10 35.4292 153.296   5
 -10  -1  10-2.14908 126.632  19
  10   1  10-305.262 365.535  18
  10   1 -10 31.0307 79.2061  18
 -10  -1 -10 176.361 223.132  17
  10   1  10-129.718 110.258   8
  10  -1 -10 70.5996 73.2610   1
 -10  -1  10-10.6836 45.8156   2
  10  -1  10 45.9997 39.6523   8
  10   1 -10 19.0403 166.776   1
 -10  -1  10 88.8256 112.531  17
 -10  -1  10-102.432 174.376   4
 -10   1  10-205.174 369.426  17
  10  -1  10 28.9636 66.4161  16
 -10  -1  10 159.637 137.393  16
 -10   1  10-19.1683 122.219   4
  10   1  10 20.2254 117.359  16
 -10   1  10-59.8115 170.588   2
  10   1  10-700.589 604.568   6
  10   1  10-541.194 415.036  14
  10  -1  10-484.417 351.578  14
  10  -1  10 74.7956 158.939   6
  10   1 -10 110.783 176.400  14
  10  -1 -11 87.2701 137.481  14
  10   1 -11 53.2704 167.993  11
 -10  -1  11-69.3296 122.782   5
 -10  -1 -11 141.068 261.479  19
 -10   1 -11 1260.01 744.411  19
 -10   1  11 37.8454 129.550   5
 -10  -1  11-118.771 220.099  19
  10   1 -11-56.7723 154.601  18
  10   1  11 303.831 331.702   8
  10  -1  11 269.986 354.317   8
 -10  -1  11-74.7164 149.341   2
 -10  -1  11 18.1928 160.230  17
 -10   1  11-457.212 472.685  17
 -10  -1  11 46.9039 139.683   4
  10   1 -11-346.269 267.473   1
  10  -1 -11 181.394 220.938   1
  10  -1  11-128.259 100.214  16
 -10  -1  11-10.4265 70.9958  16
  10   1  11 82.4938 204.710  16
 -10   1  11-48.3207 115.526   4
 -10   1  11 50.7708 136.733   2
  10  -1  11 588.602 561.123  14
  10  -1  11 396.612 496.932   6
  10   1 -11-37.2386 112.843  14
  10  -1 -12-67.4352 78.3716  14
  10   1 -12 9.03293 174.635  11
 -10  -1 -12-267.301 336.061  19
 -10  -1  12-18.5848 75.7451   5
 -10   1 -12 440.911 447.351  19
 -10   1  12 225.943 235.355   5
  10   1 -12 19.6994 144.687  18
  10   1  12 405.018 365.465   8
  10  -1  12 455.058 432.748   8
 -10  -1  12-155.504 206.475   2
 -10  -1  12 422.770 382.619  17
 -10  -1  12 0.12522 95.7553   4
  10  -1  12 161.225 287.998  16
 -10  -1  12 3.52515 68.0923  16
  10   1 -12-59.1774 215.998   1
  10   1  12-19.2384 114.386  16
 -10   1  12-14.3063 100.924   4
  10  -1 -12-15.3975 69.3917   1
 -10   1  12-19.7277 56.7944   2
  10  -1  12 186.082 331.695  14
  10  -1  12 214.386 313.529   6
  10   1 -12 26.5073 66.8560  14
  10  -1 -13-6.32151 142.331  14
  10   1 -13-149.917 334.061  11
 -10  -1 -13-217.167 340.562  19
 -10  -1  13 65.0733 110.995   5
 -10   1 -13 419.974 367.657  19
 -10   1  13 215.964 253.765   5
  10   1 -13 129.132 142.834  18
  10   1  13 362.715 301.970   8
  10  -1  13-5.07279 91.5501   8
 -10  -1  13 29.4906 68.2828   2
 -10  -1  13-117.574 193.518  17
 -10  -1  13 53.7350 134.904   4
  10  -1  13 482.551 427.906  16
 -10  -1  13 77.3780 29.7762  16
  10   1  13 158.336 287.974  16
 -10   1  13 3.55195 142.917   2
  10   1 -13 106.433 284.962   1
  10  -1 -13 393.483 331.885   1
  10  -1  13 236.918 222.884  14
  10  -1  13 174.459 199.428   6
  10   1 -13 82.3170 90.1219  14
  10  -2   0 1258.61 470.051  14
 -10  -2   0 23.4756 59.5881   3
 -10   2   0 504.660 269.192  12
 -10   2   0 1407.22 355.734   2
 -10   2   0 1367.69 492.777   5
 -10  -2   0 363.507 292.878  19
 -10   2   0 1304.13 495.332  19
  10   2   0 1620.37 497.991  18
  10  -2   0-67.4814 237.470  18
 -10  -2   0 296.882 254.181  17
  10   2   0 1540.19 553.385   8
 -10   2   0-296.409 315.083  17
  10   2   0 1759.29 676.364   1
  10  -2   0 1120.70 443.238   8
 -10   2   0 1183.85 455.208   4
  10  -2   0 1264.49 481.100   1
  10  -2   0 1725.46 476.786   6
  10   2   0 1012.10 454.404  14
  10  -2   1 14.3463 107.757  14
  10  -2  -1 60.4383 125.457  14
  10  -2  -1 195.288 208.278   1
  10  -2   1 87.8221 134.155   6
  10  -2  -1-2.31876 48.3454   6
 -10  -2   1 263.300 208.715  12
 -10   2  -1-17.5561 29.1880  12
 -10   2  -1 96.1598 146.100   5
 -10  -2  -1-90.6317 39.3773  19
 -10   2   1 94.0156 135.374   5
 -10  -2   1 57.8265 196.100  19
 -10   2  -1 175.638 194.736  19
 -10   2   1-81.8196 101.823  19
  10   2   1 6.24165 79.0545  18
  10   2  -1 19.8171 121.964  18
 -10  -2   1-506.508 326.079   4
 -10   2  -1-18.8305 60.0515   2
  10   2   1 37.2850 117.418   8
 -10  -2  -1 67.8881 163.055  17
 -10  -2   1 14.0752 134.796  17
  10   2  -1 72.8810 120.297   8
  10   2   1-19.5441 42.6576   1
  10  -2   1-82.9812 129.105   1
 -10   2   1 41.2617 57.7531   2
 -10   2  -1-66.0753 98.1833   4
  10  -2   1 91.2916 186.977   8
  10  -2  -1 120.298 149.155   8
 -10   2   1 84.5957 153.347   4
  10   2  -1 55.0807 45.8315   1
  10   2   1-13.5265 192.438  14
  10   2  -1 128.522 172.879  14
  10  -2   2 272.200 214.935  14
  10  -2  -2 322.678 238.895  14
  10  -2   2 363.194 223.588   6
  10  -2  -2 324.101 196.551   6
  10  -2  -2 227.199 194.658   1
 -10  -2   2 156.933 93.5146  12
 -10   2  -2 109.269 107.096  12
 -10  -2   2 162.013 99.4404   5
  10   2  -2 977.499 371.789  11
 -10   2  -2 544.504 230.596  20
 -10   2  -2 250.673 185.058   5
 -10  -2  -2-114.449 254.551  19
 -10  -2   2 223.184 238.848  19
 -10   2   2 209.814 152.220   5
  10   2  -2 30.5059 62.8433  10
 -10   2  -2 174.816 45.1143  19
 -10   2   2 419.942 287.947  19
  10   2  -2 1548.46 436.355   9
 -10   2  -2 345.526 184.871   2
  10   2   2 260.179 207.413  18
  10   2  -2 354.769 252.106  18
  10  -2   2 311.831 275.901   1
 -10  -2   2 38.7739 143.198   4
  10   2   2 486.156 394.902   1
  10   2   2 458.401 320.098   8
 -10  -2  -2 6.18679 45.7951  17
 -10  -2   2 29.4620 151.195  17
  10   2  -2 532.816 350.197   8
 -10   2  -2 299.947 264.995   4
  10  -2   2 256.105 230.225   8
  10  -2  -2 228.862 221.741   8
 -10   2   2 275.952 185.056   2
 -10   2   2 237.078 220.616   4
  10   2   2 165.658 97.6266  16
  10   2  -2 435.757 352.683   1
  10   2   2 267.854 290.293  14
  10   2  -2 284.732 272.480  14
  10  -2   3 23.9195 125.641  14
  10  -2  -3 17.3952 106.017  14
  10  -2   3 127.589 177.856   6
  10   2  -3 51.7263 65.0827  13
  10  -2  -3 17.9808 38.9529   6
 -10  -2   3-8.05027 15.2505  12
 -10   2  -3-84.0582 153.407  12
  10   2  -3 443.775 290.326  11
 -10  -2   3 261.896 334.707   5
 -10   2  -3 43.7675 14.1634  20
  10  -2  -3 22.3498 85.2507   1
 -10   2  -3 140.113 228.891   5
 -10   2  -3 102.328 124.345   2
 -10  -2  -3 7.77339 103.252  19
  10  -2   3 81.4609 71.5749   1
 -10  -2   3 126.189 207.198  19
 -10   2   3 28.7254 100.190   5
  10   2  -3-373.426 205.911  10
 -10   2  -3 24.7716 114.350  19
 -10   2   3 46.7650 97.4486  19
  10   2  -3 541.224 300.101   9
  10   2   3 143.817 155.011  18
  10   2   3 49.7194 108.980   1
  10   2  -3 380.485 277.758  18
 -10  -2   3-65.6831 265.761   4
  10   2   3 88.0299 198.913   8
 -10  -2  -3-18.1847 121.570  17
 -10  -2   3-77.1922 161.178  17
  10   2  -3 52.7585 114.873   8
 -10   2  -3 147.944 191.278   4
  10  -2   3-21.2202 138.625   8
  10  -2  -3 1.27639 54.2730   8
 -10   2   3 99.0733 138.970   4
 -10   2   3 60.4677 76.9240   2
  10   2   3 63.9802 74.8864  16
  10   2   3 119.563 214.854  14
  10   2  -3 122.456 38.6136   1
  10   2  -3 49.4789 49.3084  14
 -10   2  -3-46.8205 112.341   3
  10   2  -4 248.237 232.542   1
 -10   2  -4 4.28467 114.155   3
  10  -2  -4 34.2442 57.7271  14
  10  -2   4 167.227 166.171   6
  10   2  -4 258.438 143.285  13
  10  -2  -4 168.642 160.037   6
 -10   2  -4 145.750 147.650  12
 -10  -2   4 42.1939 47.4214  12
  10  -2   4 86.2951 76.5302   1
  10   2  -4 567.328 283.618  11
 -10  -2   4 54.0591 128.501   5
 -10   2  -4 100.308 114.738  20
 -10   2  -4 78.8211 133.807   5
 -10  -2   4 56.0080 132.267   2
 -10  -2  -4 31.9425 375.449  19
 -10  -2   4-59.8495 164.356  19
 -10   2  -4 216.700 142.851  19
 -10   2   4 211.857 203.430   5
  10   2   4 50.3897 180.387   1
 -10   2   4 51.0469 132.759  19
  10   2  -4 466.584 260.092   9
  10  -2  -4-43.7767 155.207   1
  10   2   4 212.075 220.290  18
  10   2  -4 223.157 190.637  18
 -10  -2   4 79.7351 117.854   4
  10   2   4 212.240 253.502   8
 -10  -2  -4 54.3095 157.967  17
 -10  -2   4-6.53322 177.606  17
 -10   2  -4 44.5535 97.7511   4
  10   2  -4 95.6370 134.106   8
  10  -2   4 32.6738 7.26768   8
  10  -2  -4-39.4267 137.807   8
 -10   2   4 150.059 163.010   4
  10   2   4 97.2525 87.9683  16
 -10   2   4 174.602 162.460   2
  10   2   4-56.3007 214.000  14
  10   2  -4 142.055 235.443  14
  10  -2   4 41.7199 130.408  14
  10  -2  -5 147.822 196.090  14
  10  -2   5-41.1633 144.761   6
 -10   2  -5 24.7799 46.1442   3
  10   2  -5 49.5181 150.661   1
  10   2  -5-1.13495 80.5898  13
  10  -2   5-94.1667 123.261   1
  10  -2  -5 9.44836 3.66721   6
 -10   2  -5 6.47046 32.5559  12
  10   2  -5-53.3430 131.918  11
 -10  -2   5 86.6982 171.679   5
 -10   2  -5 79.4430 125.763   5
 -10   2  -5-27.8985 59.2028  20
  10   2   5 113.362 239.455   1
 -10  -2  -5 130.710 279.420  19
 -10  -2   5 117.685 191.877   2
 -10  -2   5 189.963 188.158  19
 -10   2  -5 149.696 260.051  19
 -10   2   5 61.1133 142.074   5
 -10   2   5 48.7765 18.0799  19
  10   2  -5 117.086 148.161   9
  10   2   5 1.04921 134.014  18
  10   2  -5 38.6655 152.825  18
 -10  -2   5 29.9091 131.049   4
  10   2   5 224.521 335.155   8
 -10  -2  -5 18.2002 163.447  17
  10  -2  -5 129.724 192.552   1
 -10   2  -5 18.9152 91.6838   4
 -10  -2   5 62.1970 70.4572  17
  10  -2   5 10.7325 32.1754   8
  10   2  -5 18.0695 114.071   8
 -10   2   5 48.0870 38.4097   4
  10   2   5 59.9814 92.5238  16
 -10   2   5 54.5165 45.1731   2
 -10   2  -5 502.451 487.088  15
  10   2   5 88.9145 197.592  14
  10   2  -5-1.04182 86.6719  14
  10  -2   5-48.0236 90.7933  14
  10  -2   6 470.045 302.594   1
  10  -2  -6 189.851 195.682  14
  10  -2   6 569.910 302.017   6
 -10   2  -6 58.6735 171.089   3
  10   2  -6 505.325 219.948  13
  10   2  -6 541.978 331.950   1
 -10   2  -6 134.261 151.218  12
  10   2   6 200.609 116.052   1
  10   2  -6 553.424 275.762  11
 -10   2  -6 111.882 151.866   5
 -10   2  -6 202.062 174.048  20
 -10  -2  -6 93.4750 115.018  19
 -10   2  -6 111.243 191.028  19
 -10  -2   6 122.630 120.635  19
 -10   2   6 273.104 231.282   5
 -10  -2   6 158.796 212.088   2
 -10   2   6 246.964 173.495  19
  10   2   6 383.390 156.319  18
  10   2  -6 219.826 160.149   9
  10   2  -6 375.090 228.886  18
  10   2   6 574.872 421.083   8
 -10  -2  -6 312.608 375.025  17
 -10  -2   6 134.549 166.468   4
 -10   2  -6 124.409 194.968   4
 -10  -2   6-95.1848 173.807  17
  10  -2   6 472.090 280.180   8
  10   2  -6 537.299 249.512   8
 -10   2   6 431.872 265.062   4
  10  -2  -6 100.699 84.2816   1
  10   2   6 86.6957 118.174  16
 -10   2  -6 611.357 543.203   7
 -10   2  -6 519.210 480.177  15
 -10   2   6 248.117 214.388   2
  10   2   6 297.740 286.271  14
  10   2  -6 324.680 264.756  14
  10  -2   6 343.116 269.528  14
  10  -2   7 89.8267 79.7222   6
  10  -2  -7 35.4644 125.879  14
 -10   2  -7 29.3994 67.0684   3
  10   2  -7 100.906 88.4739  13
 -10   2  -7-202.247 191.056  12
  10   2  -7 80.9766 102.931   1
 -10   2  -7 101.098 155.465   5
  10   2  -7 118.955 157.217  11
 -10  -2   7-64.1305 164.142   5
 -10   2  -7 36.9801 112.513  20
 -10  -2  -7-133.438 218.805  19
 -10   2  -7-94.5637 124.049  19
 -10  -2   7 62.2153 146.832  19
 -10   2   7 135.695 165.541   5
 -10  -2   7 267.878 276.228   2
  10   2   7-204.330 384.726  18
  10   2  -7-90.0562 156.231   9
  10   2  -7-28.2758 59.9662  18
 -10  -2  -7 170.063 229.666  17
  10   2   7 175.552 286.568   8
 -10   2  -7 95.1195 176.578   4
 -10  -2   7 158.958 231.918   4
 -10  -2   7 243.263 352.322  17
  10  -2   7 60.6722 153.199   8
  10   2  -7-35.5074 95.6951   8
  10  -2   7-296.360 429.461  16
 -10   2   7-49.4534 88.5193   4
  10   2   7-40.7978 70.2634  16
 -10   2  -7 107.132 268.347   7
 -10   2  -7-147.271 175.216  15
  10  -2   7 86.2562 140.512   1
 -10   2   7-23.9957 80.4568   2
  10   2   7-211.648 466.940  14
  10   2  -7-17.7209 63.0502  14
  10  -2   7 30.7228 167.672  14
  10  -2  -7 60.4452 185.552   1
  10  -2   8 514.993 384.563   6
  10  -2  -8 252.408 221.079  14
  10   2  -8 471.906 254.629  13
  10  -2  -8 179.938 175.999   1
 -10   2  -8 93.8169 47.1860   3
 -10   2  -8 255.192 286.244  12
  10   2  -8 289.793 269.484   1
 -10   2  -8 39.2640 54.3574   5
  10   2  -8 476.811 240.193  11
 -10  -2   8 427.119 365.967   5
 -10   2  -8-75.4443 180.236  20
 -10  -2  -8 8.07724 255.422  19
 -10   2  -8 312.493 230.091  19
 -10  -2   8 208.432 160.114  19
 -10   2   8 397.732 291.975   5
  10   2  -8 522.671 319.823   9
 -10  -2   8 237.346 243.659   2
  10   2  -8 540.728 347.583  18
 -10  -2  -8-68.3070 91.1225  17
  10   2   8 196.537 280.429   8
 -10   2  -8 165.820 279.797   4
 -10  -2   8 247.151 175.623   4
 -10  -2   8 65.2086 163.979  17
  10  -2   8 676.171 380.286   8
  10   2  -8 412.114 214.617   8
  10  -2   8 472.590 313.791  16
  10  -2   8 573.306 368.530   1
 -10   2   8 272.848 176.322   4
 -10   2  -8 534.796 416.695   7
  10   2   8 420.953 257.164  16
 -10   2  -8 210.068 355.518  15
 -10   2   8 393.603 282.663   2
  10   2   8-162.831 445.210  14
  10   2  -8 216.392 236.078  14
  10  -2   8 818.390 460.601  14
  10  -2   9 333.631 290.980   6
  10  -2  -9 14.0398 117.694  14
 -10   2  -9 200.532 272.641  12
 -10   2  -9-3.32877 80.7454   3
  10  -2  -9-3.84942 25.6075   1
  10   2  -9 93.1427 216.406  11
  10   2  -9 94.4621 141.566   1
 -10  -2   9 90.9988 156.166   5
 -10   2  -9-386.639 352.575  20
 -10  -2  -9 26.1495 177.413  19
 -10   2  -9-43.6901 159.119  19
 -10  -2   9 77.2762 156.290  19
 -10   2   9 40.5343 107.061   5
  10   2  -9-298.248 326.337   9
 -10  -2   9 22.5995 88.5625   2
  10   2  -9-22.5544 85.8845  18
 -10   2  -9-16.6061 206.775   4
  10   2   9 327.051 371.979   8
  10  -2   9-134.084 160.495   1
 -10  -2   9 91.5781 229.044   4
  10  -2   9 360.994 329.256   8
 -10  -2   9 206.587 287.876  17
  10  -2   9-48.1294 77.6794  16
  10   2  -9 33.9206 55.2897   8
 -10   2  -9 54.8154 232.536   7
  10   2   9-1.23257 73.8851  16
 -10   2   9-161.310 220.838   4
 -10   2  -9 76.8938 147.322  15
 -10   2   9 81.0992 167.835   2
  10   2  -9-92.3420 78.3999  14
  10  -2   9 92.8063 259.867  14
  10  -2  10 587.771 608.895   6
 -10   2 -10 298.021 500.011  12
 -10   2 -10 57.4731 350.434   3
  10   2 -10 6.67335 108.894  11
 -10  -2  10-101.345 127.289   5
 -10   2 -10-755.442 490.424  20
 -10  -2 -10-314.123 338.846  19
  10   2 -10 189.509 150.965   1
 -10   2 -10 1377.52 705.776  19
 -10  -2  10-18.4390 43.7335  19
  10  -2  10 25.5596 365.520   1
  10   2 -10-757.508 468.800   9
  10   2 -10-1.18227 83.6066  18
 -10  -2  10-74.1624 150.652   2
 -10   2 -10-317.035 436.243   4
  10   2  10 205.333 356.114   8
 -10  -2  10-3.28330 130.521   4
  10  -2  10 388.534 421.581   8
 -10  -2  10 103.939 178.535  17
  10  -2  10-61.6418 165.129  16
 -10   2 -10-43.8052 103.561   7
 -10   2 -10-8.66436 232.149  15
  10  -2  10 716.660 655.963  14
  10   2 -10-37.7694 80.7002  14
  10   2 -11-222.694 262.218  11
 -10  -2  11-75.7925 72.2179   5
 -10  -2 -11-67.3002 318.126  19
  10   2 -11-64.4225 112.062   1
 -10  -2  11-14.8610 46.1094  19
  10   2 -11-933.455 597.590   9
  10   2 -11-111.491 224.002  18
 -10  -2  11-35.2010 80.2068   2
  10   2  11-174.836 165.310   8
 -10  -2  11 48.9246 83.4026   4
 -10  -2  11-201.529 278.073  17
 -10   2 -11 38.9133 586.171   7
 -10   2 -11-32.5566 472.522  15
  10   2 -11 82.4709 138.662  14
  10  -2  12-697.565 574.449   1
  10   2 -12 158.756 259.926  11
 -10  -2  12 514.980 407.275   5
 -10  -2 -12-719.386 634.166  19
 -10   2 -12 56.2098 270.897  19
 -10  -2  12 62.4645 106.113  19
  10   2 -12 504.669 340.525   1
  10   2 -12-1057.73 606.121   9
  10   2 -12 128.795 144.209  18
  10   2  12 659.867 522.495   8
 -10  -2  12 272.818 270.684   2
  10  -2  12 984.318 534.441   8
 -10  -2  12 326.665 289.805   4
 -10  -2  12 293.126 189.210  17
  10  -2  12 636.727 473.272  16
 -10   2 -12-493.312 759.485   7
  10  -2  12 310.401 345.391  14
  10   2 -12 63.0298 48.1276  14
  10  -2  12 410.461 463.062   6
  10   2 -13-120.145 225.107  18
  -2 -10  13 440.942 646.644  17
 -10  -2  13 106.195 141.154  17
  10  -3   0-85.9350 174.058  14
  10  -3   0 84.2063 148.758   6
  10  -3   0 151.773 215.567   1
 -10  -3   0-24.6295 185.682  19
 -10   3   0 84.4231 37.8534   5
 -10   3   0-37.1965 156.604  19
  10   3   0 15.4708 96.7332  18
  10   3   0 70.6965 170.571   1
  10   3   0-58.2716 83.0003   8
 -10  -3   0 206.492 317.488  17
  10  -3   0-29.0644 158.924   8
 -10   3   0 109.959 162.253   4
 -10   3   0 16.5131 54.3317   2
  10   3   0-80.8859 200.776  14
  10   3   1 3425.85 999.782   1
  10   3  -1 3554.66 995.192   1
  10  -3   1 2109.91 610.595   1
 -10   3  -1 2406.58 637.466   5
 -10   3   1 2247.43 622.244   5
 -10   3  -1 957.162 378.150  12
 -10   3  -1 2453.23 420.222   2
 -10   3   1 2067.44 437.787   2
 -10   3  -1 2380.07 668.077  19
 -10   3   1 2486.07 677.284  19
 -10  -3  -1 370.251 347.601  19
 -10  -3   1 92.9480 141.206  19
  10   3   1 2632.30 720.191  18
  10   3  -1 3045.32 726.346  18
 -10   3  -1 2383.54 641.768   4
  10   3   1 2617.78 780.931   8
  10   3  -1 2742.92 733.885   8
 -10   3   1 2450.17 636.225   4
  10  -3  -1 1470.89 499.829   1
  10  -3   1 1823.38 581.033   8
  10  -3  -1 1206.35 486.081   8
 -10  -3   1 153.689 231.339  17
  10   3  -1 2132.64 718.279  14
  10  -3   1 2499.58 611.340   6
  10  -3  -1 2122.40 544.765   6
  10  -3   1 2290.83 640.486  14
  10  -3  -1 1773.72 555.745  14
  10   3   1 1801.65 674.023  14
  10  -3   2 46.2467 114.002  14
  10  -3  -2 234.071 241.872  14
  10  -3   2 122.090 114.666   6
  10  -3  -2 107.626 51.1812   6
 -10   3  -2 58.9234 122.933  12
 -10  -3  -2 174.373 217.206  19
 -10   3  -2 301.690 254.609   5
 -10  -3   2 13.4309 197.881  19
  10   3   2 191.260 150.272   1
 -10   3   2 149.185 151.613   5
 -10   3  -2 73.9388 124.853  19
 -10   3   2 180.488 190.555  19
  10   3   2 166.781 158.573  18
  10   3  -2 286.206 254.612  18
  10   3   2 27.4045 218.616   8
 -10  -3  -2 7.59435 71.9742  17
 -10  -3   2 162.598 180.423  17
  10   3  -2 263.296 245.659   8
  10   3  -2 188.760 230.948   1
 -10   3  -2 289.439 143.088   2
  10  -3   2 159.572 63.5658   8
 -10   3  -2 130.103 163.596   4
  10  -3  -2 47.4829 119.063   1
  10  -3  -2 61.9510 102.796   8
 -10   3   2 79.4894 172.885   4
  10   3   2-107.665 303.105  14
 -10   3   2 140.269 115.492   2
  10   3  -2 54.4054 148.029  14
  10  -3   2 99.0844 68.7443   1
  10  -3   3 489.404 289.144  14
  10  -3  -3 126.939 116.395   1
  10  -3  -3 161.996 182.582  14
  10  -3   3 353.602 236.479   6
 -10  -3   3 149.374 107.870  12
  10  -3  -3 230.225 186.181   6
 -10   3  -3 120.040 149.053  12
  10   3   3 534.176 450.921   1
 -10  -3  -3-0.35504 257.930  19
 -10   3  -3 431.574 285.798   5
 -10  -3   3 149.919 148.383  19
 -10   3  -3 333.399 275.693  19
 -10   3   3 446.522 335.484   5
 -10   3   3 207.756 192.053  19
  10   3   3 499.993 337.665  18
  10   3  -3 288.612 275.443  18
  10   3   3 401.786 360.906   8
 -10   3  -3 379.805 149.316   2
 -10  -3  -3 329.918 381.775  17
 -10  -3   3 19.7065 179.414  17
  10   3  -3 700.988 356.927   8
 -10   3  -3 215.711 170.236   4
  10  -3   3 290.259 203.722   8
  10   3  -3 436.547 325.528   1
  10  -3   3 284.442 223.086   1
  10  -3  -3-157.366 304.137   8
 -10   3   3 507.479 306.550   4
  10   3   3-65.7875 357.736  14
  10   3  -3 216.428 268.321  14
 -10   3   3 301.394 195.708   2
  10  -3   4 97.0273 82.6603  14
  10  -3  -4 132.877 92.9602  14
  10   3  -4 106.832 95.2592  13
  10  -3   4 102.019 114.938   6
 -10  -3   4 3.63727 20.6875  12
 -10   3  -4-200.246 182.492  12
  10  -3  -4 172.598 178.223   1
  10   3  -4 405.455 299.681  11
  10   3   4 19.4789 413.776   1
 -10   3  -4 107.894 182.357   5
 -10  -3  -4 223.154 257.978  19
 -10  -3   4 220.853 239.247  19
 -10   3  -4 172.793 139.685  19
 -10   3   4 138.913 169.237   5
 -10   3   4 82.2658 16.4448  19
 -10   3  -4 135.913 104.992   2
  10   3   4 35.8692 167.606  18
  10   3  -4 299.951 266.382  18
  10  -3   4 220.343 122.224   1
  10   3   4 260.874 395.007   8
 -10  -3  -4 20.0479 102.822  17
 -10  -3   4 126.972 220.808  17
  10   3  -4 421.783 289.164   8
 -10   3  -4 280.070 244.856   4
  10  -3   4 112.687 117.634   8
  10   3  -4 92.2885 101.083   1
 -10   3   4 193.937 156.195   4
  10   3   4-430.696 506.037  14
  10   3  -4 210.714 246.421  14
 -10   3  -4-1.41337 111.615   3
 -10   3   4 138.261 103.016   2
  10  -3   5 41.4005 89.5867  14
 -10   3  -5-23.9699 85.7028   3
  10  -3  -5-0.58353 19.9520  14
  10  -3   5 102.978 108.153   6
  10   3  -5 39.1197 56.1431  13
 -10   3  -5 16.9966 75.8523  12
  10   3   5-334.733 680.939   1
  10   3  -5 309.761 285.655  11
 -10   3  -5-21.0518 85.9229   5
 -10  -3  -5 195.386 238.376  19
  10   3  -5 63.7477 85.6197  10
 -10  -3   5 223.823 295.471  19
  10  -3   5 77.5198 126.796   1
 -10   3  -5-147.022 146.552  19
  10  -3  -5 101.694 192.304   1
 -10   3   5-227.126 319.487  19
 -10   3   5 120.937 165.801   5
  10   3   5-362.207 487.109  18
  10   3  -5 37.5002 125.999  18
  10   3   5 34.4643 144.044   8
 -10  -3  -5-137.352 123.175  17
 -10  -3   5 244.056 331.152  17
  10   3  -5 177.584 173.585   8
 -10   3  -5 2.79897 74.8879   4
  10  -3   5-14.5205 68.1572   8
 -10   3   5-246.780 190.674   4
  10   3  -5 169.260 223.159   1
  10   3  -5-60.4399 143.107  14
  10  -3   6 733.505 361.575  14
 -10   3  -6 72.3069 52.7466   3
  10  -3  -6 183.372 229.368  14
  10  -3   6 877.913 395.949   6
  10   3  -6 718.190 285.192  13
 -10   3  -6 258.429 213.968  12
 -10  -3   6 300.108 205.896   5
  10   3  -6 1182.05 449.796  11
  10  -3   6 546.076 263.925   1
 -10   3  -6 613.104 277.902  20
 -10   3  -6 369.497 231.810   5
 -10  -3   6 449.292 363.948   2
 -10  -3  -6 42.8381 57.9611  19
 -10   3  -6 644.409 229.179  10
  10   3  -6 568.506 238.042  10
 -10  -3   6 191.024 171.830  19
 -10   3  -6 310.938 226.873  19
 -10   3   6 476.065 300.535   5
  10   3  -6 649.264 353.663  18
 -10  -3   6-359.639 368.417   4
  10   3   6 335.187 78.6452   8
 -10  -3  -6-331.407 421.374  17
 -10  -3   6-63.4058 206.471  17
 -10   3  -6 414.333 318.711   4
  10   3  -6 797.550 365.052   8
  10  -3   6 985.168 432.716   8
  10  -3  -6 187.302 196.348   1
  10   3  -6 485.939 318.164   1
  10   3  -6 316.893 255.910  14
  10  -3   7 41.2934 95.3990   6
 -10   3  -7-11.4357 105.356   3
  10  -3   7 296.076 213.203   1
  10   3  -7-22.5312 79.5995  13
 -10   3  -7 13.1780 65.7602  12
 -10  -3   7-2.30552 158.533   5
  10   3  -7 496.951 378.854  11
 -10   3  -7 122.274 175.695   5
 -10   3  -7 16.8321 89.3352  20
 -10  -3   7 907.628 697.246  19
 -10  -3  -7-146.196 384.994  19
 -10   3  -7 59.7336 111.083  10
 -10  -3   7 48.7750 76.2860   2
  10   3  -7 393.629 260.135  10
 -10   3  -7-133.775 193.938  19
  10   3  -7 1295.80 576.253   9
  10   3  -7 222.618 277.486  18
 -10  -3   7-95.4805 185.114   4
  10   3   7 120.536 174.500   8
 -10   3  -7-59.4386 102.675   4
 -10  -3   7 394.927 329.824  17
  10   3  -7-11.1740 89.9200   8
  10  -3   7-76.1565 83.2091   8
  10   3  -7-49.7618 49.1733  14
  10   3  -7 117.784 234.899   1
  10  -3   7 19.5742 75.5866  14
  10   3  -8 29.5399 33.7371   1
  10  -3   8-14.7413 43.9083   6
 -10   3  -8 4.22865 97.4958   3
  10   3  -8-2.30999 84.2593  13
 -10   3  -8-181.480 187.063  12
 -10  -3   8 109.528 190.946   5
  10   3  -8-85.3054 191.774  11
 -10   3  -8 226.013 222.913   5
 -10   3  -8-8.50233 75.3112  20
 -10  -3  -8-503.561 653.724  19
 -10   3  -8-147.080 149.226  10
  10   3  -8 281.787 223.980  10
 -10  -3   8 77.5938 168.898  19
 -10   3  -8 33.7679 64.4511  19
 -10  -3   8 52.3024 122.503   2
  10   3  -8-28.0968 124.283   9
  10   3  -8 70.9294 79.8912  18
 -10  -3   8-50.5284 136.105   4
  10   3   8 274.444 350.890   8
 -10   3  -8-41.2003 78.9058   4
 -10  -3   8 29.3570 184.065  17
  10  -3   8 27.4529 79.5195   8
  10   3  -8-14.7224 73.1113   8
 -10   3  -8 412.017 488.445  15
  10   3  -8-96.7327 175.986  14
  10  -3   8 56.4304 39.9438   1
  10  -3   8 55.6849 26.6607  14
  10  -3   9 51.7363 181.946   6
  10   3  -9 214.755 274.352   1
 -10   3  -9-271.849 220.167   3
  10   3  -9 181.461 166.303  13
 -10   3  -9-120.396 61.0739  12
 -10   3  -9 36.5004 80.9952   5
 -10  -3   9-113.046 191.541   5
  10   3  -9 133.788 183.609  11
 -10   3  -9 18.1186 60.0625  20
 -10  -3  -9-971.011 880.330  19
 -10   3  -9-138.117 194.907  10
  10   3  -9 236.100 168.459  10
 -10   3  -9 9.06671 235.985  19
 -10  -3   9 21.6106 116.354  19
 -10  -3   9-147.637 252.691   2
  10   3  -9 151.989 229.537   9
  10   3  -9 52.2212 184.826  18
 -10  -3   9-79.7542 193.963   4
 -10   3  -9-6.44773 147.478   4
 -10  -3   9-77.6308 214.752  17
  10  -3   9-6.51417 186.141   8
  10   3  -9-18.0585 84.0429   8
  10  -3   9-241.582 457.602  16
  10  -3   9-7.50667 82.5464   1
 -10   3  -9 687.812 594.046   7
 -10   3  -9 314.615 387.466  15
  10   3  -9-96.3712 181.647  14
  10  -3   9-91.6926 137.626  14
  10   3 -10 337.973 302.135   1
  10   3 -10-3.19182 106.483  13
 -10   3 -10 885.759 580.226   3
 -10  -3  10-71.6348 104.409   5
  10   3 -10 391.948 335.009  11
 -10   3 -10 772.339 865.905  20
  10   3 -10 97.6830 171.998  10
 -10  -3  10 107.546 190.022  19
 -10  -3  10 85.7148 200.964   2
  10   3 -10 359.426 365.576   9
  10   3 -10 331.560 322.904  18
  10  -3  10 1353.24 865.878   8
 -10  -3  10-210.434 274.149   4
 -10   3 -10 191.475 474.040   4
 -10  -3  10 225.486 327.654  17
  10  -3  10 1232.65 753.582   1
  10  -3  10 458.316 523.295  16
  10   3 -10 107.316 164.047   8
 -10   3 -10 265.106 676.807   7
 -10   3 -10 465.652 689.530  15
  10   3 -10-98.2068 101.552  14
  10   3 -11 681.356 316.825  13
  10   3 -11 659.006 422.459   1
 -10   3 -11 86.5062 393.215   3
 -10  -3  11 226.105 274.052   5
  10   3 -11 865.296 434.734  11
 -10   3 -11 1536.55 908.340  20
  10   3 -11 6.92661 87.5838  10
 -10  -3  11 210.904 219.714  19
  10   3 -11 74.3438 175.922   9
 -10  -3  11 658.711 411.576   2
  10  -3  11 2153.54 837.425   8
  10   3 -11 339.319 301.966  18
  10  -3  11 806.062 555.404   1
 -10   3 -11 245.299 391.835   4
 -10  -3  11 300.147 235.329   4
 -10  -3  11 376.728 347.586  17
  10  -3  11 507.795 495.879  16
  10   3 -11 98.1467 174.266   8
 -10   3 -11 826.546 690.395   7
  10  -3  11 2320.14 900.199   6
 -10   3 -11 311.776 392.876  15
  10  -3  11 1816.39 795.499  14
  10   3 -11 110.967 128.727  14
  10  -3  12 178.826 316.819   6
  10   3 -12 319.038 289.182  13
 -10   3 -12 492.825 436.491  12
 -10   3 -12 120.760 272.215   3
  10   3 -12 163.978 215.000   1
 -10  -3  12-36.9469 180.060   5
  10   3 -12-11.0185 94.7313  11
 -10   3 -12-3.26566 23.4991  20
  10  -3  12-177.434 251.156   1
 -10   3 -12 85.9216 143.477  19
  10   3 -12-731.954 520.023  10
 -10  -3  12 157.012 176.348  19
  10   3 -12-195.077 272.895   9
 -10  -3  12 218.358 277.361   2
  10   3 -12-108.161 188.220  18
 -10   3 -12 13.7217 219.929   4
 -10  -3  12 153.427 296.327   4
 -10  -3  12-198.561 258.570  17
  10  -3  12 310.904 301.449   8
  10  -3  12 184.592 285.237  16
 -10   3 -12 381.894 421.194   7
 -10   3 -12-150.195 201.479  15
  10   3 -12 75.1584 220.131  14
  10  -3  12 320.857 372.814  14
  10   4   0 4417.87 1220.90   1
  10  -4   0 1724.14 536.418   1
 -10   4   0 3116.94 741.852   5
 -10   4   0 2903.73 744.850  19
  10   4   0 3802.25 923.696  18
  10   4   0 3069.91 889.087   8
 -10   4   0 2795.12 689.547   4
  10  -4   0 1384.65 516.581   8
  10  -4   0 1813.20 528.293   6
  10  -4   0 2006.10 605.780  14
 -10   4  -1 67.9207 96.2990   2
  10  -4   1 238.205 254.205  14
  10  -4  -1 155.018 168.855  14
  10  -4   1 248.848 242.326   6
  10  -4  -1 94.9465 100.390   6
  10  -4  -1 203.949 201.244   1
  10   4   1 370.889 303.860   1
 -10  -4  -1 94.3928 231.550  19
 -10  -4   1 117.946 248.672  19
 -10   4  -1 304.899 233.678   5
 -10   4  -1 357.016 259.970  19
  10   4  -1 214.870 92.8093   1
 -10   4   1 284.058 181.246  19
 -10   4   1 399.675 273.863   5
  10   4   1 500.452 385.875  18
  10   4  -1 396.400 285.797  18
  10   4   1 293.899 241.981   8
  10   4  -1 708.771 389.567   8
 -10  -4  -1 442.800 432.670  17
 -10  -4   1 161.086 244.253  17
  10  -4   1 275.415 232.938   1
  10  -4   1 163.753 172.575   8
  10  -4  -1-123.383 300.126   8
 -10   4  -1 291.341 242.140   4
 -10   4   1 317.760 222.455   4
  10   4  -1-199.479 561.267  14
  10  -4   2 1474.64 512.958  14
  10   4  -2 2168.24 830.190   1
  10  -4  -2 895.427 412.739  14
  10  -4   2 1439.43 487.020   6
 -10   4  -2 1803.23 549.426   5
 -10   4  -2 403.850 208.838  12
 -10   4   2 1410.77 492.521   5
  10   4   2 1804.05 706.391   1
 -10   4  -2 1321.23 274.293   2
 -10   4  -2 2001.50 595.900  19
 -10  -4  -2 262.040 201.160  19
 -10  -4   2 118.267 177.499  19
 -10   4   2 1290.99 498.686  19
  10   4   2 1595.90 614.797  18
  10  -4   2 1248.13 425.884   1
  10   4  -2 2114.39 699.556  18
 -10   4   2 1412.64 488.517   4
  10   4   2 1646.74 721.493   8
 -10  -4  -2-68.7620 206.732  17
  10   4  -2 1976.16 660.811   8
 -10  -4   2 339.727 366.149  17
  10  -4  -2 718.860 385.620   1
  10  -4   2 985.262 425.878   8
 -10   4  -2 1330.48 487.858   4
  10   4  -2 305.976 194.197  14
  10  -4   3 164.638 120.904  14
  10  -4   3 328.445 181.105   6
  10   4   3-183.595 688.161   1
 -10   4  -3 229.342 210.570  12
  10  -4   3 291.400 225.294   1
 -10  -4  -3 181.901 182.496  19
 -10  -4   3-68.1356 126.519  19
 -10   4  -3 323.662 217.061   5
 -10   4  -3 451.284 298.520  19
  10   4   3-109.441 511.372  18
  10   4  -3 578.054 400.168  18
  10   4  -3 405.204 310.382   1
  10   4   3 404.024 293.980   8
 -10  -4  -3-471.644 421.704  17
  10   4  -3 459.692 314.242   8
 -10  -4   3-118.385 161.590  17
  10  -4   3 610.670 311.561   8
 -10   4  -3 271.041 212.101   4
 -10   4  -3 374.261 140.923   2
  10   4  -3-181.858 337.848  14
  10  -4   4 261.264 185.821  14
  10  -4   4 148.787 84.7080   1
  10  -4   4 185.838 164.462   6
 -10   4  -4-13.2016 151.055  12
 -10  -4  -4-326.993 509.238  19
 -10  -4   4 48.9943 138.060  19
 -10   4  -4 190.867 191.967   5
 -10   4  -4 219.254 223.531  19
  10   4  -4 308.540 319.896  18
  10   4   4 154.117 116.313   8
 -10  -4  -4 791.008 597.489  17
  10   4  -4 233.433 215.981   1
 -10  -4   4 300.526 344.396  17
  10   4  -4 134.384 152.557   8
  10  -4   4 175.194 171.270   8
 -10   4  -4 220.575 216.523   4
  10   4  -4-153.910 332.650  14
  10  -4   5 1358.59 470.131  14
  10   4  -5 729.168 302.496  13
  10  -4   5 1204.68 496.805   6
 -10   4  -5 454.893 267.338  12
 -10   4  -5 993.204 435.273   5
 -10  -4   5 96.9737 152.332  19
 -10   4  -5 762.290 397.110  19
  10   4  -5 1141.28 512.897  18
  10   4   5 274.246 166.055   8
 -10  -4   5 87.5041 156.449  17
  10   4  -5 1801.00 520.076   8
  10   4  -5 1038.13 533.876   1
 -10   4  -5 830.907 396.831   4
  10  -4   5 1060.33 443.940   8
  10  -4   5 968.322 376.808   1
  10   4  -5 211.152 125.452  14
 -10   4  -5 33.6255 148.072   3
  10  -4   6-120.305 148.865  14
  10   4  -6-1.07887 92.2446  13
  10  -4   6-65.3317 138.383   6
 -10   4  -6 24.4600 41.7803  12
  10   4  -6 10.8372 53.2449  20
 -10   4  -6 23.1730 95.7958   5
 -10  -4   6 150.212 147.818  19
 -10   4  -6-238.373 222.508  19
  10   4  -6 121.814 149.173  18
  10  -4   6 44.9654 119.923   1
 -10  -4   6 180.302 270.917  17
  10   4  -6 27.8090 15.6083   8
  10   4  -6-191.753 252.708   1
 -10   4  -6-148.056 231.576   4
  10  -4   6 60.2727 95.3699   8
  10   4  -6-105.868 305.105  14
 -10   4  -6 112.126 206.530   3
  10  -4   7 731.510 406.936  14
 -10   4  -7 132.980 159.650   3
  10  -4   7 685.591 396.033   6
  10   4  -7 751.458 332.123  13
 -10   4  -7 300.852 249.440  12
  10   4  -7 1266.45 547.594  11
  10   4  -7 489.778 274.074  20
 -10   4  -7 489.637 306.642   5
  10  -4   7 991.215 390.718   1
 -10  -4   7 237.442 295.490  19
 -10   4  -7 304.910 83.0939  19
  10   4  -7 505.251 321.083  18
 -10  -4   7 177.951 109.984  17
  10   4  -7 974.737 373.727   8
 -10   4  -7 450.638 315.924   4
  10  -4   7 762.308 355.300   8
  10   4  -7 526.663 368.663   1
  10   4  -7-70.2195 229.108  14
  10  -4   8-110.038 201.683  14
 -10   4  -8-22.8441 196.337   3
  10  -4   8-7.27328 38.6764   6
  10   4  -8-34.1358 106.548  13
 -10   4  -8-56.9986 185.146  12
  10  -4   8-87.2014 160.591   1
  10   4  -8 239.249 238.024  11
 -10   4  -8 12.3263 84.1235  20
 -10   4  -8 50.1701 33.0851   5
  10   4  -8 187.401 253.490  20
 -10  -4   8 266.053 378.026   2
  10   4  -8 231.858 229.828  10
 -10  -4   8 16.0604 56.8561  19
 -10   4  -8-3.73720 113.235  19
  10   4  -8 155.443 277.099  18
 -10  -4   8-186.461 355.774  17
 -10   4  -8-85.0801 218.965   4
  10   4  -8-44.4789 81.8239   8
  10  -4   8-175.044 199.155   8
  10   4  -8-43.4649 123.561   1
  10   4  -8-82.1740 235.185  14
  10  -4   9 1013.83 482.354   1
  10  -4   9 1189.69 593.917   6
 -10   4  -9 1393.87 637.389   3
  10   4  -9 934.758 440.455  13
  10   4  -9 805.471 501.603  11
 -10   4  -9 588.778 478.795   5
 -10   4  -9 430.899 332.219  20
  10   4  -9 173.194 262.269  20
 -10  -4   9 388.045 417.014   2
 -10   4  -9 864.618 391.712  10
  10   4  -9 645.156 505.072  10
 -10  -4   9 469.934 330.448  19
 -10   4  -9 2022.60 692.480  19
  10   4  -9 790.764 490.645  18
 -10  -4   9 413.079 587.055  17
 -10   4  -9 817.839 601.188   4
  10   4  -9 454.385 314.509   8
  10  -4   9 609.526 431.747   8
  10   4  -9 909.840 515.308   1
  10   4  -9 343.006 376.969  14
  10  -4   9 1629.46 613.137  14
  10  -4  10 1376.20 547.081   6
 -10   4 -10 586.957 502.699   3
  10   4 -10 816.518 354.954  13
 -10   4 -10 1173.78 713.701  12
  10   4 -10 585.712 460.493  11
 -10   4 -10 381.770 405.836   5
 -10   4 -10 308.561 345.317  20
  10   4 -10-716.732 578.301  20
 -10   4 -10 537.556 280.477  10
  10   4 -10 739.563 394.348  10
 -10  -4  10 316.449 271.779   2
 -10  -4  10 170.180 158.541  19
 -10   4 -10 483.008 439.064  19
  10   4 -10 2485.99 861.134   9
  10   4 -10 626.241 403.715  18
 -10   4 -10 166.481 163.429   4
 -10  -4  10 861.168 520.815  17
  10  -4  10 1294.29 554.795   8
  10   4 -10 681.609 312.096   8
 -10   4 -10 112.089 190.169  15
  10   4 -10 398.669 349.274   1
  10  -4  10 799.536 444.783   1
  10   4 -10-91.7322 225.791  14
  10  -4  10 749.645 449.917  14
  10  -4  11 183.325 133.488   6
 -10   4 -11-69.0697 92.1398   3
  10   4 -11 500.873 298.455  13
 -10   4 -11 20.5536 131.564  12
 -10  -4  11 27.3744 166.231   5
 -10   4 -11 76.0490 102.377   5
  10   4 -11 245.074 159.860  11
 -10   4 -11 93.2098 140.875  20
  10   4 -11-1030.06 758.997  20
 -10   4 -11 328.258 158.120  10
  10   4 -11-70.4754 75.7339  10
 -10  -4  11 19.9491 140.204   2
 -10   4 -11-48.2719 255.143  19
 -10  -4  11 49.5897 116.779  19
  10   4 -11 654.096 522.929   9
  10   4 -11 973.406 488.658  18
 -10   4 -11 71.9526 177.640   4
 -10  -4  11-127.439 295.893  17
  10  -4  11 232.787 209.779   8
  10  -4  11 122.496 131.672   1
  10  -4  11-267.674 569.275  16
 -10   4 -11 511.178 589.447   7
 -10   4 -11 666.880 542.483  15
  10   4 -11-119.714 224.606  14
  10   4 -11 234.760 285.976   1
  10  -4  11 417.947 372.422  14
  10   5   0 281.508 362.226   1
 -10  -5   0-127.524 335.946  19
 -10   5   0 357.865 151.838  19
  10   5   0 665.135 467.496  18
  10   5   0 440.145 351.161   8
 -10  -5   0 501.364 576.958  17
 -10   5   0 353.924 209.249   4
  10  -5   1 608.227 325.048  14
  10  -5   1 587.355 348.475   6
 -10   5  -1 1357.64 490.441   5
  10   5  -1 1144.91 575.610   1
 -10  -5  -1-613.709 681.623  19
 -10  -5   1-99.1973 340.792  19
 -10   5  -1 1495.52 506.858  19
  10   5   1 1024.20 397.003  18
  10   5  -1 1194.56 578.727  18
 -10   5  -1 1472.25 513.939   4
  10   5   1 606.467 221.419   8
  10   5  -1 862.029 503.097   8
 -10  -5  -1-30.2563 409.309  17
 -10  -5   1-69.0132 192.501  17
  10  -5   1 746.095 375.535   1
  10  -5   1-23.4363 287.414   8
  10  -5   2 580.622 335.037  14
  10  -5   2 526.470 303.403   6
  10  -5   2 538.336 309.060   1
  10   5  -2 1174.74 620.757   1
 -10  -5   2 108.166 396.375  19
 -10   5  -2 1078.87 427.103   5
 -10   5  -2 1039.69 419.427  19
  10   5  -2 1284.42 567.328  18
  10   5   2 400.501 296.554   8
  10   5  -2 1196.42 525.836   8
 -10  -5   2 157.127 242.011  17
  10  -5   2 429.948 150.236   8
 -10   5  -2 835.994 367.923   4
  10  -5   3 346.526 260.279  14
  10  -5   3 520.094 279.023   6
 -10  -5   3 144.165 290.569  19
  10   5  -3 403.741 384.023   1
 -10   5  -3 757.199 358.500   5
 -10   5  -3 432.254 229.617  19
  10   5  -3 824.445 490.085  18
  10   5  -3 767.633 389.044   8
 -10  -5   3-81.1921 265.197  17
  10  -5   3 312.812 235.884   8
 -10   5  -3 557.948 344.759   4
  10  -5   3 424.356 232.009   1
  10  -5   4 693.001 339.075  14
  10  -5   4 412.372 306.927   6
 -10   5  -4 686.163 365.743  12
 -10  -5   4 72.8933 226.066  19
 -10   5  -4 1096.89 414.187   5
  10   5  -4 965.599 543.124   1
 -10   5  -4 801.259 406.701  19
  10   5  -4 1167.97 570.764  18
  10  -5   4 815.320 348.109   1
  10   5  -4 1378.97 510.991   8
 -10  -5   4 22.4959 183.351  17
  10  -5   4 663.165 331.475   8
 -10   5  -4 1016.20 448.161   4
  10  -5   5 29.8292 14.9836  14
  10  -5   5-83.7394 161.963   6
 -10   5  -5-33.7477 107.494  12
  10  -5   5 15.8525 87.5849   1
 -10  -5   5 14.1883 199.687  19
 -10   5  -5-208.113 248.528   5
 -10   5  -5 0.84533 72.4599  19
  10   5  -5-129.267 242.089   1
  10   5  -5 124.542 181.798  18
  10   5  -5-21.5344 174.495   8
 -10  -5   5-310.310 410.671  17
  10  -5   5 136.329 219.251   8
 -10   5  -5 216.161 231.045   4
  10  -5   6 1039.42 432.163  14
  10  -5   6 1303.50 430.980   1
  10   5  -6 1015.24 378.925  13
  10  -5   6 1233.59 532.161   6
 -10   5  -6 959.106 434.061  12
 -10  -5   6 41.2327 81.2008  19
 -10   5  -6 1631.85 536.023   5
 -10   5  -6 1534.56 526.918  19
  10   5  -6 1616.72 693.072  18
  10   5  -6 1233.67 617.037   1
 -10  -5   6-86.9001 180.360  17
  10   5  -6 1831.41 527.822   8
 -10   5  -6 1129.53 487.002   4
  10  -5   6 1147.38 458.900   8
 -10   5  -6 25.0625 227.343   3
  10  -5   7-16.6916 108.407  14
  10   5  -7 140.195 201.330  13
  10  -5   7 30.8771 51.4928   6
 -10   5  -7-72.9723 226.779  12
 -10   5  -7 67.6436 34.3208   5
 -10  -5   7 13.2268 111.065  19
 -10   5  -7-147.807 200.756  19
  10   5  -7-133.656 258.960  18
  10   5  -7-569.337 544.393   1
 -10  -5   7 214.676 246.634  17
  10   5  -7-24.5536 103.101   8
 -10   5  -7 56.1264 129.580   4
  10  -5   7-317.377 256.771   8
  10  -5   7 26.7033 63.8683   1
 -10   5  -7-157.593 234.968   3
 -10   5  -8 583.305 344.145   3
  10  -5   8 1049.34 469.756  14
  10   5  -8 1527.62 512.075  13
  10  -5   8 1170.53 525.287   6
 -10   5  -8 692.010 321.036  12
  10   5  -8 2060.96 671.592  20
 -10   5  -8 1063.91 446.938   5
 -10  -5   8 600.424 513.907  19
 -10   5  -8 988.660 379.743  19
  10   5  -8 1350.31 608.571  18
  10  -5   8 1475.49 456.336   1
  10   5  -8 1586.71 687.563   1
 -10  -5   8 653.113 608.575  17
  10   5  -8 1605.78 462.477   8
 -10   5  -8 865.566 404.959   4
  10  -5   8 1050.01 449.113   8
  10  -5   9 157.311 223.269  14
 -10   5  -9-111.635 193.654   3
  10  -5   9-107.606 248.528   6
  10   5  -9 10.8897 112.378  13
 -10   5  -9-6.53544 123.588  12
  10   5  -9 367.210 477.941  11
  10   5  -9 33.7606 119.780  20
 -10   5  -9 89.8656 237.051   5
  10  -5   9 87.4085 85.3184   1
 -10  -5   9 65.3638 111.515  19
 -10   5  -9-56.5655 138.839  19
  10   5  -9-79.2750 264.970  18
 -10  -5   9 1.62948 133.586  17
  10   5  -9-163.803 272.094   1
  10   5  -9-96.2428 146.898   8
 -10   5  -9-155.342 210.482   4
  10  -5   9 16.5121 46.2017   8
  10  -5  10 1233.90 494.867  14
 -10   5 -10 279.617 260.697   3
  10  -5  10 564.854 443.515   6
  10   5 -10 993.549 436.068  13
  10  -5  10 705.615 315.098   1
 -10   5 -10 469.028 285.849  12
  10   5 -10 1303.14 649.607  11
 -10   5 -10 678.809 227.142   5
  10   5 -10 796.827 387.820  20
  10   5 -10 1810.24 678.494  10
 -10  -5  10 499.385 346.185  19
 -10   5 -10 603.549 314.878  19
  10   5 -10 733.919 443.623  18
 -10  -5  10 374.382 426.074  17
 -10   5 -10 669.851 393.586   4
  10   5 -10 1047.87 496.239   1
  10  -5  10 1105.69 470.260   8
  10   6  -1 826.635 487.801  18
  10   6  -1 511.869 249.885   8
 -10  -6   1 373.801 564.834  17
  10   6  -2-549.821 802.528   1
 -10  -6   2-451.466 597.939  19
  10   6  -2 32.2939 139.752  18
  10   6  -2-18.7048 213.378   8
 -10  -6   2-294.813 377.952  17
  10  -6   3 371.715 300.766   6
  10   6  -3 513.422 327.250   1
 -10  -6   3-223.799 407.683  19
 -10   6  -3 684.354 350.621  19
 -10   6  -3 1199.67 452.569   5
  10   6  -3 1216.05 633.739  18
  10   6  -3 1116.80 563.994   8
 -10  -6   3 60.6659 360.632  17
 -10   6  -3 927.977 430.259   4
  10  -6   4-84.1932 27.9611  14
  10  -6   4-29.4804 119.655   6
  10   6  -4-335.458 434.118   1
  10  -6   4-8.83535 75.3814   1
 -10  -6   4 164.952 396.933  19
 -10   6  -4 10.8487 9.74127   5
 -10   6  -4-224.999 241.085  19
  10   6  -4 82.2626 230.731  18
  10   6  -4-64.8663 187.432   8
 -10  -6   4-81.3322 12.4417  17
  10  -6   4-474.502 420.657   8
 -10   6  -4-73.0657 54.6950   4
  10  -6   5 664.745 390.153  14
  10  -6   5 770.540 409.566   6
 -10   6  -5 777.134 308.131  12
  10   6  -5 1460.36 704.944   1
 -10  -6   5-8.63022 236.240  19
 -10   6  -5 1321.27 455.075   5
 -10   6  -5 1416.06 478.051  19
  10   6  -5 1428.33 665.739  18
  10   6  -5 1498.13 525.176   8
 -10  -6   5-23.9739 247.902  17
  10  -6   5 127.403 112.849   8
 -10   6  -5 1201.78 479.659   4
  10  -6   5 595.010 286.117   1
  10  -6   6 497.446 326.666  14
  10  -6   6 214.608 255.116   6
 -10   6  -6 302.878 166.686  12
 -10  -6   6-75.1431 171.401  19
  10   6  -6 533.674 572.196   1
 -10   6  -6 672.190 312.353   5
 -10   6  -6 334.698 251.727  19
  10   6  -6 1162.06 701.575  18
  10  -6   6 389.140 254.141   1
  10   6  -6 901.810 464.823   8
 -10  -6   6 442.265 467.410  17
  10  -6   6 257.228 239.475   8
 -10   6  -6 488.555 365.514   4
  10  -6   7 688.418 369.574  14
  10  -6   7 531.560 392.113   6
 -10   6  -7 839.682 435.517  12
  10  -6   7 591.805 245.486   1
 -10  -6   7-349.049 282.699  19
 -10   6  -7 930.691 389.740   5
  10   6  -7 688.701 440.904   1
 -10   6  -7 631.581 354.969  19
  10   6  -7 1149.13 579.992  18
  10   6  -7 1223.87 439.799   8
 -10  -6   7-32.4602 65.2208  17
 -10   6  -7 1006.47 500.280   4
  10  -6   7 546.584 344.876   8
  10  -6   8 280.214 229.170  14
  10   6  -8 462.526 279.296  13
  10  -6   8 252.975 336.194   6
 -10   6  -8 513.121 347.034  12
 -10   6  -8 408.087 277.793   5
 -10  -6   8 69.3185 88.5336  19
 -10   6  -8 163.123 185.377  19
  10   6  -8 31.2954 151.692   1
  10   6  -8 662.152 493.092  18
 -10  -6   8 122.260 246.988  17
  10   6  -8 766.688 369.207   8
 -10   6  -8 246.625 251.778   4
  10  -6   8 184.205 226.299   8
 -10   6  -8 68.9207 176.712   3
  10  -6   8 663.101 297.969   1
 -10  -7   3 91.4916 550.521  17
  10   7  -4 862.590 575.517  18
  10   7  -4 584.243 296.085   8
 -10  -7   4 64.7843 450.005  17
  10   7  -5-321.889 681.147   1
 -10  -7   5-407.483 437.597  19
  10   7  -5 838.266 545.081  18
  10   7  -5 797.264 433.184   8
 -10  -7   5-140.781 379.376  17
  10  -7   6 281.371 317.366   6
  10   7  -6-76.6066 536.120   1
  10  -7   6 9.02777 60.0692   1
 -10  -7   6 96.2550 23.9429  19
 -10   7  -6 419.930 280.411   5
 -10  -7   6-90.1867 257.324  17
  11   0   0-28.0004 85.7654   6
  11   0   0 51.4031 112.728   1
 -11   0   0-26.8879 30.1904  12
 -11   0   0 19.3467 39.4872   5
  11   0   0 49.3348 116.831  11
 -11   0   0-65.0589 79.1752   2
 -11   0   0-43.3580 97.3251  19
  11   0   0-65.0461 128.232  18
 -11   0   0-112.831 185.361   4
 -11   0   0 81.0311 64.8273  17
  11   0   0-100.022 147.354   8
 -11   0   0 8.83149 195.034   7
 -11   0   0-115.988 212.633  15
  11   0   0 92.2207 93.7037  14
  11   0   1 210.144 176.533   6
  11   0  -1 351.325 194.879   6
  11   0   1 275.633 228.813   1
 -11   0  -1 130.805 165.845  12
  11   0  -1 371.679 299.633   1
 -11   0   1 33.2274 54.0023  12
 -11   0  -1 193.615 191.845   5
 -11   0   1 184.248 235.400   5
  11   0   1 65.4087 78.3199  11
  11   0  -1 119.498 59.9083  11
 -11   0   1 222.981 212.927   2
 -11   0  -1 276.536 282.189  19
 -11   0   1 76.0103 117.217  19
  11   0   1 354.961 245.812  18
  11   0  -1 259.318 150.790  18
 -11   0  -1 137.418 203.079   4
 -11   0   1 128.218 137.661   4
 -11   0  -1 165.590 114.121  17
 -11   0   1 55.4129 123.861  17
  11   0   1 546.623 353.328   8
  11   0  -1 234.697 236.454   8
 -11   0  -1 6.24530 178.633   7
 -11   0   1 222.325 271.331   7
 -11   0  -1-137.858 282.455  15
 -11   0   1 64.4924 105.730  15
  11   0   1 334.116 296.610  14
  11   0  -1 93.0314 100.461  14
  11   0   2-64.5281 71.3671   6
 -11   0  -2-19.8549 37.1108   3
  11   0  -2-45.9426 17.0105   6
  11   0  -2-16.2996 28.7258  13
 -11   0  -2-44.2243 117.213  12
 -11   0   2-22.0241 107.052  12
 -11   0  -2 103.961 199.075   5
  11   0  -2-25.5958 152.211   1
  11   0   2-96.5058 116.504  11
 -11   0   2 1.46760 128.580   5
  11   0  -2 145.141 141.847  11
 -11   0  -2 148.635 191.700  19
 -11   0   2-14.5341 121.150  19
 -11   0   2 99.2734 151.755   2
  11   0   2-19.2515 50.2247  18
  11   0  -2 46.9117 75.9512  18
 -11   0  -2-57.5645 137.428   4
 -11   0   2 7.04188 97.3633   4
 -11   0  -2 41.7429 182.541  17
  11   0   2-10.5338 139.481   8
 -11   0   2 29.6185 79.0817  17
  11   0  -2-67.2043 134.910   8
 -11   0  -2-366.578 387.713   7
 -11   0   2 327.108 336.903   7
 -11   0  -2-202.441 418.106  15
 -11   0   2 93.0818 149.127  15
  11   0   2-86.2919 211.529   1
  11   0   2 100.081 102.185  14
  11   0  -2-32.4091 58.1913  14
  11   0  -3 1187.91 352.643   6
  11   0  -3 1007.79 249.818  13
 -11   0  -3 314.456 210.924  12
 -11   0  -3 480.177 364.404   5
  11   0   3 1027.75 229.100  11
 -11   0   3 643.382 400.875   5
  11   0  -3 431.418 159.516  11
  11   0  -3 927.713 474.472   1
 -11   0  -3 496.198 355.021  19
 -11   0   3 665.823 353.123  19
 -11   0   3 861.255 383.800   2
  11   0   3 937.846 315.833  18
  11   0  -3 819.893 357.726  18
 -11   0  -3 377.318 242.126   4
 -11   0  -3 30.9396 144.012  17
  11   0   3 1242.72 519.177   8
 -11   0   3 662.015 370.446   4
 -11   0   3 256.024 185.754  17
  11   0  -3 1225.08 464.662   8
 -11   0  -3 71.6026 338.277   7
 -11   0  -3-33.7915 380.961  15
  11   0   3 1686.80 638.482   1
 -11   0   3 817.008 426.294  15
  11   0   3 1384.75 568.897  14
  11   0  -3 1086.67 465.472  14
  11   0   3 1034.45 401.507   6
  11   0  -4 79.9256 132.908   6
 -11   0  -4-3.05089 39.0751   3
  11   0  -4 349.606 189.662  13
 -11   0  -4 135.723 241.670  12
  11   0   4-39.8453 108.973  11
  11   0  -4-50.3772 76.9331  11
 -11   0   4-18.1567 185.779   5
 -11   0  -4 152.839 213.979  19
 -11   0   4-116.534 183.085  19
  11   0  -4-206.329 253.286   1
  11   0   4-45.8171 82.0876  18
 -11   0   4 96.3464 193.233   2
  11   0  -4-5.72676 69.6267  18
 -11   0  -4-195.988 290.230   4
  11   0   4 55.9565 149.122   8
 -11   0  -4-27.9071 112.927  17
 -11   0   4-8.26437 79.1094   4
 -11   0   4 32.5888 141.823  17
  11   0  -4-67.7604 162.347   8
  11   0   4-29.1085 67.0394   1
  11   0   4-197.353 266.559  14
  11   0   4-67.6464 126.324   6
  11   0  -4 114.744 111.577  14
  11   0   5 6307.46 1267.39   1
  11   0  -5 3766.00 922.906   1
 -11   0  -5 870.837 441.953  12
 -11   0  -5 548.392 231.134   3
 -11   0   5 2614.48 762.424   5
  11   0   5 4006.22 461.541  11
 -11   0   5 3876.27 784.576   2
  11   0  -5 1594.61 449.014  11
 -11   0   5 3301.44 803.118  19
 -11   0  -5 936.248 485.580  19
  11   0   5 4063.46 624.784  18
  11   0  -5 2458.40 651.574  18
 -11   0   5 2986.94 733.982   4
  11   0   5 4834.30 1030.71   8
  11   0  -5 3164.30 757.868   8
 -11   0  -5 534.091 207.167   4
 -11   0  -5 335.223 185.989  17
 -11   0   5 1847.35 619.523  17
  11   0   5 3469.89 617.548  16
  11   0   5 4786.52 928.818   6
  11   0  -5 4582.95 614.402   6
  11   0   5 5761.76 1203.51  14
  11   0  -5 3372.86 836.167  14
  11   0  -6 100.981 104.338   6
 -11   0  -6 122.353 239.287   3
  11   0  -6-7.38796 2.78371  11
 -11   0   6-179.017 214.105   5
 -11   0  -6-79.9792 192.751  19
 -11   0   6-47.6776 89.8822  19
  11   0   6 16.8940 83.7894  18
 -11   0  -6-535.749 520.174   4
  11   0  -6-114.183 239.743  18
 -11   0   6 212.428 233.543   2
  11   0   6-110.555 249.136   1
  11   0  -6-17.3473 87.4150   1
  11   0   6 47.6440 216.267   8
 -11   0  -6-126.367 108.851  17
 -11   0   6-113.396 185.120  17
 -11   0   6 1.65330 20.7607   4
  11   0  -6-3.97875 102.117   8
  11   0   6-85.0978 99.9292  16
  11   0   6-7.74005 195.782  14
  11   0   6-103.853 194.737   6
  11   0  -6 51.6906 122.448  14
  11   0   7 4535.58 1077.39   1
  11   0  -7 2848.51 809.410   1
 -11   0   7 2878.60 798.539   5
 -11   0   7 3416.19 806.552   2
  11   0  -7 867.499 331.698  11
 -11   0   7 3226.52 793.599  19
 -11   0  -7-207.270 265.090  19
  11   0   7 4024.04 604.319  18
  11   0  -7 1668.14 551.690  18
 -11   0   7 3010.15 723.167   4
  11   0   7 4639.27 998.924   8
  11   0  -7 1541.90 523.820   8
 -11   0  -7 50.7723 130.655  17
 -11   0   7 1879.13 666.205  17
  11   0   7 4551.64 787.252  16
  11   0   7 4358.70 920.741   6
  11   0   7 4475.23 1098.91  14
  11   0  -7 2159.21 669.232  14
  11   0  -8-19.1493 87.1209  14
  11   0  -8 16.4953 125.312  11
 -11   0   8 143.498 224.820   5
 -11   0  -8 818.194 574.409  19
  11   0   8 435.456 424.495   1
 -11   0   8 24.6488 32.1142  19
  11   0   8 90.7506 167.070  18
  11   0  -8-31.2882 80.9088  18
  11   0   8 424.972 517.682   8
 -11   0   8 29.7744 151.871   2
 -11   0   8 54.2101 170.840  17
 -11   0   8-58.9492 127.568   4
  11   0  -8-66.2613 167.247   1
  11   0   8 19.2751 36.8639  16
  11   0  -8-202.791 328.030   8
  11   0   8 670.802 645.851  14
  11   0   8 288.517 378.682   6
  11   0  -9 1167.99 438.999  14
 -11   0   9 2189.40 697.172   5
 -11   0   9 2303.26 688.096   2
  11   0   9 2060.22 794.128   1
  11   0  -9 335.803 258.168  11
 -11   0   9 1615.64 564.374  19
 -11   0  -9 600.992 578.170  19
 -11   0   9 1979.39 588.840   4
  11   0  -9 899.308 419.482  18
  11   0   9 3126.95 885.473   8
 -11   0   9 790.775 442.576  17
  11   0   9 2667.17 646.956  16
  11   0  -9 1247.32 519.785   1
  11   0   9 2873.83 787.513   6
  11   0   9 3245.68 993.687  14
  11   0 -10-132.355 161.765  14
  11   0 -10-156.459 218.203  11
 -11   0  10 147.986 268.140   5
 -11   0 -10-386.540 408.746  19
 -11   0  10-109.883 212.348  19
  11   0 -10-112.200 254.174  18
  11   0  10 11.2758 96.9049   8
 -11   0  10-9.42688 63.7088   2
 -11   0  10 2.60801 56.7235  17
 -11   0  10 115.700 206.809   4
  11   0  10-12.5605 165.461  16
  11   0 -10-76.6924 140.820   1
  11   0  10-130.230 329.037  14
  11   0  10-47.7996 210.643   6
  11  -1   0 166.349 180.987   6
 -11  -1   0 97.1480 126.061  12
 -11   1   0-9.61827 85.5818  12
 -11  -1   0 97.1727 105.293   5
  11   1   0 364.619 230.616  11
 -11   1   0 181.638 154.426   5
  11  -1   0 132.714 221.739   1
 -11  -1   0 98.2485 227.440  19
 -11   1   0-36.5124 124.317  19
 -11   1   0 72.0998 144.164   2
  11   1   0 32.3155 139.955  18
  11  -1   0 19.1227 58.0164  18
 -11  -1   0 37.9201 149.117   4
 -11  -1   0-141.950 201.947  17
  11   1   0 199.529 197.109   8
 -11   1   0-2.65580 73.5499   4
 -11   1   0-86.7636 122.256  17
  11  -1   0 46.1398 119.973   8
  11   1   0 102.963 203.634   1
  11   1   0-62.6232 129.027   6
  11   1   0 17.1458 111.931  14
  11  -1   0 76.2432 211.659  14
 -11  -1  -1-22.9404 64.1172   3
  11  -1   1 79.1186 132.764   6
  11  -1  -1 163.329 191.884   6
  11  -1  -1 35.8272 31.0783  13
 -11  -1  -1 76.8426 65.1473  12
 -11  -1   1 77.3063 121.507  12
 -11   1  -1-131.933 180.789  12
 -11   1   1-0.12377 141.951  12
  11  -1   1-9.23329 64.9552   1
  11   1   1 367.918 215.309  11
 -11  -1   1-49.4890 194.863   5
  11   1  -1 27.8177 40.2007  11
 -11   1  -1-38.6459 132.842   5
 -11   1   1-35.9477 101.707   5
 -11   1  -1 13.7848 112.035   2
 -11  -1  -1 268.071 334.224  19
 -11  -1   1 112.966 123.029  19
 -11   1  -1 124.106 201.530  19
 -11   1   1 16.7631 120.100  19
  11  -1  -1 100.819 235.366   1
 -11   1   1 184.947 183.024   2
  11   1   1 76.8699 59.2691  18
  11   1  -1 197.251 205.943  18
  11  -1   1 36.5363 67.0136  18
  11  -1  -1-25.2796 104.241  18
 -11  -1  -1-263.989 303.749   4
 -11  -1   1 38.4585 120.311   4
 -11  -1  -1 63.5614 119.534  17
 -11   1  -1 99.6355 165.524   4
  11   1   1 98.7626 252.107   8
 -11  -1   1-196.843 220.753  17
  11   1  -1 66.1837 140.511   8
 -11   1   1 177.531 191.256   4
 -11   1  -1 84.6442 49.5485  17
 -11   1   1-12.8972 60.2168  17
  11  -1   1 79.0052 141.787   8
  11  -1  -1 167.147 246.582   8
  11   1   1 29.4705 67.4100   1
 -11   1  -1 205.055 381.246  15
  11   1   1 29.2692 98.9701   6
  11   1   1-24.9418 102.969  14
  11   1  -1 16.3400 39.0903   6
  11   1  -1-1.88259 77.0135  14
  11   1  -1 228.631 247.837   1
  11  -1   1 26.9519 112.205  14
  11  -1  -1 22.5610 80.0976  14
  11  -1  -2-12.1823 49.7384  14
  11  -1   2 148.487 106.160   6
  11   1  -2 187.282 214.011   1
  11   1  -2-127.998 167.442  13
  11  -1  -2 130.054 97.1919   6
 -11  -1  -2-86.4480 117.199   3
  11  -1   2 343.477 304.710   1
 -11  -1  -2 279.100 261.656  12
 -11   1  -2 84.1760 44.9582  12
 -11  -1   2-37.0061 99.5619  12
  11   1   2 838.984 282.791  11
 -11  -1   2-75.7528 213.305   5
  11   1  -2 288.577 154.683  11
 -11   1  -2-19.5393 90.2058   5
 -11  -1   2 117.229 173.639   2
 -11   1   2 230.844 254.124   5
 -11  -1  -2 149.126 227.043  19
 -11  -1   2 62.2070 119.997  19
 -11   1  -2 15.3546 123.301  19
 -11   1   2 164.196 178.063  19
  11   1   2 366.368 274.893  18
  11   1  -2 316.500 272.735  18
  11  -1   2 59.5172 43.0863  18
 -11   1   2 154.866 141.489   2
 -11  -1  -2-148.633 353.733   4
  11  -1  -2 208.769 230.603   1
  11  -1  -2 48.4548 86.7894  18
 -11  -1   2-35.0934 101.464   4
 -11   1  -2 92.3486 71.0690   4
 -11  -1  -2 370.130 310.153  17
  11   1   2 594.240 409.821   8
 -11  -1   2-24.9684 163.528  17
  11   1  -2 92.0223 98.3793   8
 -11   1  -2-21.2695 81.5547  17
  11  -1   2 129.496 149.132   8
 -11   1   2-11.8115 98.3637  17
 -11   1   2 136.736 188.613   4
  11  -1  -2 207.403 194.456   8
  11   1   2 290.950 246.356   1
 -11   1  -2 516.338 446.206   7
 -11   1  -2 342.297 421.442  15
 -11   1  -2-73.0537 172.860   3
  11   1   2 183.337 173.818   6
  11   1   2 158.776 283.475  14
  11   1  -2 172.329 145.907   6
  11   1  -2-60.5188 196.855  14
  11  -1   2 349.386 291.328  14
  11  -1  -3-5.45782 86.6693  14
 -11   1  -3 26.3971 79.2319   3
  11  -1   3-13.7482 65.8922   6
  11  -1   3 123.284 209.537   1
  11   1  -3-30.9605 55.2645  13
  11  -1  -3 1.73455 68.0452   6
  11   1  -3 68.8744 208.853   1
 -11  -1  -3 120.802 163.838   3
 -11   1  -3 52.2243 150.189  12
 -11  -1   3 26.4759 43.7938  12
  11   1   3 275.329 195.670  11
 -11   1  -3-82.1580 233.869   5
 -11  -1   3-52.6617 185.416   5
  11   1  -3 65.9441 129.182  11
 -11   1   3 49.1806 51.7133   5
 -11  -1   3 145.765 110.724   2
 -11  -1  -3 245.747 252.765  19
 -11   1  -3 76.2075 160.137  19
 -11  -1   3 59.3060 115.246  19
 -11   1   3-5.81127 77.1261  19
  11   1   3 59.1103 116.471  18
  11   1  -3-39.0627 87.9495  18
 -11  -1  -3-348.785 441.944   4
  11  -1   3-38.6657 63.2039  18
  11  -1  -3 39.8784 93.2942  18
 -11   1   3 113.415 134.573   2
 -11  -1   3-12.6828 73.8062   4
 -11   1  -3-30.9657 84.8313   4
 -11  -1  -3 110.515 160.448  17
  11   1   3 22.7848 233.683   8
  11  -1  -3 33.1796 133.676   1
 -11  -1   3 98.1555 125.493  17
  11   1   3-30.9736 145.333   1
  11  -1   3 50.8159 109.490   8
 -11   1  -3-18.8445 96.4485  17
  11   1  -3 88.9750 169.533   8
 -11   1   3 15.2675 81.9219  17
 -11   1   3 79.6870 191.989   4
  11  -1  -3-143.586 227.312   8
 -11   1  -3 73.5015 305.718   7
 -11   1  -3 85.7932 188.203  15
  11   1   3-66.7838 90.5745   6
  11   1   3-14.9635 136.995  14
  11   1  -3-134.061 199.030  14
  11   1  -3 32.3212 105.108   6
  11  -1   3-62.5372 224.613  14
  11  -1  -4 1424.40 521.571  14
  11   1   4 2150.22 782.931   1
 -11   1  -4 70.4698 91.5043   3
  11   1  -4 1655.82 349.828  13
  11  -1   4 2318.25 703.630   1
 -11   1  -4 385.792 181.535  12
  11   1  -4 1538.52 576.589   1
  11   1   4 3320.35 522.405  11
 -11   1  -4 863.907 427.590   5
  11   1  -4 1839.62 470.760  11
 -11  -1   4 993.449 514.885   5
 -11   1   4 1427.97 549.093   5
 -11  -1  -4 175.952 294.615  19
 -11   1  -4 865.962 460.045  19
 -11  -1   4 982.549 412.300  19
 -11   1   4 1247.39 498.303  19
 -11  -1   4 1188.75 456.457   2
  11   1   4 2027.25 491.481  18
  11   1  -4 1633.58 542.469  18
  11   1   4 2416.46 769.410   8
  11   1  -4 1760.23 561.315   8
  11  -1   4 984.336 295.303  18
  11  -1  -4 513.612 280.078  18
 -11   1  -4 850.139 436.109   4
 -11  -1   4 874.828 406.023   4
 -11   1   4 1395.03 459.906   2
 -11  -1  -4 186.689 58.3547  17
 -11  -1   4 608.091 353.907  17
  11  -1   4 1929.20 660.389   8
 -11   1  -4 183.939 153.970  17
 -11   1   4 481.480 284.154  17
  11   1   4 1569.30 372.617  16
 -11   1   4 1337.40 502.163   4
  11  -1  -4 1230.21 502.863   8
  11  -1  -4 1466.43 541.966   1
 -11  -1   4 20.6072 292.906   7
 -11   1  -4 1180.61 558.419   7
  11  -1   4 2125.86 611.866   6
 -11   1  -4 991.404 510.567  15
  11  -1  -4 2019.51 455.421   6
  11  -1   4 1921.77 690.472  14
  11   1   4 1207.70 461.840   6
  11   1   4 1892.09 715.236  14
  11   1  -4 1378.95 574.379  14
  11   1  -4 748.836 259.369   6
  11  -1  -5 134.063 140.837  14
  11  -1   5 99.0708 178.386   6
 -11   1  -5-10.5520 32.1112   3
  11  -1  -5 100.848 112.384   6
  11   1  -5 38.0164 30.3875  13
 -11   1  -5-12.3443 98.0273  12
  11   1  -5 11.9101 127.809   1
 -11   1  -5 117.818 226.741   5
  11   1  -5 223.699 171.456  11
 -11  -1   5 180.992 243.515   5
 -11   1   5 70.8086 167.703   5
 -11  -1  -5 125.283 206.702  19
 -11   1  -5-278.171 294.092  19
 -11  -1   5 16.0629 119.078  19
 -11   1   5 88.0166 156.054  19
 -11  -1   5 79.1664 185.152   2
  11   1   5 44.2379 22.7561  18
  11   1   5 210.266 249.004   1
  11   1  -5 63.2806 71.6225  18
  11  -1   5-7.63868 87.9419  18
  11  -1  -5 41.9186 167.917  18
 -11   1  -5 46.5387 158.385   4
  11   1   5 47.0105 240.422   8
 -11  -1  -5 195.597 254.550  17
 -11  -1   5-147.428 186.052   4
 -11   1   5 38.6919 155.025   2
  11  -1   5 189.890 152.057   8
 -11  -1   5 88.1512 196.971  17
 -11   1  -5 36.7660 55.1130  17
 -11   1   5-53.3791 117.865  17
  11   1  -5 27.9606 94.8633   8
 -11   1   5 55.0009 74.0111   4
  11  -1  -5-30.9418 64.6589   8
  11   1   5-16.8775 43.1330  16
 -11  -1   5-350.349 328.499   7
 -11   1  -5 97.9853 155.594   7
 -11   1  -5 265.208 344.466  15
  11  -1   5 48.6487 118.228   1
  11  -1  -5 22.8734 79.9802   1
  11   1   5 56.1118 53.2321   6
  11   1   5 135.433 213.877  14
  11  -1   5-5.50911 105.617  14
  11   1  -5 15.8787 126.155  14
  11   1  -5 111.064 108.682   6
  11   1   6 3961.20 1102.66   1
  11  -1   6 4870.59 1017.81   1
  11   1  -6 3598.58 586.139  13
  11   1  -6 3591.60 901.523   1
 -11   1  -6 443.718 217.058   3
  11  -1  -6 2482.74 731.902   1
 -11   1  -6 961.061 456.392  12
 -11  -1   6 2533.64 751.835   5
 -11   1   6 3160.95 806.670   5
 -11  -1   6 3487.94 819.608   2
 -11   1   6 3266.73 694.278   2
  11   1  -6 2555.00 600.488  11
 -11  -1   6 2711.88 706.688  19
 -11   1   6 3353.41 801.831  19
 -11  -1  -6 164.575 233.006  19
 -11   1  -6 1319.96 548.159  19
  11   1   6 4196.08 702.246  18
  11   1  -6 2918.65 720.332  18
  11  -1   6 2462.49 422.110  18
 -11  -1   6 2443.75 677.061   4
 -11   1   6 3468.43 757.336   4
  11   1   6 3789.14 998.645   8
  11  -1   6 4215.58 923.789   8
  11   1  -6 3372.94 783.456   8
  11  -1  -6 809.737 373.101  18
 -11   1  -6 1236.01 553.386   4
 -11  -1  -6 47.3458 134.833  17
 -11  -1   6 2030.12 671.275  17
 -11   1  -6 193.533 126.839  17
 -11   1   6 1671.30 618.022  17
  11   1   6 4463.09 713.650  16
  11  -1  -6 1253.51 471.426   8
 -11  -1   6 1336.93 330.610   7
 -11   1  -6 1702.76 628.822   7
 -11  -1   6 470.370 137.267  15
 -11   1  -6 1032.03 387.459  15
  11   1   6 2221.89 662.556   6
  11  -1   6 5053.05 958.600   6
  11   1   6 4703.45 1177.78  14
  11  -1  -6 3572.91 568.760   6
  11  -1   6 4885.95 1071.17  14
  11   1  -6 3025.16 775.850  14
  11  -1  -6 2426.22 694.474  14
  11  -1  -7 66.4592 114.989  14
  11  -1  -7 124.890 203.215   1
  11  -1  -7 70.4469 97.3268   6
 -11   1  -7-16.5112 114.797   3
 -11   1  -7-11.8397 294.878  12
  11   1  -7-4.94447 11.0049  11
 -11  -1   7-129.496 152.067   5
  11   1   7 37.5484 240.664   1
  11   1  -7-88.5323 189.529   1
 -11  -1  -7-287.160 397.333  19
 -11   1   7 1.55118 62.7224   5
 -11   1  -7-70.0429 266.958  19
 -11  -1   7-69.1763 118.216  19
 -11   1   7-46.0028 160.482  19
  11   1   7 28.8277 20.1856  18
 -11  -1   7 265.100 275.459   2
  11  -1   7-111.598 151.077  18
  11   1  -7-15.6583 84.9495  18
 -11   1  -7-128.886 339.025   4
  11  -1  -7-11.1929 95.9012  18
  11   1   7 30.3482 120.848   8
 -11  -1  -7 46.9740 51.9363  17
  11  -1   7-365.928 279.336   8
 -11  -1   7 7.51151 33.2011   4
  11  -1   7-41.6186 318.633   1
 -11  -1   7-66.1996 84.5039  17
 -11   1   7-70.6996 195.067  17
 -11   1   7 92.1372 131.969   2
  11  -1   7-115.475 235.627  16
  11   1  -7-14.4935 94.7171   8
 -11   1   7-159.291 158.867   4
  11   1   7 93.6537 163.848  16
 -11   1  -7-245.524 394.353   7
  11   1   7-334.042 371.259   6
  11   1   7-60.0195 125.395  14
  11  -1   7-5.29504 238.574  14
  11   1  -7 10.9119 74.3782  14
  11  -1   7-223.526 200.437   6
  11  -1  -8 1360.41 516.055  14
  11   1  -8 2341.63 724.286   1
 -11   1  -8 1421.11 603.599  12
  11  -1  -8 1221.02 539.898   1
 -11   1  -8 426.006 306.986   3
 -11  -1   8 2519.14 743.272   2
  11   1   8 1510.40 584.122   1
 -11   1   8 2309.79 668.545   2
  11   1  -8 1288.69 435.489  11
 -11  -1   8 1737.46 613.989   5
 -11  -1   8 1703.54 637.973  19
 -11   1   8 2094.21 644.325  19
 -11  -1  -8-480.090 509.434  19
 -11   1   8 1563.50 568.202   5
  11   1   8 2853.55 575.977  18
 -11   1   8 2001.81 583.062   4
  11  -1   8 4928.32 1124.25   8
  11   1  -8 1558.07 547.188  18
  11   1  -8 1691.98 510.602   8
 -11   1  -8-243.430 381.053   4
  11  -1  -8 347.691 196.950  18
 -11  -1  -8 169.981 132.576  17
  11   1   8 2618.84 794.006   8
 -11  -1   8 1614.56 541.633   4
 -11  -1   8 1195.42 520.131  17
 -11   1   8 1024.16 509.671  17
  11  -1   8 3086.17 761.928  16
  11   1   8 3017.90 655.333  16
 -11   1  -8 389.656 372.702   7
  11  -1   8 8695.46 1411.94   6
  11   1   8 3024.47 968.147  14
  11  -1   8 8048.47 1568.44  14
  11   1   8 1267.13 437.927   6
  11   1  -8 1497.08 602.253  14
  11  -1  -9 38.6823 138.202  14
 -11   1  -9 45.7518 251.668   3
  11  -1  -9-51.8342 112.244   1
  11   1  -9 95.2446 236.782  11
 -11  -1   9 70.2385 154.646   5
 -11  -1  -9-175.493 211.544  19
 -11   1  -9 1502.84 932.825  19
 -11   1   9-16.0186 74.8619   5
 -11  -1   9 127.714 175.181  19
 -11   1   9-284.510 405.587  19
  11   1   9-7.26171 92.9464  18
  11   1  -9-7.46636 111.120   1
  11  -1   9 2911.22 1024.90   8
  11   1  -9-86.2783 154.969  18
  11  -1  -9-158.507 330.337  18
 -11  -1   9-106.706 186.008   2
  11   1   9-12.6138 23.4724   8
 -11  -1   9 9.47803 112.550   4
 -11  -1   9-109.906 231.133  17
 -11   1   9-360.828 354.925  17
 -11   1   9-24.3399 46.0619   2
  11  -1   9 176.494 432.328  16
 -11   1   9 48.5836 148.526   4
  11   1  -9-232.489 305.526   8
  11   1   9-119.363 209.905  16
  11  -1   9 1835.69 927.392   6
  11  -1   9 1689.49 979.334  14
  11   1   9-691.071 614.859   6
  11   1   9 22.1125 249.305  14
  11   1  -9-87.5452 177.702  14
  11  -1 -10 637.100 336.977  14
  11   1 -10 375.356 248.542  11
  11  -1 -10 673.881 423.636   1
 -11  -1  10 751.647 423.411   5
  11  -1  10 736.831 443.403   1
 -11  -1 -10 263.880 349.360  19
 -11   1 -10 158.099 150.382  19
 -11   1  10 652.152 376.823   5
 -11  -1  10 712.905 394.358  19
  11   1 -10 421.090 289.389  18
  11   1 -10 792.792 480.583   1
  11  -1 -10-235.862 377.423  18
 -11  -1  10 823.080 444.603   2
  11   1  10 1446.48 583.910   8
  11  -1  10 1503.63 619.129   8
 -11  -1  10 877.885 380.353   4
 -11  -1  10 381.348 370.331  17
 -11   1  10 295.294 137.899  17
  11  -1  10 1587.23 573.658  16
 -11   1  10 1056.78 472.940   2
 -11   1  10 1009.18 428.226   4
  11   1  10 1451.44 511.520  16
  11   1  10-56.9014 525.575   6
  11   1  10 1095.89 545.960  14
  11  -1  10 1767.96 665.414  14
  11  -1  10 1223.44 421.693   6
  11   1 -10 625.395 358.538  14
  11  -2   0 141.538 159.751  14
  11  -2   0 39.5111 120.191   6
 -11  -2   0 450.380 285.201  12
 -11   2   0-40.5115 117.873  12
  11   2   0 351.156 279.880  11
 -11   2   0 166.302 164.339   5
 -11  -2   0 68.2797 315.620  19
 -11   2   0 71.6008 81.1242  19
  11   2   0 780.786 289.743   9
  11   2   0-14.3067 70.9800  18
 -11   2   0 76.6638 70.2310   2
 -11  -2   0 67.5982 196.001  17
  11   2   0 135.030 213.244   8
  11  -2   0 129.049 227.929   1
  11   2   0 116.213 182.476   1
 -11   2   0-31.8224 56.8065   4
  11  -2   0 18.0014 121.647   8
  11   2   0-71.3148 115.302  14
  11  -2   1 144.122 234.021  14
  11  -2  -1 137.416 179.664  14
  11  -2   1 16.1276 30.7857   6
  11  -2  -1 204.103 169.597   6
 -11  -2   1 66.5786 53.6751  12
 -11   2  -1 33.5488 6.19194  12
  11   2  -1 717.047 372.655  11
 -11   2  -1 361.350 338.443   5
 -11   2   1 109.051 196.169   5
 -11  -2  -1 248.915 328.386  19
 -11  -2   1 1.68336 104.796  19
 -11   2  -1 2.25717 213.138  19
 -11   2   1 83.5378 103.025  19
  11   2  -1 302.961 179.119   9
  11   2   1 307.048 243.478  18
 -11   2  -1 323.410 209.323   2
  11   2  -1 212.890 193.953  18
  11  -2   1 141.050 110.935   1
 -11  -2   1-383.753 493.676   4
 -11  -2  -1 146.242 233.864  17
 -11   2   1 137.041 81.6268   2
  11   2   1 350.017 288.044   8
 -11  -2   1 199.675 253.727  17
  11   2   1 213.330 340.863   1
  11   2  -1 227.657 233.656   8
 -11   2  -1 41.9934 28.4661   4
  11  -2   1 214.928 197.059   8
 -11   2   1 90.5943 92.7610   4
  11  -2  -1 3.89211 91.1369   8
  11   2  -1 54.5683 115.542   1
  11  -2  -1 113.357 170.505   1
  11   2   1 169.602 150.016  14
  11   2  -1 194.478 235.801  14
  11  -2  -2 51.6572 150.549  14
  11  -2   2 191.021 161.067   6
  11  -2  -2 103.911 122.330   6
 -11  -2   2 21.1960 75.0202  12
 -11   2  -2-20.4674 60.2242  12
  11   2  -2 440.034 288.026  11
 -11   2  -2-48.2769 42.8671   5
 -11   2   2 102.738 183.975   5
 -11  -2  -2 80.0577 311.830  19
 -11  -2   2-5.04899 193.667  19
  11  -2   2-6.98830 56.8430   1
 -11   2  -2 104.008 100.511   2
 -11   2  -2 8.59451 162.465  19
 -11   2   2-24.5405 218.942  19
  11   2  -2 155.510 152.659   9
  11   2   2 134.564 80.7470  18
  11   2  -2 168.147 170.611  18
 -11  -2   2-98.1130 297.377   4
  11  -2  -2-174.625 302.554  18
  11   2   2 12.8954 116.097   1
 -11  -2  -2 70.6474 218.862  17
  11   2   2 41.3046 225.207   8
 -11  -2   2 213.039 280.377  17
  11   2  -2-34.1957 115.174   8
 -11   2  -2-24.1612 87.4829   4
 -11   2   2 98.1918 121.933   2
  11  -2   2-29.8610 44.1953   8
 -11   2   2 30.0171 96.7693   4
  11  -2  -2 46.7510 101.427   8
  11   2  -2 136.724 111.808   1
  11   2   2-91.0294 118.459  14
  11  -2  -2-14.6916 84.1118   1
  11   2  -2 146.944 197.592  14
  11  -2   2 17.9569 58.8949  14
  11  -2  -3 70.1102 153.326  14
  11  -2   3 162.767 197.291   6
  11  -2  -3 71.0724 109.696   1
  11  -2  -3 162.312 156.420   6
 -11  -2   3 70.9346 85.9162  12
 -11   2  -3 67.5593 101.052  12
 -11  -2   3-48.0120 153.949   5
  11   2  -3 404.854 325.414  11
  11  -2   3 259.182 272.228   1
 -11   2  -3 138.170 233.073   5
 -11   2  -3 262.017 168.585  20
 -11  -2  -3 141.054 281.479  19
 -11   2   3 21.6026 15.1143   5
 -11  -2   3-190.791 233.961  19
 -11   2  -3 101.637 213.275  19
 -11   2   3 11.8094 155.677  19
  11   2  -3-1.89000 128.514   9
  11   2   3 78.3018 59.7028  18
  11   2  -3 170.385 256.364  18
  11   2   3 16.8894 260.319   1
 -11  -2   3-31.5293 145.994   4
  11   2   3 212.673 217.198   8
 -11  -2  -3 120.173 175.974  17
 -11  -2   3-67.9040 137.256  17
 -11   2  -3 46.3731 166.852   4
  11   2  -3 76.3079 154.498   8
  11  -2   3-14.8338 149.413   8
 -11   2   3-13.1088 23.6663   2
 -11   2   3 53.0104 104.978   4
  11  -2  -3-76.0100 120.017   8
  11   2   3 65.5953 85.7793  16
  11   2  -3 273.006 260.010   1
  11   2   3 171.673 265.503  14
 -11   2  -3-90.4053 235.187   3
  11   2  -3 139.094 244.797  14
  11  -2   3 144.745 176.391  14
  11  -2  -4 106.447 207.834  14
  11  -2   4 222.299 147.353   6
  11   2  -4 120.181 91.4621  13
  11  -2  -4 88.9912 100.405   6
  11  -2   4 181.968 164.239   1
  11  -2  -4 38.5373 130.036   1
 -11   2  -4 165.765 223.892  12
 -11  -2   4-115.238 116.042  12
 -11  -2   4 172.205 234.418   5
  11   2  -4 218.007 247.344  11
 -11   2  -4 114.735 195.561   5
 -11   2  -4 173.643 173.523  20
 -11  -2   4 258.527 243.686   2
 -11  -2  -4-101.741 220.712  19
 -11   2   4 32.0057 141.929   5
 -11  -2   4 141.516 167.839  19
 -11   2  -4 273.257 288.217  19
  11   2   4 216.486 205.358   1
 -11   2   4 263.832 253.639  19
  11   2  -4-145.143 164.572   9
  11   2   4 97.8971 172.818  18
  11   2  -4 206.560 149.819  18
 -11  -2   4-202.834 205.506   4
  11   2   4 284.056 282.702   8
 -11  -2  -4 94.1044 256.091  17
 -11   2  -4 104.128 179.435   4
 -11  -2   4 128.755 199.967  17
  11   2  -4 366.122 294.774   8
  11  -2   4 205.118 232.302   8
 -11   2   4 117.510 130.009   2
 -11   2   4-40.2460 158.669   4
  11  -2  -4 6.53254 199.415   8
  11   2   4 126.228 100.145  16
 -11   2  -4 357.226 455.844  15
  11   2   4 153.238 264.519  14
  11   2  -4 222.091 223.530  14
  11   2  -4 292.721 289.085   1
  11  -2   4 113.950 174.283  14
 -11   2  -4-21.3161 76.2824   3
  11  -2  -5 795.574 383.875  14
  11   2  -5 1334.11 602.471   1
 -11   2  -5 15.8557 127.836   3
  11  -2   5 2002.17 588.084   6
  11   2  -5 1325.06 373.256  13
  11  -2   5 2111.60 618.369   1
  11  -2  -5 967.041 320.348   6
 -11   2  -5 377.950 305.186  12
 -11  -2   5 490.578 244.398   5
  11   2  -5 2052.37 520.533  11
 -11   2  -5 1025.16 499.144   5
  11  -2  -5 747.717 385.342   1
 -11   2  -5 389.387 177.965  20
  11   2   5 1756.60 756.567   1
 -11  -2  -5-6.82052 84.4302  19
 -11  -2   5 889.183 463.577   2
 -11   2   5 993.445 420.946   5
 -11  -2   5 711.355 422.600  19
 -11   2  -5 1104.00 520.421  19
 -11   2   5 1395.27 548.840  19
  11   2  -5 188.751 143.886   9
  11   2   5 1574.47 508.697  18
  11   2  -5 1431.88 525.831  18
 -11  -2   5 475.149 321.213   4
  11   2   5 1653.67 656.277   8
 -11  -2  -5-114.170 169.918  17
 -11   2  -5 819.110 452.780   4
 -11  -2   5 578.819 406.144  17
  11  -2   5 1683.14 575.325   8
  11   2  -5 1431.79 482.163   8
  11   2   5 1448.17 386.121  16
 -11   2   5 1148.95 446.329   4
  11  -2  -5 90.3964 197.773   8
 -11   2   5 1262.61 414.134   2
 -11   2  -5 1555.40 705.588   7
 -11   2  -5 1054.33 580.375  15
  11   2   5 1295.65 631.294  14
  11   2  -5 1341.85 565.317  14
  11  -2   5 1497.48 562.108  14
  11  -2  -6 108.085 179.841  14
  11  -2   6-79.0732 154.468   6
 -11   2  -6-92.1453 87.9942   3
  11   2  -6 510.371 454.075   1
  11   2  -6 9.54585 57.3563  13
  11  -2  -6 65.2880 72.7915   6
 -11   2  -6-74.0339 154.608  12
 -11   2  -6-89.9307 226.105   5
 -11  -2   6 136.596 221.421   5
  11   2  -6 726.327 523.250  11
  11   2   6 54.0072 312.265   1
 -11   2  -6-424.840 304.396  20
 -11  -2  -6 227.294 415.009  19
 -11   2  -6-189.389 242.193  19
 -11  -2   6-78.1696 192.532  19
 -11   2   6 108.701 170.969   5
 -11  -2   6 106.072 230.922   2
  11  -2  -6 73.2465 61.9638   1
 -11   2   6 80.1043 48.2341  19
  11   2   6 75.8115 163.636  18
  11   2  -6 775.859 284.465   9
  11   2  -6 110.132 287.489  18
 -11  -2   6-55.7466 50.1780   4
  11   2   6 216.618 231.245   8
 -11  -2  -6-268.786 246.039  17
 -11   2  -6 87.1426 127.835   4
 -11  -2   6 300.267 406.922  17
  11  -2   6 34.2582 106.005   8
  11   2  -6 184.563 188.907   8
 -11   2   6 79.9322 149.755   4
  11   2   6 179.593 166.792  16
 -11   2   6 30.6427 60.3701   2
 -11   2  -6 434.150 408.476   7
 -11   2  -6 62.6334 183.096  15
  11   2   6-63.3601 252.283  14
  11   2  -6 339.279 330.312  14
  11  -2   6-131.589 166.247   1
  11  -2   6 18.5034 89.5438  14
  11  -2  -7 497.554 358.159  14
  11   2  -7 1902.81 447.280  13
 -11   2  -7 376.920 521.221   3
  11   2  -7 1478.85 631.455   1
 -11   2  -7 1700.98 820.351  12
  11   2   7 869.887 352.116   1
 -11   2  -7 948.154 591.445   5
  11   2  -7 1952.95 565.614  11
 -11  -2   7 611.610 425.412   5
 -11   2  -7 597.801 482.084  20
 -11   2  -7 3339.38 970.744  19
 -11  -2  -7-8.09819 78.9900  19
 -11  -2   7 802.978 425.173  19
 -11   2   7 1441.10 541.295   5
 -11  -2   7 972.928 489.675   2
 -11   2   7 1023.77 386.368  19
  11   2   7 1626.22 520.727  18
  11   2  -7-361.137 366.159   9
  11   2  -7 1275.86 512.377  18
  11  -2   7 2415.75 786.254   8
  11  -2  -7 687.076 401.932   1
 -11  -2  -7 333.409 294.244  17
 -11   2  -7 734.442 445.030   4
  11   2   7 1659.97 700.028   8
 -11  -2   7 829.363 380.694   4
 -11  -2   7 609.219 359.172  17
  11   2  -7 1610.86 470.840   8
  11   2   7 1705.66 514.042  16
 -11   2   7 1003.95 442.067   4
 -11   2  -7 792.531 537.512   7
 -11   2   7 1297.35 445.598   2
 -11   2  -7 722.205 535.237  15
  11   2   7 1118.25 572.852  14
  11   2  -7 898.429 419.290  14
  11  -2  -8 59.3160 147.952  14
 -11   2  -8 1503.74 622.819   3
  11   2  -8 116.722 178.164  13
  11   2  -8 266.141 296.186   1
  11   2  -8 338.898 254.220  11
 -11  -2   8 247.260 273.924   5
 -11  -2  -8 652.542 494.278  19
 -11  -2   8 45.5694 70.4016  19
 -11   2   8 71.7647 129.814   5
 -11  -2   8 285.402 292.012   2
  11   2   8 36.9970 134.124  18
  11   2  -8-941.975 529.866   9
  11   2  -8 204.617 263.922  18
 -11   2  -8 1535.27 734.579   4
 -11  -2  -8 106.255 162.894  17
  11   2   8-72.0353 66.7972   8
 -11  -2   8 127.825 241.710   4
  11  -2  -8 17.9836 145.676   1
 -11  -2   8 199.891 266.452  17
  11  -2   8 1540.32 599.492  16
  11   2  -8-8.11633 125.910   8
 -11   2   8-2.10986 71.4120   4
  11   2   8 102.675 130.565  16
 -11   2  -8 1619.77 836.110   7
 -11   2   8 157.934 163.911   2
 -11   2  -8 1267.33 760.934  15
  11   2   8-570.432 664.532  14
  11   2  -8 131.773 191.264  14
  11  -2  -9 268.598 224.367  14
  11  -2   9 2280.37 898.312   1
  11   2  -9 936.908 334.862  13
 -11   2  -9 62.9636 204.989   3
 -11   2  -9 35.6364 394.191  12
  11   2  -9 664.259 411.578   1
  11   2  -9 677.258 363.886  11
 -11  -2   9 741.760 416.857   5
 -11  -2  -9 226.500 411.260  19
 -11   2  -9 576.204 585.593  19
 -11  -2   9 401.945 277.144  19
 -11   2   9 617.534 366.634   5
  11   2   9 296.135 115.060  18
 -11  -2   9 616.231 409.803   2
  11  -2   9 2109.03 906.788   8
  11   2  -9 442.588 280.864  18
 -11   2  -9 31.3233 106.807   4
 -11  -2  -9 255.801 383.943  17
  11   2   9 704.782 486.995   8
 -11  -2   9 416.896 304.531   4
 -11  -2   9 355.750 304.782  17
  11  -2   9 691.430 589.140  16
  11   2  -9 489.170 284.637   8
  11  -2  -9 229.487 262.861   1
 -11   2   9 676.918 357.972   4
 -11   2  -9 327.175 523.885   7
  11   2   9 548.950 295.314  16
 -11   2  -9 267.980 389.327  15
  11  -2   9 2213.22 787.482   6
 -11   2   9 627.482 339.504   2
  11   2   9-125.374 658.951  14
  11   2  -9 365.304 321.853  14
  11  -2   9 1854.52 750.121  14
  11  -2  10 62.4634 193.995   6
  11  -2 -10 176.601 267.308  14
  11   2 -10 121.303 230.591  13
 -11   2 -10 129.426 272.371  12
 -11   2 -10-14.1181 49.0880   3
  11   2 -10-108.365 193.940   1
  11   2 -10 237.288 284.996  11
 -11  -2  10-55.1381 198.399   5
 -11  -2 -10 428.616 475.068  19
 -11   2 -10 63.7215 180.242  19
 -11  -2  10 54.0019 65.1797  19
 -11   2  10 26.7243 217.828   5
  11  -2  10-282.428 228.415   1
 -11  -2  10 73.1378 209.450   2
  11   2 -10-36.1510 98.0320  18
 -11   2 -10-207.098 434.247   4
  11   2  10-11.5912 143.676   8
 -11  -2  10-77.8176 125.857   4
  11  -2  10 171.006 271.008   8
 -11  -2  10 31.1545 130.645  17
  11  -2  10-68.9117 155.150  16
  11   2 -10-148.927 268.023   8
 -11   2 -10-103.227 249.046   7
  11   2  10 67.8343 181.304  16
 -11   2 -10 58.0781 226.274  15
  11  -2 -10 292.741 323.088   1
  11  -2  10 249.329 322.774  14
  11   2 -10-34.9534 92.2050  14
  11  -3   0 1224.37 500.925  14
  11  -3   0 1254.27 526.305   1
 -11   3   0 1573.85 378.574   2
 -11  -3   0-193.784 344.473  19
 -11   3   0 1319.20 514.643   5
 -11   3   0 1763.84 626.678  19
  11   3   0 1931.81 616.494  18
  11   3   0 2221.70 804.970   1
  11   3   0 2097.72 698.372   8
 -11  -3   0-210.330 244.135  17
 -11   3   0 1564.56 548.573   4
  11  -3   0 1267.14 522.690   8
  11  -3   0 1814.60 541.771   6
  11   3   0 1232.28 586.217  14
  11  -3   1 62.5118 108.289  14
  11  -3  -1 54.5886 151.135  14
  11  -3   1 146.909 165.647   6
  11  -3  -1-8.71564 75.6685   6
  11  -3  -1-14.1124 61.7029   1
 -11   3  -1-121.531 223.604  12
 -11   3  -1 149.798 210.530   5
 -11  -3  -1-56.0354 197.309  19
 -11  -3   1 360.603 360.217  19
 -11   3   1-19.3453 40.1101   5
 -11   3  -1-53.0998 179.821  19
 -11   3   1-7.82977 9.66191  19
  11   3   1 58.5139 170.614   1
  11   3   1 2.42470 191.028  18
  11   3  -1 105.141 216.690  18
  11   3   1-92.3896 121.981   8
  11   3  -1 225.301 288.700   1
 -11  -3  -1 299.269 290.848  17
 -11  -3   1-185.796 261.905  17
  11   3  -1 102.145 159.388   8
 -11   3  -1 140.025 117.957   2
 -11   3  -1 151.094 196.356   4
  11  -3   1 116.457 243.678   8
  11  -3  -1-38.2476 142.484   8
 -11   3   1 121.755 217.842   4
 -11   3   1 79.4957 65.1403   2
  11  -3   1 6.56167 68.7202   1
  11   3   1 38.1916 205.005  14
  11   3  -1-64.3825 232.742  14
  11  -3   2 586.307 393.170  14
  11  -3  -2 377.041 267.601  14
  11  -3   2 544.325 312.128   6
  11  -3  -2 365.597 221.426   6
 -11  -3   2 324.427 209.102  12
 -11   3  -2-10.4224 132.539  12
 -11   3  -2 573.025 335.747   5
 -11  -3  -2 202.346 265.785  19
  11  -3  -2 139.162 169.124   1
 -11  -3   2 69.7221 196.320  19
 -11   3   2 304.725 242.971   5
 -11   3  -2 379.188 245.785  19
  11   3   2 572.331 469.734   1
 -11   3   2 465.867 317.552  19
  11   3   2 404.321 315.840  18
  11   3  -2 527.487 315.652  18
 -11   3  -2 498.386 179.996   2
  11   3   2 460.086 294.954   8
 -11  -3  -2-1.76298 153.236  17
 -11  -3   2 106.687 296.942  17
  11   3  -2 728.070 405.861   8
  11   3  -2 735.670 431.435   1
 -11   3  -2 168.362 171.648   4
  11  -3   2 560.391 318.568   1
  11  -3   2 483.300 306.683   8
  11  -3  -2 155.482 161.958   8
 -11   3   2 448.010 308.862   4
 -11   3   2 326.215 178.876   2
  11   3   2 87.1715 279.384  14
  11   3  -2 268.379 221.348  14
  11  -3   3 42.2910 145.313  14
  11  -3  -3 39.0335 104.523  14
  11  -3   3 274.327 230.058   6
  11  -3  -3 67.6025 162.635   6
 -11  -3   3 158.374 128.026  12
 -11   3  -3 79.4137 185.153  12
  11   3  -3 1069.80 501.578  11
 -11   3  -3 62.5027 110.489   5
 -11  -3  -3-23.5355 141.397  19
  11   3   3 295.252 341.512   1
 -11  -3   3 42.2663 142.476  19
 -11   3   3 124.004 168.542   5
 -11   3  -3 211.155 249.032  19
 -11   3   3 148.058 220.344  19
  11   3   3 372.580 280.701  18
  11   3  -3 149.955 182.986  18
  11  -3  -3 45.2031 38.2326   1
  11  -3   3 358.056 238.874   1
  11   3   3 89.3979 167.508   8
 -11  -3  -3-35.3687 77.3796  17
 -11  -3   3 335.467 299.924  17
  11   3  -3 366.279 282.839   8
 -11   3  -3 262.028 202.400   4
  11   3  -3 248.861 292.442   1
  11  -3   3 271.587 193.606   8
  11  -3  -3-133.358 324.333   8
 -11   3   3 236.806 246.954   4
 -11   3   3 170.270 133.150   2
  11   3   3-143.962 352.424  14
  11   3  -3 168.134 238.955  14
  11  -3   4 356.970 303.280  14
  11  -3  -4 59.9821 155.553  14
  11  -3   4 197.492 225.944   6
  11  -3  -4 80.2745 127.496   6
 -11   3  -4-327.973 248.267  12
  11   3  -4-27.5309 92.9770  11
  11   3   4-79.0500 393.434   1
 -11   3  -4 136.856 197.014   5
 -11  -3  -4 359.584 431.410  19
 -11  -3   4 74.2966 87.4216  19
 -11   3  -4-91.7726 188.181  19
 -11   3   4 182.725 171.305   5
  11  -3   4 79.3731 83.4231   1
 -11   3   4 32.1506 67.5959  19
  11   3   4 165.619 255.928  18
  11   3  -4 59.2964 120.073  18
  11   3   4 179.350 323.268   8
 -11  -3  -4-128.869 104.518  17
 -11  -3   4 164.116 302.372  17
  11   3  -4 187.570 151.463   8
 -11   3  -4 207.536 242.805   4
  11  -3  -4-64.6139 123.499   1
  11  -3   4 186.003 130.731   8
  11   3  -4-46.5636 210.920   1
 -11   3   4 53.2307 89.2370   4
  11   3   4-62.5438 120.331  16
 -11   3   4 18.2268 115.033   2
  11   3   4-264.075 494.027  14
  11   3  -4-43.9837 81.5465  14
 -11   3  -4-147.132 317.310   3
  11  -3  -5 162.637 164.598  14
  11  -3   5 559.507 312.802   6
  11   3  -5 189.217 128.510  13
 -11   3  -5 3.20306 77.7115  12
  11   3   5-142.274 534.208   1
  11   3  -5 339.654 182.909  11
 -11   3  -5 475.198 263.979  20
  11  -3   5 270.472 227.443   1
 -11   3  -5 181.365 225.320   5
 -11  -3  -5 261.776 502.193  19
  11   3  -5 75.3009 163.495  10
 -11  -3   5 276.494 285.888  19
 -11   3  -5 77.2256 35.2511  19
 -11   3   5 189.905 185.464   5
  11   3  -5 895.316 413.053   9
 -11   3   5 91.0162 190.565  19
  11   3   5 190.260 226.161  18
  11   3  -5 154.659 74.3542  18
  11   3   5 556.773 397.725   8
 -11  -3  -5 61.2225 250.220  17
 -11  -3   5 19.1422 84.2044  17
 -11   3  -5 264.211 241.835   4
  11   3  -5 485.602 320.320   8
  11  -3   5 307.009 239.886   8
 -11   3   5 423.720 267.600   4
  11   3  -5 321.819 313.552   1
  11  -3  -5 36.3304 122.286   1
  11   3   5-92.5251 526.115  14
 -11   3   5 402.508 268.450   2
  11   3  -5 36.4408 236.274  14
 -11   3  -5-10.6068 194.213   3
  11  -3   5 206.107 119.527  14
 -11   3  -6 12.5586 31.1421   3
  11  -3  -6 143.054 227.715  14
  11  -3   6 923.157 468.304   6
  11  -3  -6 281.435 297.204   1
  11   3  -6 721.169 328.098  13
  11  -3   6 1417.54 610.311   1
 -11   3  -6 608.562 439.314  12
 -11  -3   6 150.658 213.863   5
  11   3  -6 1057.35 440.438  11
 -11   3  -6 269.101 221.842   5
 -11   3  -6 172.776 137.551  20
 -11  -3   6 127.804 121.634   2
 -11  -3  -6 84.6019 150.939  19
  11   3  -6 97.7231 230.684  10
 -11  -3   6 420.745 365.008  19
 -11   3  -6 376.186 346.582  19
 -11   3   6 432.308 298.478   5
  11   3  -6 1639.79 529.762   9
  11   3   6 397.174 278.155  18
  11   3  -6 607.987 388.649  18
 -11  -3   6-378.923 502.600   4
  11   3   6 423.258 375.788   8
 -11  -3  -6-26.5101 239.977  17
 -11  -3   6 103.359 120.921  17
 -11   3  -6 174.432 170.212   4
  11   3  -6 542.843 305.515   8
  11  -3   6 410.756 298.146   8
 -11   3   6 370.393 274.940   4
  11   3  -6 822.219 488.167   1
  11   3  -6 628.474 401.246  14
  11  -3   6 923.065 507.299  14
 -11   3  -7 464.344 361.270   3
  11  -3   7 1990.19 703.009   6
  11   3  -7 523.567 257.006  13
 -11  -3   7 227.346 267.020   5
  11   3  -7 575.619 365.968  11
 -11   3  -7 665.616 388.561   5
 -11   3  -7 206.438 160.039  20
 -11  -3  -7 562.350 506.994  19
 -11  -3   7 290.345 263.841   2
  11   3  -7 985.207 373.075  10
 -11  -3   7 174.996 246.913  19
 -11   3  -7 1769.30 726.679  19
  11   3  -7 387.852 464.741   9
  11   3   7-162.396 492.732  18
  11   3  -7 86.0416 175.115  18
  11  -3   7 2261.96 900.032   8
 -11  -3   7-342.773 447.338   4
  11   3   7 254.457 383.029   8
 -11  -3  -7 214.145 276.467  17
 -11   3  -7 367.029 287.390   4
 -11  -3   7 161.829 187.257  17
  11   3  -7 454.463 270.012   8
 -11   3  -7-119.703 488.492  15
  11  -3   7 2065.69 784.811  14
  11   3  -7 118.425 237.210  14
  11   3  -7 263.232 323.841   1
  11  -3   8 13.8073 172.869   6
 -11   3  -8-66.6219 89.5143   3
  11   3  -8 201.068 86.7285  13
 -11   3  -8 468.986 528.042  12
 -11  -3   8 113.744 216.054   5
 -11   3  -8-114.541 116.330   5
  11   3  -8 1048.77 477.250  11
 -11   3  -8 326.255 302.013  20
 -11  -3  -8-25.6380 159.297  19
 -11  -3   8-21.2359 69.1642   2
 -11  -3   8-20.3634 186.623  19
 -11   3  -8 209.262 322.855  19
  11   3  -8-328.681 252.628  10
  11   3  -8 768.979 389.887   9
  11   3  -8 179.661 227.741  18
 -11  -3   8-120.396 305.722   4
  11   3   8 449.374 433.638   8
 -11   3  -8-104.887 207.829   4
 -11  -3   8-296.287 276.904  17
  11  -3   8 725.400 491.693   8
  11   3  -8 320.592 237.300   8
 -11   3  -8 240.902 62.9144   7
 -11   3  -8 90.9132 307.239  15
  11  -3   8 964.124 551.632   1
  11   3  -8-58.4905 75.4534  14
  11  -3   8 358.784 379.074  14
  11   3  -8 146.232 142.706   1
  11   3  -9-119.115 216.486   1
  11  -3   9-0.51834 159.066   6
 -11   3  -9 27.2747 140.600   3
  11   3  -9-20.1631 20.0327  13
 -11   3  -9-142.660 252.329  12
 -11   3  -9-13.4715 112.001   5
 -11  -3   9 35.6551 30.9689   5
  11   3  -9 160.229 170.807  11
 -11   3  -9 174.223 237.980  20
 -11  -3  -9-253.766 423.632  19
 -11   3  -9 154.509 242.147  19
 -11  -3   9 78.9332 186.248   2
 -11  -3   9 151.437 234.668  19
  11   3  -9-56.9718 16.2250   9
  11   3  -9 131.319 270.323  18
 -11  -3   9-14.6960 233.148   4
  11   3   9 176.481 249.719   8
 -11   3  -9-2.02959 149.896   4
 -11  -3   9-129.101 235.734  17
  11  -3   9-25.5031 8.31411   8
  11   3  -9-120.354 205.280   8
  11  -3   9 219.192 248.074   1
 -11   3  -9 455.280 541.114   7
 -11   3  -9-17.2255 208.435  15
  11   3  -9 86.0804 185.835  14
  11  -3   9 164.375 223.138  14
  11  -4   0 75.8176 56.8460  14
  11  -4   0 135.962 240.951   6
 -11  -4   0 133.790 342.767  19
  11   4   0 123.344 211.148   1
 -11   4   0 231.228 250.162   5
 -11   4   0 181.431 182.810  19
  11   4   0 339.202 308.286  18
  11  -4   0 242.455 218.854   1
  11   4   0 198.296 301.917   8
 -11  -4   0 464.781 369.975  17
  11  -4   0 7.53592 162.758   8
 -11   4   0 195.329 219.503   4
  11   4   0-116.014 572.580  14
 -11   4   0 190.663 137.850   2
  11  -4   1 1094.76 468.185  14
  11  -4  -1 691.515 366.673  14
  11  -4   1 1487.13 513.133   6
  11  -4  -1 961.198 434.692   6
 -11   4   1 1692.45 563.332   5
 -11   4  -1 1527.81 347.011   2
 -11   4   1 1417.48 375.874   2
  11   4   1 2403.17 910.595   1
 -11   4   1 1714.03 611.037  19
  11  -4   1 1179.29 493.464   1
 -11  -4  -1 28.8617 179.397  19
 -11  -4   1 217.724 301.314  19
 -11   4  -1 1163.77 441.232   5
 -11   4  -1 1615.53 561.294  19
  11   4  -1 1797.76 752.330   1
  11   4   1 2009.90 737.364  18
  11   4  -1 1844.20 641.853  18
 -11   4   1 1734.71 571.711   4
  11   4   1 1676.94 675.863   8
 -11  -4  -1-160.259 245.696  17
  11   4  -1 1910.20 684.825   8
 -11  -4   1-93.1300 200.690  17
  11  -4   1 861.395 424.038   8
 -11   4  -1 1408.89 508.997   4
  11  -4  -1 801.490 385.084   1
  11   4  -1 594.064 262.122  14
  11  -4   2 132.109 187.376  14
  11  -4  -2 108.870 135.627   1
  11  -4  -2 124.356 221.923  14
  11  -4   2 167.219 166.441   6
  11  -4   2 198.818 220.668   1
  11  -4  -2 16.2363 22.9851   6
  11   4   2 43.7397 117.978   1
 -11  -4  -2-45.0367 208.730  19
 -11  -4   2 24.6187 175.410  19
 -11   4  -2-44.7122 195.434   5
 -11   4   2 250.560 251.371   5
 -11   4  -2 12.7645 20.8661  19
 -11   4   2 49.5363 111.421  19
  11   4   2 587.531 384.039  18
  11   4  -2 185.302 180.188  18
  11   4  -2 90.5725 119.835   1
  11   4   2-79.8609 139.576   8
 -11  -4  -2 181.780 293.202  17
  11   4  -2 222.448 248.288   8
 -11  -4   2-353.587 320.671  17
  11  -4   2 207.725 266.502   8
 -11   4  -2 192.680 200.868   4
 -11   4   2 177.248 228.312   4
  11   4  -2-735.837 469.800  14
  11  -4   3 274.989 244.480  14
  11  -4  -3 224.638 252.854  14
  11  -4   3 318.537 248.045   6
  11  -4  -3 72.2673 136.756   1
  11   4   3-170.433 549.518   1
 -11   4  -3-106.521 169.368  12
 -11  -4  -3 169.819 340.833  19
 -11   4  -3 330.027 273.008   5
 -11  -4   3-336.072 363.983  19
 -11   4  -3 286.662 247.315  19
 -11   4   3 520.794 353.450   5
 -11   4   3 164.683 246.610  19
  11   4   3 351.480 297.045  18
  11   4  -3 319.288 324.623  18
  11   4  -3 430.425 391.316   1
  11   4   3 256.031 258.095   8
 -11  -4  -3-103.005 128.896  17
 -11  -4   3 53.8988 74.5780  17
  11   4  -3 370.017 146.506   8
 -11   4  -3 445.011 293.939   4
  11  -4   3 187.341 131.272   8
 -11   4   3 184.019 208.274   4
  11   4  -3-195.616 429.866  14
  11  -4   3 224.742 203.390   1
  11  -4   4 387.469 276.888  14
  11  -4   4 672.095 332.155   6
 -11   4  -4 329.911 273.553  12
 -11  -4  -4 88.4094 184.461  19
 -11   4  -4 454.681 308.913   5
 -11  -4   4 166.956 336.162  19
 -11   4  -4 431.924 291.682  19
  11   4   4 240.994 247.788  18
  11   4  -4 784.918 442.880  18
  11   4   4 462.514 365.704   8
 -11  -4  -4 186.469 328.070  17
  11   4  -4 814.859 491.598   1
 -11  -4   4 460.639 456.469  17
  11   4  -4 842.879 472.777   8
 -11   4  -4 396.139 291.135   4
  11  -4   4 290.741 261.947   8
  11  -4   4 228.256 134.492   1
  11   4  -4-118.006 260.887  14
  11  -4   5 27.5980 25.6507  14
  11   4  -5-238.358 344.091  13
  11  -4   5-10.3036 146.220   6
 -11   4  -5 72.9874 124.126  12
 -11   4  -5 161.777 170.794   5
 -11  -4  -5 8.05385 126.710  19
 -11  -4   5 54.4083 279.064  19
 -11   4  -5 38.4719 80.0706  19
  11   4   5-489.118 594.183  18
  11   4  -5 168.222 230.821  18
  11   4   5 196.061 58.5276   8
 -11  -4  -5 287.373 299.825  17
  11  -4   5-73.9605 105.694   1
 -11  -4   5 164.941 215.729  17
  11   4  -5 245.342 204.676   8
  11   4  -5 378.992 426.093   1
 -11   4  -5 165.046 119.150   4
  11  -4   5 97.8645 120.256   8
  11   4  -5-121.720 299.905  14
  11  -4   6 377.165 275.419  14
  11   4  -6 282.574 198.873  13
  11  -4   6 398.001 333.621   6
  11   4  -6 1016.70 523.965  11
 -11   4  -6 258.680 172.958   5
  11   4  -6 1730.07 555.725  10
 -11  -4  -6-585.714 705.181  19
 -11  -4   6 305.432 346.543  19
 -11   4  -6 422.725 331.289  19
  11  -4   6 260.062 208.715   1
  11   4  -6 885.114 460.583  18
  11   4   6 705.505 614.537   8
 -11  -4   6-101.284 318.639  17
  11   4  -6 639.219 287.092   8
 -11   4  -6 358.727 298.504   4
  11   4  -6 870.415 488.524   1
  11  -4   6 478.431 314.941   8
  11   4  -6 209.135 205.653  14
 -11   4  -6 46.5321 70.3246   3
  11  -4   7 32.9007 128.395  14
 -11   4  -7-67.9181 166.043   3
  11  -4   7-133.925 230.995   6
  11   4  -7 13.1405 56.2482  13
 -11   4  -7 19.5798 18.9215  12
  11   4  -7-49.4160 72.6739  11
  11  -4   7-89.1816 142.809   1
 -11   4  -7 201.818 274.466  20
 -11   4  -7-121.211 217.868   5
  11   4  -7 200.394 236.414  10
 -11  -4   7 25.9614 67.0481  19
 -11   4  -7 53.4832 134.605  19
  11   4  -7 168.383 212.648  18
 -11  -4   7-149.806 302.222  17
 -11   4  -7-73.9837 164.477   4
  11   4  -7 13.4751 155.006   8
  11  -4   7 75.7984 159.100   8
  11   4  -7 258.945 320.251   1
  11   4  -7-110.073 243.615  14
 -11   4  -8-33.4383 219.999   3
  11  -4   8 623.910 350.750   6
  11   4  -8 450.217 242.317  13
  11  -4   8 474.164 272.366   1
 -11   4  -8 169.998 161.421  12
  11   4  -8 797.488 479.471  11
 -11   4  -8 278.789 291.434   5
 -11   4  -8 419.501 302.693  20
  11   4  -8 1107.03 490.672  10
 -11  -4   8 74.2753 118.719  19
 -11   4  -8 384.002 308.545  19
  11   4  -8 415.811 265.770  18
 -11  -4   8 320.098 189.868  17
 -11   4  -8 204.900 189.781   4
  11   4  -8 399.676 229.396   8
  11  -4   8 291.625 245.369   8
  11   4  -8 396.585 387.370   1
  11   4  -8 117.566 213.739  14
  11  -4   8 30.9657 136.706  14
  11  -5   0 495.998 349.647  14
  11  -5   0 351.611 246.330   1
  11   5   0 468.327 101.771   1
 -11  -5   0 118.849 216.597  19
 -11   5   0 1022.04 490.728   5
 -11   5   0 1086.45 550.330  19
  11   5   0 852.592 499.363  18
  11   5   0 715.878 429.985   8
 -11  -5   0 380.587 441.424  17
 -11   5   0 1138.81 518.803   4
  11  -5   1 228.604 244.127  14
  11  -5   1 100.724 139.618   6
  11   5   1-217.944 723.371   1
  11   5  -1 215.727 78.2669   1
 -11  -5  -1-270.749 399.169  19
 -11  -5   1 339.430 412.360  19
 -11   5  -1 750.634 443.208   5
 -11   5  -1 1198.58 610.233  19
  11   5   1 324.731 298.976  18
  11   5  -1 244.556 359.332  18
  11   5   1 183.378 119.024   8
  11   5  -1 367.033 317.685   8
 -11  -5  -1 354.476 401.038  17
 -11  -5   1-189.445 384.186  17
  11  -5   1-128.003 372.852   8
 -11   5  -1 577.415 425.656   4
  11  -5   1 241.831 209.468   1
  11  -5   2 452.297 315.642  14
  11  -5   2 692.786 388.008   6
 -11  -5  -2-70.6247 339.672  19
 -11  -5   2-34.3305 242.310  19
  11   5  -2 1287.65 693.781   1
 -11   5  -2 1182.48 507.762   5
 -11   5  -2 1113.55 473.873  19
  11   5   2 735.636 455.493  18
  11   5  -2 1158.54 546.020  18
  11   5   2 690.698 559.480   8
 -11  -5  -2 430.178 526.886  17
  11   5  -2 1308.85 557.268   8
 -11  -5   2-233.857 344.457  17
  11  -5   2 701.502 366.495   1
  11  -5   2 222.358 197.556   8
 -11   5  -2 909.505 439.259   4
  11  -5   3 503.961 343.886  14
  11  -5   3 342.013 232.916   6
 -11  -5  -3-118.241 621.640  19
 -11  -5   3 63.5961 213.977  19
  11   5  -3 434.012 218.776   1
 -11   5  -3 464.135 276.991   5
  11  -5   3 286.719 256.092   1
 -11   5  -3 381.329 306.967  19
  11   5  -3 494.734 377.377  18
  11   5   3 398.337 364.066   8
  11   5  -3 366.986 153.166   8
 -11  -5   3 48.4923 209.976  17
  11  -5   3 190.366 196.287   8
 -11   5  -3 341.906 291.038   4
  11  -5   4-119.883 166.974  14
  11  -5   4 128.537 146.629   6
  11  -5   4-153.721 188.014   1
 -11   5  -4-385.420 288.866  12
 -11  -5   4-116.716 279.941  19
 -11   5  -4-250.472 269.892   5
 -11   5  -4-75.5626 149.924  19
  11   5  -4-274.076 279.334   1
  11   5  -4-94.6864 158.379  18
  11   5  -4-7.97097 113.268   8
 -11  -5   4 15.9980 211.903  17
 -11   5  -4-35.2092 83.9592   4
  11  -5   4-19.0499 47.1102   8
  11  -5   5 459.589 315.974  14
  11  -5   5 197.733 186.972   1
  11  -5   5 314.610 295.874   6
 -11   5  -5 264.322 248.471  12
 -11  -5   5 151.626 286.630  19
 -11   5  -5 608.034 373.527   5
 -11   5  -5 579.121 325.927  19
  11   5  -5 1047.21 603.161  18
  11   5  -5 574.176 452.018   1
 -11  -5   5 51.4493 239.892  17
  11   5  -5 577.022 360.481   8
 -11   5  -5 636.139 367.318   4
  11  -5   5 341.242 191.857   8
  11  -5   6-44.9058 138.952  14
  11  -5   6 145.816 242.681   6
 -11   5  -6 66.1577 176.174  12
 -11   5  -6 80.5868 195.500   5
 -11  -5   6 363.398 339.262  19
 -11   5  -6-52.9002 98.9147  19
  11   5  -6 280.821 248.102  18
  11   5  -6-126.783 164.929   1
 -11  -5   6 191.856 398.309  17
  11   5  -6 162.533 140.019   8
 -11   5  -6 56.0801 27.4142   4
  11  -5   6 21.1582 131.868   8
  11  -5   6-33.0330 126.195   1
 -11  -6   0-590.892 687.541  19
  11   6   0 1012.04 613.225  18
  11   6   0 870.988 589.226   8
 -11  -6   0 779.451 768.207  17
 -11  -6   1-41.4604 421.349  19
  11   6  -1 753.036 594.283  18
  11   6  -1 274.772 319.228   8
 -11  -6   1 507.163 715.960  17
  11   6  -2-234.969 547.046   1
 -11  -6   2-212.204 351.726  19
  11   6  -2 249.033 347.087  18
  11   6  -2 662.384 496.620   8
 -11  -6   2 457.506 549.626  17
  11  -6   3-26.7770 26.6069  14
  11  -6   3 140.565 203.026   1
  11  -6   3 162.840 244.102   6
  11   6  -3-351.695 610.833   1
 -11  -6   3-252.907 213.613  19
 -11   6  -3 201.890 231.751   5
 -11   6  -3-562.412 350.806  19
  11   6  -3 147.392 332.193  18
  11   6  -3-9.53247 146.543   8
 -11  -6   3 86.9499 95.9978  17
 -11   6  -3-53.0998 79.8910   4
 -11  -6   4 100.158 175.928  17
  12   0   0 512.336 213.348   6
  12   0   0 901.715 493.627   1
 -12   0   0-73.5674 203.097  12
 -12   0   0 211.102 242.526   5
  12   0   0 491.164 203.612  11
 -12   0   0 864.966 457.859  19
  12   0   0 429.348 245.036  18
 -12   0   0 379.218 297.675   4
 -12   0   0 437.532 292.294  17
  12   0   0 407.439 328.708   8
 -12   0   0 212.290 41.0261   7
 -12   0   0 13.8737 290.031  15
  12   0   0 749.533 536.209  14
  12   0  -1-140.570 150.440   6
  12   0  -1-29.0484 70.1193   1
 -12   0  -1 512.223 332.743  12
 -12   0   1 138.810 88.0838  12
 -12   0  -1 81.6123 369.552   5
 -12   0   1 54.1084 240.027   5
  12   0   1 840.597 324.305  11
  12   0  -1 109.088 99.9226  11
 -12   0   1 83.0129 117.089   2
 -12   0  -1 590.021 504.267  19
 -12   0   1 353.758 340.918  19
  12   0   1 205.973 279.837  18
  12   0  -1 16.8524 102.963  18
 -12   0  -1 69.2638 215.150   4
 -12   0   1-39.0340 51.5877   4
 -12   0  -1 178.346 148.389  17
 -12   0   1 188.180 129.393  17
  12   0   1-68.8524 192.064   8
  12   0  -1 17.3824 61.2503   8
 -12   0  -1-251.098 362.970   7
 -12   0   1-86.7930 119.702   7
 -12   0  -1-147.741 348.171  15
 -12   0   1-79.1746 181.744  15
  12   0   1 221.585 377.450  14
  12   0  -1-36.9997 147.154  14
  12   0   1 160.408 227.225   1
  12   0   1 230.612 273.986   6
  12   0  -2 901.372 338.013   6
 -12   0  -2 608.477 276.270  12
  12   0  -2 742.637 390.043   1
 -12   0   2-19.9200 159.766  12
 -12   0  -2 437.267 378.349   5
 -12   0   2 463.990 385.547   5
  12   0   2 1196.76 343.165  11
  12   0  -2 456.631 211.288  11
 -12   0   2 793.070 408.482   2
 -12   0  -2 469.571 495.051  19
 -12   0   2 831.934 477.650  19
  12   0   2 630.462 320.668  18
  12   0  -2 599.791 277.510  18
 -12   0  -2 304.349 187.404   4
 -12   0   2 482.058 308.032   4
 -12   0  -2-32.8475 191.416  17
  12   0   2 961.219 484.446   8
 -12   0   2 241.070 267.381  17
  12   0  -2 932.160 480.407   8
 -12   0  -2-179.112 443.902   7
 -12   0   2 460.772 272.093   7
 -12   0   2 486.763 281.018  15
  12   0   2 1074.55 576.947   1
  12   0   2 1026.86 586.658  14
  12   0  -2 697.808 425.742  14
  12   0   2 880.871 420.487   6
  12   0  -3-64.1306 86.9505   6
 -12   0  -3 801.489 481.799  12
 -12   0  -3 296.849 311.304   5
  12   0  -3 34.8979 117.276   1
 -12   0   3-85.7539 179.868   5
  12   0  -3 145.856 125.679  11
 -12   0  -3 1393.90 823.841  19
 -12   0   3 209.451 289.639  19
 -12   0   3 48.0563 84.3640   2
  12   0   3 1031.46 471.687  18
  12   0  -3 167.619 129.263  18
 -12   0  -3 333.328 369.510   4
 -12   0  -3 1707.42 660.222  17
 -12   0   3 189.367 324.904   4
  12   0   3 312.820 391.105   8
 -12   0   3 151.851 159.257  17
  12   0  -3 86.1867 139.528   8
 -12   0  -3 73.7238 153.723   7
  12   0   3 114.225 199.111   1
 -12   0   3 348.336 306.079   7
  12   0   3 1004.87 583.144   6
 -12   0   3-1.42572 113.752  15
  12   0   3 609.268 564.890  14
  12   0  -3-25.1314 158.158  14
  12   0   4 3578.22 976.761   1
  12   0  -4 2389.16 764.017   1
 -12   0  -4 436.861 340.332  12
 -12   0   4 2446.06 668.534   2
 -12   0   4 1940.62 697.215   5
  12   0  -4 882.616 338.156  11
 -12   0  -4 769.223 589.167  19
 -12   0   4 1865.35 646.091  19
  12   0   4 2605.87 583.564  18
  12   0   4 3039.55 826.512   8
  12   0  -4 2568.97 733.218   8
  12   0  -4 1591.82 532.338  18
 -12   0  -4 543.261 97.3104   4
 -12   0   4 1731.48 623.263   4
 -12   0  -4 654.641 464.859  17
 -12   0   4 893.982 428.456  17
 -12   0   4 2674.95 698.919   7
  12   0   4 2935.10 754.682   6
  12   0  -4 2844.74 542.176   6
  12   0   4 2999.96 925.508  14
  12   0  -4 2283.54 768.790  14
 -12   0  -5-135.427 220.480   3
  12   0  -5 97.2050 154.505  13
 -12   0  -5-131.729 208.464  12
 -12   0   5 195.190 218.425   5
  12   0  -5-192.785 183.258  11
 -12   0  -5-297.793 362.731  19
  12   0  -5 5.24486 163.442   1
 -12   0   5-247.090 294.004  19
 -12   0   5-62.5687 55.0708   2
  12   0   5-157.457 165.825  18
 -12   0  -5-541.701 504.972   4
  12   0  -5-64.3748 212.156  18
  12   0   5 7.55720 72.9518   8
 -12   0  -5-88.7282 151.328  17
  12   0   5-35.7998 170.301   1
 -12   0   5-45.6492 143.704   4
 -12   0   5 2.05232 59.2241  17
  12   0  -5-91.2698 157.607   8
 -12   0   5 285.745 332.548  15
  12   0   5-204.549 296.200  14
  12   0   5-122.230 236.837   6
  12   0  -5 76.0061 173.948  14
  12   0   6 6116.10 1262.87   1
  12   0  -6 3214.87 912.710   1
 -12   0  -6 139.458 241.576   3
 -12   0  -6 484.057 407.041  12
 -12   0   6 3002.45 845.060   5
 -12   0   6 3847.29 875.350   2
  12   0  -6 1211.22 437.234  11
 -12   0   6 3072.50 812.531  19
 -12   0  -6 672.833 473.829  19
  12   0   6 3886.66 623.121  18
  12   0  -6 2023.44 604.283  18
 -12   0   6 2957.03 771.063   4
  12   0   6 5332.77 1086.94   8
  12   0  -6 2679.09 745.761   8
 -12   0   6 1672.12 666.316  17
  12   0   6 4600.75 972.705   6
  12   0   6 5666.25 1253.06  14
  12   0  -6 3248.91 857.606  14
 -12   0  -7 408.494 360.958   3
  12   0  -7 61.9522 92.5293  11
 -12   0  -7 44.2551 263.855  19
 -12   0   7-150.173 186.929  19
  12   0   7 391.254 389.617   1
  12   0  -7 85.1902 216.385   1
  12   0  -7-58.2882 151.035  18
 -12   0   7-65.2316 187.965   2
  12   0   7 37.7201 215.998   8
 -12   0   7 13.2322 96.6983   4
 -12   0   7-255.675 276.752  17
  12   0  -7-1.89840 117.294   8
  12   0   7 78.7619 31.1243  14
  12   0   7-33.3390 150.000   6
  12   0  -7-62.6409 124.234  14
  12  -1   0 156.194 210.140   6
 -12  -1   0 528.989 242.544  12
 -12   1   0-43.5594 180.811  12
 -12  -1   0 100.866 227.662   5
  12  -1   0 66.5575 143.017   1
  12   1   0 224.359 82.3972  11
 -12   1   0 67.2218 193.258   5
 -12   1   0 107.564 123.111   2
 -12  -1   0 565.144 503.227  19
 -12   1   0 32.3887 226.514  19
  12   1   0 318.395 237.039  18
  12  -1   0 135.771 136.662  18
 -12  -1   0 84.6663 75.2483   4
 -12   1   0 246.387 281.508   4
 -12  -1   0 390.024 304.688  17
  12   1   0 212.230 259.750   8
 -12   1   0 436.190 325.491  17
  12  -1   0-114.407 194.839   8
  12   1   0 364.727 364.056   1
 -12   1   0 362.081 368.196  15
  12   1   0 11.6332 118.294   6
  12   1   0 357.624 286.064  14
  12  -1   0 277.963 268.159  14
  12  -1   1 228.462 198.479   6
  12  -1  -1 314.649 183.757   6
  12  -1   1 351.939 350.225   1
 -12  -1  -1 144.059 20.4363  12
 -12  -1   1 356.644 205.684  12
 -12   1  -1 116.913 75.7970  12
 -12   1   1-115.528 226.922  12
 -12  -1   1 1.53631 124.931   5
  12   1   1 591.094 254.626  11
  12   1  -1 386.418 188.492  11
 -12   1  -1 306.043 308.836   5
 -12   1   1 123.937 143.769   5
 -12   1  -1 95.8020 105.259   2
  12  -1  -1 47.0937 149.269   1
 -12  -1  -1 345.683 333.908  19
 -12  -1   1 549.989 465.023  19
 -12   1  -1 457.706 347.103  19
 -12   1   1 59.4269 113.677  19
 -12   1   1 193.553 139.665   2
  12   1   1 245.053 204.635  18
  12   1  -1 151.271 172.737  18
  12  -1   1 87.9090 6.45151  18
  12  -1  -1-31.0327 213.531  18
 -12  -1  -1-72.4320 334.582   4
 -12  -1   1 186.710 231.305   4
 -12   1  -1-78.5792 119.402   4
 -12  -1  -1 237.068 222.069  17
 -12  -1   1 572.486 363.989  17
  12   1   1 215.860 185.005   8
 -12   1   1 93.7172 158.554   4
  12   1  -1 349.645 369.047   8
 -12   1  -1 205.794 186.652  17
 -12   1   1-20.6375 159.818  17
  12  -1   1 351.080 202.087   8
  12  -1  -1 350.438 321.408   8
  12   1   1 74.1170 115.099   1
 -12   1  -1 582.574 479.507   7
 -12   1  -1 478.324 413.452  15
  12   1   1 281.662 215.872   6
  12   1  -1 62.3541 142.317   6
  12   1  -1 116.671 324.378   1
  12   1   1 349.670 270.737  14
  12   1  -1 411.917 337.180  14
  12  -1   1 332.894 340.652  14
  12  -1  -1 172.470 131.316  14
  12   1  -2 441.007 387.061   1
  12  -1   2 35.3948 103.081   6
  12  -1  -2 102.323 163.479   6
  12  -1   2 94.0667 125.441   1
 -12  -1  -2-14.1724 81.3366  12
 -12   1  -2 7.36275 147.566  12
 -12  -1   2 190.204 138.095  12
  12   1   2 564.174 237.255  11
 -12  -1   2 164.664 339.002   5
 -12   1  -2 239.349 297.119   5
  12   1  -2 496.702 295.329  11
 -12   1   2 83.3986 210.444   5
 -12  -1  -2-44.2113 321.150  19
 -12  -1   2 479.036 503.813  19
 -12   1  -2 412.889 542.513  19
 -12   1   2 47.7751 192.857  19
  12  -1  -2 16.6670 125.947   1
 -12   1   2 201.902 172.472   2
  12   1   2 164.825 191.901  18
  12   1  -2 21.1549 137.526  18
 -12  -1  -2-926.947 490.351   4
  12  -1   2 31.9904 134.966  18
  12  -1  -2 91.1972 89.8928  18
 -12  -1   2-8.26213 145.344   4
 -12   1  -2 78.4582 220.231   4
 -12  -1  -2-287.226 318.129  17
  12   1   2 111.635 318.946   8
 -12  -1   2 192.966 320.254  17
 -12   1   2 106.867 137.334   4
  12   1  -2 214.275 183.152   8
 -12   1  -2 520.128 319.288  17
  12  -1   2 170.241 162.692   8
 -12   1   2-149.062 247.490  17
  12   1   2 374.374 251.993   1
  12  -1  -2-89.1221 200.139   8
 -12   1  -2 326.323 359.043   7
 -12   1  -2 155.097 266.606  15
  12   1   2 341.374 249.210   6
  12   1   2 193.026 186.085  14
  12   1  -2-93.7468 148.408   6
  12   1  -2 1.12121 117.990  14
  12  -1   2-49.7775 160.752  14
  12  -1  -2-36.5709 77.2241  14
  12  -1   3 1471.75 599.550   1
  12  -1   3 1267.60 467.622   6
  12   1  -3 1482.41 620.716   1
  12  -1  -3 1444.60 420.378   6
 -12  -1  -3 270.758 273.364  12
 -12   1  -3 388.438 211.896  12
 -12  -1   3-386.584 214.455  12
  12   1   3 2541.03 464.424  11
 -12   1  -3 600.425 350.657   5
 -12  -1   3 747.590 520.520   5
  12   1  -3 1713.35 509.050  11
 -12   1   3 1072.60 511.868   5
 -12  -1   3 729.591 410.983   2
 -12  -1  -3 198.906 279.072  19
 -12   1  -3 1011.17 540.680  19
 -12  -1   3 1059.49 561.948  19
 -12   1   3 858.935 442.848  19
  12   1   3 1489.17 457.069  18
  12  -1  -3 1189.65 530.315   1
  12   1  -3 1159.87 502.432  18
 -12   1   3 1249.85 469.392   2
  12  -1   3 745.198 274.412  18
  12  -1  -3 376.031 234.685  18
 -12  -1   3 603.887 368.774   4
 -12   1  -3 578.454 362.490   4
 -12  -1  -3 45.2677 157.565  17
  12   1   3 1844.74 695.409   8
  12   1   3 2249.11 860.472   1
 -12  -1   3 672.777 494.329  17
  12  -1   3 1296.35 530.008   8
 -12   1  -3 436.933 332.898  17
 -12   1   3 926.683 428.622   4
  12   1  -3 1239.51 514.620   8
 -12   1   3 133.821 117.089  17
  12  -1  -3 922.610 443.552   8
 -12   1  -3 758.428 401.485   7
 -12   1  -3 520.618 91.6695  15
  12   1   3 1018.22 440.366   6
  12   1   3 1750.44 745.102  14
  12   1  -3 913.019 505.539  14
  12  -1   3 1210.08 518.675  14
  12  -1  -3 1003.65 451.152  14
  12  -1  -4-193.884 233.961  14
  12  -1   4-114.822 119.247   6
 -12   1  -4-155.156 195.211   3
  12  -1  -4-29.9409 104.377   6
  12   1  -4 46.6095 260.055   1
 -12  -1  -4 205.339 361.392  12
 -12   1  -4-133.195 232.295  12
 -12   1  -4 80.8765 155.465   5
 -12  -1   4-98.1003 209.301   5
  12   1  -4-29.8796 115.187  11
 -12   1   4-74.3388 126.806   5
 -12  -1  -4 7.69963 197.609  19
 -12  -1   4 109.224 195.526   2
 -12   1  -4-184.688 226.632  19
 -12  -1   4-169.932 255.493  19
 -12   1   4 17.0882 62.9138  19
  12   1   4-166.104 153.440  18
  12   1  -4 38.8744 159.791  18
  12  -1   4-89.1411 157.211  18
  12  -1  -4 33.5453 26.9214  18
 -12   1   4 33.5823 138.162   2
  12   1   4-44.8314 216.138   1
 -12   1  -4 30.7206 205.723   4
 -12  -1   4 119.136 252.644   4
  12  -1  -4-0.83703 130.336   1
 -12  -1  -4-153.589 269.517  17
  12   1   4 98.6141 189.734   8
 -12  -1   4 66.9128 341.405  17
  12  -1   4-56.5303 124.735   8
 -12   1  -4 13.5764 273.708  17
 -12   1   4 33.9676 116.296  17
 -12   1   4-16.5049 163.096   4
  12   1  -4-143.517 219.461   8
  12  -1  -4-94.2208 139.673   8
 -12   1  -4 44.1829 199.181   7
 -12   1  -4 47.9146 82.2257  15
  12   1   4-15.7704 112.550   6
  12  -1   4 144.773 241.663   1
  12   1   4-89.3941 134.647  14
  12   1  -4-21.4320 77.4283  14
  12  -1   4-181.517 262.658  14
  12  -1  -5 1650.66 602.805  14
  12   1   5 3233.57 985.532   1
  12   1  -5 2028.71 414.261  13
 -12   1  -5 154.922 165.459   3
  12  -1   5 3386.58 924.695   1
  12   1  -5 2702.29 812.133   1
 -12   1  -5 302.080 276.002  12
 -12   1  -5 648.926 481.917   5
 -12   1   5 2618.21 674.184   2
 -12  -1   5 1145.70 524.274   5
  12   1  -5 2030.22 523.376  11
 -12   1   5 2355.10 739.288  19
 -12   1   5 1558.50 606.765   5
 -12  -1  -5-260.378 253.120  19
 -12   1  -5 726.578 422.578  19
 -12  -1   5 1560.07 608.718  19
 -12  -1   5 1873.25 653.225   2
  12   1   5 3003.55 616.405  18
  12   1  -5 2065.71 627.940  18
  12  -1   5 1350.97 351.774  18
 -12   1   5 1850.90 651.328   4
  12   1  -5 2300.55 661.878   8
  12  -1  -5 634.146 327.021  18
 -12   1  -5 603.189 347.617   4
 -12  -1   5 1300.84 536.114   4
  12   1   5 2921.93 869.108   8
 -12  -1  -5 111.182 130.225  17
 -12  -1   5 1125.79 517.681  17
  12  -1   5 2979.70 803.165   8
  12  -1  -5 1552.89 605.997   1
 -12   1   5 922.897 458.595  17
  12  -1  -5 1144.28 485.747   8
 -12   1  -5 1177.16 459.917   7
 -12   1  -5 511.143 227.002  15
  12   1   5 1965.97 613.397   6
  12  -1   5 3196.33 777.911   6
  12  -1  -5 2639.33 525.457   6
  12   1   5 3193.62 978.226  14
  12  -1   5 2844.20 863.969  14
  12   1  -5 2186.95 710.463  14
  12  -1  -6 7.37391 151.220  14
 -12   1  -6 198.002 205.018   3
  12   1  -6 138.384 132.515  13
 -12   1  -6 70.4356 245.035  12
  12   1  -6-2.88627 201.030   1
 -12  -1   6 17.4228 48.2129   5
  12   1  -6 86.4617 161.852  11
 -12   1   6 146.808 211.926   5
 -12  -1  -6 391.059 328.604  19
 -12   1  -6-58.1678 217.603  19
 -12  -1   6-59.5330 101.969  19
 -12   1   6 50.7389 111.302  19
  12   1   6 44.6049 303.587   1
 -12  -1   6 12.9432 166.499   2
  12   1   6 146.657 127.063  18
  12   1  -6 54.2948 147.820  18
  12  -1  -6-13.9569 119.609  18
 -12   1  -6-128.783 290.508   4
 -12  -1   6-29.4330 107.062   4
  12   1   6 271.760 353.678   8
 -12  -1  -6 278.092 257.954  17
 -12   1   6-71.6841 124.528   2
  12  -1   6 28.5905 212.614   8
 -12  -1   6-203.123 273.121  17
 -12   1   6 82.7390 17.1832  17
 -12   1   6-50.2565 189.932   4
  12   1  -6-100.431 100.606   8
  12  -1   6-221.395 273.338   1
  12  -1  -6-59.9346 255.928   8
  12  -1  -6 2.94685 156.856   1
 -12   1  -6-278.229 401.986   7
 -12   1  -6-243.704 481.528  15
  12   1   6-225.662 333.573   6
  12   1   6-95.2557 272.186  14
  12  -1   6 28.9281 65.4375  14
  12   1  -6-50.6557 131.388  14
  12  -1   6 8.74757 110.009   6
 -12  -1  -7 404.230 323.478  19
  12  -1  -7 672.275 329.587  18
 -12   1   7 1419.96 608.618  17
  12  -1  -7 662.871 150.834   8
  12  -2   0-156.382 238.275  14
  12  -2   0 71.0303 156.891   6
 -12  -2   0 230.831 228.872  12
 -12   2   0-453.564 283.239  12
  12   2   0 366.812 210.587  11
 -12   2   0 19.0305 137.333   5
 -12  -2   0-92.5086 59.8519  19
 -12   2   0-16.6620 140.144  19
  12  -2   0 95.2525 224.818   1
  12   2   0-52.9685 155.157  18
 -12   2   0 61.0551 98.8397   2
 -12  -2   0 31.3489 239.712  17
  12   2   0-276.987 292.998   8
 -12   2   0-49.8664 109.663   4
  12   2   0-58.2136 170.688   1
  12  -2   0 109.372 46.5033   8
  12   2   0-242.503 321.281  14
  12  -2  -1 69.8433 176.724  14
  12  -2   1 273.507 236.670   6
  12  -2  -1 216.699 153.549   6
 -12  -2  -1 494.398 373.818  12
 -12  -2   1 58.4438 139.153  12
 -12   2  -1-365.586 255.398  12
  12   2   1 766.231 351.753  11
  12   2  -1 509.270 257.755  11
 -12   2  -1-72.4828 204.656   5
 -12   2   1 90.7294 206.387   5
 -12  -2  -1 197.181 404.279  19
 -12  -2   1 291.819 293.330  19
  12  -2   1 188.445 221.739   1
 -12   2  -1 8.27150 130.831  19
 -12   2   1 46.0963 165.284  19
  12   2   1 109.926 165.782  18
  12   2  -1 196.725 209.567  18
 -12   2   1 168.784 172.578   2
  12  -2  -1 41.9835 179.940   1
  12   2   1 207.770 310.719   1
 -12  -2  -1 670.306 530.693  17
  12   2   1 140.229 239.502   8
 -12  -2   1-210.596 243.353  17
  12   2  -1 8.74328 206.340   8
 -12   2  -1 4.31830 123.432   4
 -12   2   1 135.079 207.493   4
  12  -2   1 226.291 268.416   8
  12  -2  -1-40.5480 157.113   8
  12   2  -1-142.128 320.899   1
  12   2   1-23.9322 227.394  14
  12   2  -1-21.1652 188.960  14
  12  -2   1-24.4814 160.060  14
  12  -2  -2 157.894 158.348  14
  12  -2   2 68.6195 164.538   6
  12  -2  -2 218.947 224.135   6
 -12  -2   2-74.2621 102.597  12
 -12   2  -2-137.426 158.788  12
  12   2  -2 62.1066 215.576  11
  12  -2   2-38.6157 19.9927   1
 -12   2  -2-20.2457 126.458   5
 -12   2   2-3.91076 170.286   5
 -12  -2  -2 276.759 505.461  19
 -12  -2   2-27.0124 57.9324  19
 -12   2  -2-61.4880 203.360  19
 -12   2   2 33.8498 149.093  19
  12   2   2 85.5557 141.417  18
  12   2  -2 121.389 178.895  18
 -12  -2   2-228.675 372.031   4
  12   2   2 205.264 235.620   1
 -12   2   2 113.238 174.388   2
 -12  -2  -2-297.392 296.259  17
  12   2   2 280.724 282.979   8
 -12  -2   2 122.460 283.950  17
 -12   2  -2 44.3180 149.950   4
  12   2  -2 229.328 298.385   8
  12  -2   2 166.689 235.775   8
 -12   2   2-44.3412 83.3672   4
  12  -2  -2 108.735 173.806   1
  12  -2  -2 61.7942 102.407   8
  12   2  -2-4.48914 63.5143   1
  12   2   2-36.8249 155.246  14
  12   2  -2 105.116 196.519  14
  12  -2   2-14.9343 73.7669  14
  12  -2  -3-92.2093 180.872  14
  12  -2   3-53.2891 101.873   6
  12  -2  -3 47.7586 58.1175   6
 -12   2  -3-157.890 146.798  12
  12  -2   3-79.9737 200.485   1
 -12  -2   3 79.1969 172.171   5
  12   2  -3 373.986 226.447  11
 -12   2  -3-2.55936 145.274   5
 -12   2   3 147.269 234.206   5
 -12  -2  -3 64.2976 104.012  19
 -12  -2   3-130.923 140.477  19
 -12   2  -3-53.5469 131.394  19
 -12   2   3 149.115 99.1269  19
  12   2   3 58.5072 219.915  18
  12   2   3 124.664 172.947   1
  12   2  -3 131.398 133.445  18
 -12  -2   3-274.772 398.496   4
 -12  -2  -3-254.498 176.664  17
  12   2   3-36.2333 61.1245   8
 -12   2  -3-71.4927 58.8707   4
 -12  -2   3-116.627 215.275  17
 -12   2   3 193.640 198.991   2
  12   2  -3 54.4645 54.3366   8
  12  -2   3-58.8291 153.923   8
 -12   2   3 70.1826 113.796   4
  12  -2  -3 207.219 254.155   8
  12  -2  -3-149.243 236.681   1
 -12   2  -3 43.6772 270.488  15
  12   2  -3-160.543 276.268   1
  12   2   3 74.8965 240.554  14
  12   2  -3 171.890 233.544  14
  12  -2   3 103.038 253.993  14
  12  -2  -4 514.126 332.532  14
  12  -2   4 1074.90 432.590   6
  12   2  -4 259.738 141.412  13
  12  -2   4 935.747 428.370   1
  12  -2  -4 614.314 267.747   6
 -12   2  -4 84.9909 126.044  12
 -12  -2   4 114.682 219.764   5
  12   2  -4 919.103 368.783  11
 -12   2  -4 476.178 317.860   5
 -12   2   4 812.002 430.751   5
 -12  -2  -4-119.042 219.455  19
 -12  -2   4 325.057 294.676  19
 -12   2  -4 212.537 197.530  19
 -12   2   4 853.707 453.055  19
  12   2   4 573.150 405.629   1
  12   2   4 973.488 411.491  18
  12   2  -4 898.498 445.343  18
 -12  -2   4 208.446 91.5882   4
  12   2   4 1036.86 549.643   8
 -12  -2  -4 13.4395 81.6600  17
 -12   2  -4 371.411 284.861   4
 -12  -2   4 134.430 145.970  17
  12   2  -4 940.086 445.554   8
 -12   2   4 824.045 367.460   2
  12  -2   4 887.474 450.368   8
 -12   2   4 676.643 405.059   4
  12  -2  -4 275.026 172.281   8
 -12   2  -4 1245.31 684.286   7
 -12   2  -4 739.005 516.578  15
  12   2   4 915.227 576.792  14
  12   2  -4 577.579 378.320   1
  12   2  -4 638.825 343.786  14
 -12   2  -4-105.927 166.908   3
  12  -2  -4 610.835 407.361   1
  12  -2   4 816.211 419.805  14
 -12   2  -5-21.6466 41.8233   3
  12  -2  -5 127.952 221.333  14
  12  -2   5 103.569 261.584   1
  12  -2   5-170.995 223.024   6
  12  -2  -5 45.2501 199.312   1
  12   2  -5 123.392 97.3493  13
  12  -2  -5-5.01286 97.4243   6
 -12   2  -5 382.019 300.116  12
 -12  -2   5 44.4876 173.245   5
 -12   2  -5-51.9863 107.304   5
  12   2  -5-76.3348 107.669  11
 -12  -2   5-131.465 285.176   2
 -12  -2  -5-62.6106 113.950  19
  12   2   5-61.0877 150.992   1
 -12   2   5-62.1168 164.204   5
 -12  -2   5 136.414 81.4209  19
 -12   2  -5 301.833 367.863  19
 -12   2   5-73.0195 130.545  19
  12   2   5-64.0560 133.149  18
  12   2  -5-21.3402 106.722  18
 -12  -2   5-43.2681 130.042   4
 -12   2  -5 14.5994 98.5774   4
  12   2   5-232.374 349.605   8
 -12  -2  -5-169.288 28.2855  17
 -12  -2   5 16.5284 30.0266  17
  12  -2   5-49.5466 139.578   8
  12   2  -5-30.6388 114.256   8
 -12   2   5 83.3361 113.748   2
 -12   2   5 48.7375 178.201   4
  12  -2  -5-188.101 401.225   8
 -12   2  -5-3.80492 148.259   7
 -12   2  -5 207.262 304.511  15
  12   2   5-81.5690 291.508  14
  12   2  -5 257.570 279.594  14
  12  -2   5-39.5712 122.513  14
  12   2  -5 22.3003 154.135   1
  12  -2  -6 1487.20 570.559  14
  12   2  -6 2251.25 767.166   1
 -12   2  -6 179.181 192.571   3
  12   2  -6 1886.56 455.095  13
  12  -2   6 2920.83 819.403   1
  12  -2  -6 1222.96 549.623   1
 -12   2  -6 351.358 302.496  12
 -12   2  -6 925.616 498.959   5
 -12  -2   6 1129.13 613.161   5
 -12   2   6 2053.94 565.461   2
  12   2  -6 2522.00 622.787  11
  12   2   6 2458.14 952.246   1
 -12   2   6 1887.84 648.667  19
 -12  -2  -6-64.1025 215.124  19
 -12  -2   6 1226.43 534.691   2
 -12   2   6 1407.26 548.410   5
 -12   2  -6 895.732 500.208  19
 -12  -2   6 1144.19 513.125  19
  12   2   6 2435.05 639.143  18
  12   2  -6 2251.66 684.896  18
  12   2  -6 2305.83 649.384   8
 -12  -2   6 1021.89 454.903   4
 -12   2  -6 784.854 453.433   4
  12   2   6 2133.18 784.695   8
 -12  -2  -6 258.461 199.582  17
 -12  -2   6 1123.24 559.492  17
  12  -2   6 2270.63 679.122   8
 -12   2   6 1910.44 598.190   4
  12  -2  -6-54.5333 457.570   8
 -12   2  -6 1678.74 782.647   7
  12  -2   6 3064.71 779.688   6
 -12   2  -6 1199.89 549.209  15
  12  -2  -6 1636.60 440.648   6
  12   2   6 1923.17 826.112  14
  12   2  -6 1708.36 632.682  14
  12  -2   6 2262.34 734.346  14
  12  -3   0-39.0491 5.02257  14
  12  -3   0 203.818 208.214   6
 -12   3   0 101.118 72.6590   5
 -12  -3   0-117.108 352.405  19
 -12   3   0 10.5357 58.5643  19
  12   3   0-55.4804 74.9387  18
  12   3   0-62.5709 160.407   1
 -12  -3   0 309.989 310.633  17
  12   3   0-37.1543 129.289   8
 -12   3   0 29.6604 90.2275   4
  12  -3   0-36.5572 124.410   8
  12  -3   0-94.0953 191.008   1
  12   3   0-256.355 341.052  14
  12  -3  -1 350.810 299.417   1
  12  -3   1 772.581 426.770  14
  12  -3  -1 494.667 363.570  14
  12  -3   1 706.944 363.415   6
  12  -3  -1 348.014 178.478   6
 -12  -3   1 365.009 266.988  12
 -12   3  -1-41.8777 281.456  12
 -12   3  -1 673.738 438.825   5
 -12  -3  -1-232.841 368.098  19
 -12   3   1 715.919 411.383   5
 -12  -3   1-206.316 262.422  19
 -12   3  -1 610.966 371.615  19
 -12   3   1 530.139 364.224  19
  12   3   1 1054.34 634.780   1
  12   3   1 936.934 455.633  18
  12   3  -1 832.116 456.595  18
  12   3  -1 838.896 531.164   1
 -12  -3  -1-300.086 292.876  17
  12   3   1 725.189 451.141   8
 -12  -3   1 12.4801 190.666  17
  12   3  -1 829.676 498.430   8
  12  -3   1 507.548 280.998   1
 -12   3   1 639.044 280.714   2
 -12   3  -1 436.454 296.349   4
  12  -3   1 375.326 258.309   8
 -12   3   1 708.264 449.280   4
  12  -3  -1 261.738 240.872   8
  12   3   1 372.240 339.108  14
  12   3  -1 545.542 470.686  14
  12  -3   2-94.2386 201.204  14
  12  -3  -2 71.4137 213.065  14
  12  -3   2-147.404 201.662   6
  12  -3  -2 95.3672 155.212   6
  12  -3  -2-9.66352 63.4599   1
 -12   3  -2-34.4161 128.666  12
  12   3  -2 550.534 348.132  11
 -12   3  -2 94.0784 74.3060   5
 -12  -3  -2-380.429 502.256  19
 -12   3   2 129.266 179.669   5
 -12  -3   2-58.9699 344.407  19
 -12   3  -2-142.207 281.276  19
  12   3   2 31.4938 137.891   1
 -12   3   2 173.153 237.365  19
  12   3   2 112.658 201.199  18
  12   3  -2 32.5557 92.4158  18
  12  -3   2 197.170 236.791   1
  12   3   2 6.62607 274.688   8
 -12  -3  -2 168.353 351.457  17
 -12  -3   2 29.1475 120.182  17
  12   3  -2-69.3709 173.365   8
  12   3  -2 213.401 281.712   1
 -12   3  -2-3.30994 22.3387   4
  12  -3   2-45.8869 78.0000   8
 -12   3   2 49.1937 57.3181   2
 -12   3   2 49.0223 178.502   4
  12  -3  -2 19.2735 68.9788   8
  12   3   2-19.1004 171.467  14
  12   3  -2-216.640 327.108  14
  12  -3   3 19.4714 58.1737  14
  12  -3  -3-164.096 244.275  14
  12  -3   3-63.7879 68.0674   6
  12  -3  -3 58.6745 117.952   6
 -12   3  -3 20.0468 105.349  12
  12  -3  -3-77.2415 139.435   1
  12   3  -3-153.657 185.982  11
 -12   3  -3 31.3398 46.0726   5
 -12  -3  -3-17.7607 177.700  19
  12   3   3 171.831 426.693   1
 -12  -3   3 126.671 139.115  19
 -12   3   3-210.169 247.740   5
 -12   3  -3-71.0269 259.851  19
 -12   3   3-22.3008 9.92366  19
  12  -3   3 43.8171 150.494   1
  12   3   3 39.6065 102.988  18
  12   3  -3-95.9594 211.204  18
  12   3   3 2.34470 72.1351   8
 -12  -3  -3 53.3557 257.989  17
 -12  -3   3-21.4426 82.9475  17
  12   3  -3 70.8856 148.234   8
 -12   3  -3-143.203 230.610   4
  12   3  -3-9.17007 104.472   1
  12  -3   3-24.6849 177.730   8
 -12   3   3 61.3730 156.919   4
  12  -3  -3-216.763 306.404   8
 -12   3   3 88.2795 57.7271   2
  12   3   3-213.699 378.169  14
  12   3  -3 142.314 261.105  14
  12  -3  -4-69.2525 101.394  14
  12  -3   4 31.3737 205.025   6
  12  -3  -4 170.339 190.161   6
 -12   3  -4-43.7052 146.997  12
  12   3  -4 273.765 212.342  11
  12   3   4-72.8190 207.860   1
 -12   3  -4 66.1410 135.661   5
  12  -3   4 84.3399 166.701   1
  12  -3  -4 103.177 145.512   1
 -12  -3  -4-128.191 156.250  19
 -12  -3   4 42.3634 316.939  19
 -12   3   4 87.5928 164.162   5
 -12   3  -4-138.876 142.560  19
 -12   3   4 46.6986 146.370  19
  12   3  -4 696.332 398.806   9
  12   3   4 201.260 355.086  18
  12   3  -4 152.852 224.325  18
  12   3   4 335.523 428.524   8
 -12  -3  -4-8.78031 218.512  17
 -12  -3   4 262.015 314.789  17
  12   3  -4 242.597 144.483   8
 -12   3  -4-9.42844 120.742   4
  12  -3   4 150.015 242.437   8
  12   3  -4 99.8223 160.171   1
 -12   3   4 118.320 167.640   4
 -12   3   4 146.719 164.663   2
  12   3   4-413.500 494.693  14
  12   3  -4-71.0913 136.426  14
  12  -3   4 51.3348 168.548  14
  12   3  -5 198.692 102.745  13
  12   3   5-168.860 526.384   1
 -12  -3  -5 243.142 534.656  19
 -12  -3   5 89.8562 192.725  19
 -12   3   5 134.570 92.6035  19
 -12  -3  -5-49.8069 61.5861  17
 -12  -3   5 151.790 223.033  17
  12  -3   5 624.140 431.307   8
  12  -4   0 743.562 375.296  14
  12  -4   0 931.482 397.838   6
  12  -4   0 813.798 427.284   1
 -12  -4   0 217.292 217.142  19
 -12   4   0 1046.04 497.346   5
  12   4   0 1695.17 783.590   1
 -12   4   0 1668.73 601.233  19
  12   4   0 1711.33 650.005  18
  12   4   0 1760.51 724.739   8
 -12  -4   0-303.692 295.695  17
 -12   4   0 1215.91 545.982   4
  12  -4   0 760.697 436.311   8
  12   4   0 286.763 116.633  14
  12  -4   1 59.9857 262.295  14
  12  -4  -1 99.7343 185.333  14
  12  -4   1 29.1549 171.524   1
  12  -4   1-14.3140 113.634   6
  12  -4  -1 136.866 243.831   6
  12   4   1 47.4816 228.650   1
 -12  -4  -1 234.938 329.904  19
 -12  -4   1 293.802 307.452  19
 -12   4  -1 172.411 233.424   5
  12  -4  -1 35.3439 102.197   1
 -12   4   1 24.6410 150.266   5
 -12   4  -1-70.1389 145.772  19
 -12   4   1-253.391 237.396  19
  12   4  -1-24.8810 129.643   1
  12   4   1-341.061 418.880  18
  12   4  -1 144.285 251.234  18
  12   4   1 173.300 163.057   8
 -12  -4  -1 154.641 284.317  17
  12   4  -1 71.4481 227.585   8
 -12  -4   1 577.540 525.802  17
 -12   4  -1-116.183 174.761   4
  12  -4   1 33.9264 180.287   8
 -12   4   1 1.55487 51.4429   4
  12  -4  -1-250.964 353.304   8
 -12   4   1-15.7623 49.9626   2
  12   4   1-764.685 746.482  14
  12   4  -1-431.725 645.927  14
  12  -4   2 486.240 315.847   6
  12  -4  -2 410.263 266.782   6
  12   4   2 636.379 463.406   1
 -12  -4  -2 391.132 451.623  19
 -12  -4   2 33.9004 246.581  19
 -12   4  -2 307.939 250.503  19
 -12   4   2 328.017 242.535  19
 -12  -4  -2 269.697 434.779  17
 -12  -4   2-23.3982 106.571  17
  12  -4   2 373.095 294.459   8
  12  -4  -2-285.124 485.334   8
 -12   4   2 426.118 259.750   2
   0   0   0    0.00    0.00   0

TITL HFMOF_23 in P4/mnc
REM P4/mnc (#128 in standard setting)
CELL 0.71073  19.081952  19.081952  32.674021  90.0000  90.0000  90.0000
ZERR   16.00   0.001192   0.001192   0.002589   0.0000   0.0000   0.0000
LATT  1
SYMM -x,-y, z
SYMM -y, x, z
SYMM  y,-x, z
SYMM -x+1/2, y+1/2,-z+1/2
SYMM  x+1/2,-y+1/2,-z+1/2
SYMM  y+1/2, x+1/2,-z+1/2
SYMM -y+1/2,-x+1/2,-z+1/2
SFAC C H O Hf
UNIT 704.00 576.00 128.00 16.00
TREF
HKLF 4
END
;
_shelx_hkl_checksum              30746
_shelx_shelxl_version_number     2014/7
_olex2_submission_special_instructions 'No special instructions were received'
_oxdiff_exptl_absorpt_empirical_details
;
Empirical correction (ABSPACK) includes:
- Absorption correction using spherical harmonics
- Frame scaling
;
_oxdiff_exptl_absorpt_empirical_full_max 2.273
_oxdiff_exptl_absorpt_empirical_full_min 0.649
loop_
_space_group_symop_operation_xyz
'x, y, z'
'-x, -y, z'
'-y, x, z'
'y, -x, z'
'-x+1/2, y+1/2, -z+1/2'
'x+1/2, -y+1/2, -z+1/2'
'y+1/2, x+1/2, -z+1/2'
'-y+1/2, -x+1/2, -z+1/2'
'-x, -y, -z'
'x, y, -z'
'y, -x, -z'
'-y, x, -z'
'x-1/2, -y-1/2, z-1/2'
'-x-1/2, y-1/2, z-1/2'
'-y-1/2, -x-1/2, z-1/2'
'y-1/2, x-1/2, z-1/2'
loop_
_atom_site_label
_atom_site_type_symbol
_atom_site_fract_x
_atom_site_fract_y
_atom_site_fract_z
_atom_site_U_iso_or_equiv
_atom_site_adp_type
_atom_site_occupancy
_atom_site_site_symmetry_order
_atom_site_calc_flag
_atom_site_refinement_flags_posn
_atom_site_refinement_flags_adp
_atom_site_refinement_flags_occupancy
_atom_site_disorder_assembly
_atom_site_disorder_group
Hf1 Hf -0.0428(3) 0.1229(3) 0.0000 0.029(4) Uani 1 2 d DS TU P . .
Hf2 Hf 0.0000 0.0000 0.0740(2) 0.023(5) Uani 1 4 d DS TU P . .
O1 O -0.024(2) 0.0919(14) 0.1078(11) 0.013(14) Uiso 1 1 d D U . . .
O4 O -0.079(3) 0.027(3) 0.0383(15) 0.049(19) Uiso 1 1 d . U . . .
O13 O -0.060(2) 0.174(2) 0.0575(8) 0.033(16) Uiso 1 1 d D U . . .
O19 O -0.149(4) 0.164(4) 0.0000 0.07(3) Uiso 1 2 d S TU P . .
O20 O 0.017(3) 0.226(3) 0.0000 0.03(2) Uiso 1 2 d S TU P . .
C3 C -0.0694(10) 0.3119(19) 0.1938(13) 0.05(2) Uiso 1 1 d D U . . .
C4 C -0.0887(18) 0.3265(18) 0.1513(18) 0.08(3) Uiso 1 1 d D U . . .
H4 H -0.1044 0.3708 0.1439 0.098 Uiso 1 1 calc R . . . .
C5 C -0.0833(19) 0.274(3) 0.1221(11) 0.08(3) Uiso 1 1 d D U . . .
H5 H -0.0957 0.2838 0.0952 0.094 Uiso 1 1 calc R . . . .
C6 C -0.0596(12) 0.205(2) 0.1316(14) 0.06(2) Uiso 1 1 d D U . . .
C7 C -0.0403(19) 0.191(2) 0.1742(18) 0.09(3) Uiso 1 1 d D U . . .
H7 H -0.0246 0.1462 0.1816 0.110 Uiso 1 1 calc R . . . .
C8 C -0.0457(19) 0.243(3) 0.2033(11) 0.08(3) Uiso 1 1 d D U . . .
H8 H -0.0333 0.2332 0.2302 0.101 Uiso 1 1 calc R . . . .
C9 C -0.0768(11) 0.3690(14) 0.2210(7) 0.01(2) Uiso 1 1 d D U . . .
C16 C -0.0250(16) 0.4202(19) 0.2214(12) 0.00(3) Uiso 0.5 1 d DG U . . .
C15 C -0.026(3) 0.474(3) 0.250(2) 0.00(3) Uiso 1 2 d DG U . . .
C15D C -0.079(4) 0.474(4) 0.280(3) 0.050 Uiso 0 1 d DG . . . .
C9D C -0.131(3) 0.422(3) 0.280(2) 0.050 Uiso 0 1 d DG . . . .
C10 C -0.1296(15) 0.3704(14) 0.2501(8) 0.02(3) Uiso 1 2 d DGS TU P . .
C11 C -0.1804(10) 0.3196(10) 0.2500 0.07(4) Uiso 1 2 d DS TU P . .
H11A H -0.2204 0.3360 0.2350 0.105 Uiso 0.5 1 calc GR . . A -1
H11B H -0.1940 0.3092 0.2776 0.105 Uiso 0.5 1 calc GR . . A -1
H11C H -0.1624 0.2779 0.2373 0.105 Uiso 0.5 1 calc GR . . A -1
C12 C -0.0565(15) 0.1564(18) 0.0992(10) 0.03(2) Uiso 1 1 d D U . . .
C17 C 0.0275(16) 0.426(2) 0.1972(13) 0.13(4) Uiso 1 1 d D U . . .
H H 0.0688 0.4086 0.2103 0.198 Uiso 1 1 calc GR . . . .
HA H 0.0343 0.4750 0.1906 0.198 Uiso 1 1 calc GR . . . .
HB H 0.0188 0.4004 0.1726 0.198 Uiso 1 1 calc GR . . . .
loop_
_atom_site_aniso_label
_atom_site_aniso_U_11
_atom_site_aniso_U_22
_atom_site_aniso_U_33
_atom_site_aniso_U_23
_atom_site_aniso_U_13
_atom_site_aniso_U_12
Hf1 0.038(6) 0.033(6) 0.016(6) 0.000 0.000 0.006(4)
Hf2 0.031(6) 0.031(6) 0.007(7) 0.000 0.000 0.000
loop_
_atom_type_symbol
_atom_type_description
_atom_type_scat_dispersion_real
_atom_type_scat_dispersion_imag
_atom_type_scat_source
C C 0.0033 0.0016 'International Tables Vol C Tables 4.2.6.8 and 6.1.1.4'
H H 0.0000 0.0000 'International Tables Vol C Tables 4.2.6.8 and 6.1.1.4'
Hf Hf -0.5830 6.1852 'International Tables Vol C Tables 4.2.6.8 and 6.1.1.4'
O O 0.0106 0.0060 'International Tables Vol C Tables 4.2.6.8 and 6.1.1.4'
loop_
_exptl_crystal_face_index_h
_exptl_crystal_face_index_k
_exptl_crystal_face_index_l
_exptl_crystal_face_perp_dist
27 -2 6 0.0484
23 7 -20 0.0580
11 12 -37 0.0570
-16 10 -33 0.0543
-27 0 0 0.0484
-25 -5 14 0.0507
-13 -11 35 0.0483
8 -12 39 0.0452
16 -10 33 0.0457
-3 -24 -21 0.0262
3 24 21 0.0262
loop_
_geom_angle_atom_site_label_1
_geom_angle_atom_site_label_2
_geom_angle_atom_site_label_3
_geom_angle
_geom_angle_site_symmetry_1
_geom_angle_site_symmetry_3
Hf1 Hf1 Hf1 90.0 3 11
Hf2 Hf1 Hf1 59.55(5) . 3
Hf2 Hf1 Hf1 59.55(5) 9 3
Hf2 Hf1 Hf1 59.55(5) . 11
Hf2 Hf1 Hf1 59.55(5) 9 11
Hf2 Hf1 Hf2 88.44(19) 9 .
O4 Hf1 Hf1 39.0(15) 11 11
O4 Hf1 Hf1 39.0(15) 4 11
O4 Hf1 Hf1 85.5(13) . 11
O4 Hf1 Hf1 84.8(16) 4 3
O4 Hf1 Hf1 33.0(12) . 3
O4 Hf1 Hf1 84.8(16) 11 3
O4 Hf1 Hf1 85.5(13) 10 11
O4 Hf1 Hf1 33.0(12) 10 3
O4 Hf1 Hf2 89.7(14) 4 9
O4 Hf1 Hf2 89.7(14) 11 .
O4 Hf1 Hf2 32.8(12) . .
O4 Hf1 Hf2 29.1(16) 4 .
O4 Hf1 Hf2 32.8(12) 10 9
O4 Hf1 Hf2 84.9(14) 10 .
O4 Hf1 Hf2 29.1(16) 11 9
O4 Hf1 Hf2 84.9(14) . 9
O4 Hf1 O4 102(3) 11 .
O4 Hf1 O4 102(3) 4 10
O4 Hf1 O4 65(3) 10 .
O4 Hf1 O4 62(3) 11 10
O4 Hf1 O4 62(3) 4 .
O4 Hf1 O4 77(3) 4 11
O4 Hf1 O13 147(2) 11 .
O4 Hf1 O13 75.3(19) 11 10
O4 Hf1 O13 147(2) 4 10
O4 Hf1 O13 75.3(19) 4 .
O4 Hf1 O19 140.1(16) 11 .
O4 Hf1 O19 140.1(16) 4 .
O4 Hf1 O20 92(2) 11 .
O4 Hf1 O20 92(2) 4 .
O13 Hf1 Hf1 110.0(12) 10 3
O13 Hf1 Hf1 109.7(12) . 11
O13 Hf1 Hf1 109.7(12) 10 11
O13 Hf1 Hf1 110.0(12) . 3
O13 Hf1 Hf2 74.4(12) 10 9
O13 Hf1 Hf2 162.9(12) 10 .
O13 Hf1 Hf2 74.4(12) . .
O13 Hf1 Hf2 162.9(12) . 9
O13 Hf1 O4 80.8(16) . .
O13 Hf1 O4 141.8(17) 10 .
O13 Hf1 O4 141.8(17) . 10
O13 Hf1 O4 80.8(16) 10 10
O13 Hf1 O13 123(2) 10 .
O13 Hf1 O19 72.1(14) . .
O13 Hf1 O19 72.1(14) 10 .
O13 Hf1 O20 71.6(13) . .
O13 Hf1 O20 71.6(13) 10 .
O19 Hf1 Hf1 175(2) . 11
O19 Hf1 Hf1 85(2) . 3
O19 Hf1 Hf2 117.6(13) . 9
O19 Hf1 Hf2 117.6(13) . .
O19 Hf1 O4 90(2) . 10
O19 Hf1 O4 90(2) . .
O19 Hf1 O20 99(3) . .
O20 Hf1 Hf1 175.8(16) . 3
O20 Hf1 Hf1 85.8(16) . 11
O20 Hf1 Hf2 117.9(10) . 9
O20 Hf1 Hf2 117.9(10) . .
O20 Hf1 O4 146.1(13) . .
O20 Hf1 O4 146.2(13) . 10
Hf1 Hf2 Hf1 60.90(11) 9 11
Hf1 Hf2 Hf1 60.90(11) 11 .
Hf1 Hf2 Hf1 60.90(11) 3 9
Hf1 Hf2 Hf1 60.90(11) 3 .
Hf1 Hf2 Hf1 91.56(19) 3 11
Hf1 Hf2 Hf1 91.56(19) 9 .
O1 Hf2 Hf1 75.8(11) 2 9
O1 Hf2 Hf1 114.4(11) 4 .
O1 Hf2 Hf1 108.3(11) 2 3
O1 Hf2 Hf1 75.8(11) . .
O1 Hf2 Hf1 114.4(11) 2 11
O1 Hf2 Hf1 108.3(11) 4 9
O1 Hf2 Hf1 166.7(11) 4 3
O1 Hf2 Hf1 75.8(11) 3 3
O1 Hf2 Hf1 166.7(11) 2 .
O1 Hf2 Hf1 108.3(11) 3 .
O1 Hf2 Hf1 114.4(11) 3 9
O1 Hf2 Hf1 108.3(11) . 11
O1 Hf2 Hf1 166.7(11) . 9
O1 Hf2 Hf1 114.4(11) . 3
O1 Hf2 Hf1 75.8(11) 4 11
O1 Hf2 Hf1 166.7(11) 3 11
O1 Hf2 O1 117(2) . 2
O1 Hf2 O1 74.2(10) 3 2
O1 Hf2 O1 74.2(10) 4 2
O1 Hf2 O1 74.2(10) . 4
O1 Hf2 O1 117(2) 4 3
O1 Hf2 O1 74.2(10) . 3
O4 Hf2 Hf1 92.4(15) 2 3
O4 Hf2 Hf1 39.8(15) 4 11
O4 Hf2 Hf1 92.4(15) 4 9
O4 Hf2 Hf1 86.8(16) . 9
O4 Hf2 Hf1 29.8(16) 2 11
O4 Hf2 Hf1 29.8(16) 3 9
O4 Hf2 Hf1 92.4(15) 3 .
O4 Hf2 Hf1 86.8(16) 3 11
O4 Hf2 Hf1 86.8(16) 2 .
O4 Hf2 Hf1 29.8(16) 4 .
O4 Hf2 Hf1 86.8(16) 4 3
O4 Hf2 Hf1 39.8(15) . .
O4 Hf2 Hf1 39.8(15) 2 9
O4 Hf2 Hf1 39.8(15) 3 3
O4 Hf2 Hf1 92.4(15) . 11
O4 Hf2 Hf1 29.8(16) . 3
O4 Hf2 O1 133(2) 3 4
O4 Hf2 O1 86(2) 3 3
O4 Hf2 O1 74.6(18) 3 2
O4 Hf2 O1 74.6(18) . 3
O4 Hf2 O1 86(2) 2 2
O4 Hf2 O1 152(2) 4 2
O4 Hf2 O1 133(2) 2 .
O4 Hf2 O1 86(2) 4 4
O4 Hf2 O1 152(2) 3 .
O4 Hf2 O1 133(2) 4 3
O4 Hf2 O1 74.6(18) 4 .
O4 Hf2 O1 74.6(18) 2 4
O4 Hf2 O1 133(2) . 2
O4 Hf2 O1 152(2) . 4
O4 Hf2 O1 86(2) . .
O4 Hf2 O1 152(2) 2 3
O4 Hf2 O4 69.5(16) 3 2
O4 Hf2 O4 69.5(16) . 4
O4 Hf2 O4 69.5(16) 4 2
O4 Hf2 O4 107(3) . 2
O4 Hf2 O4 69.5(16) . 3
O4 Hf2 O4 107(3) 3 4
C12 O1 Hf2 135(3) . .
Hf1 O4 Hf1 108(2) 3 .
Hf2 O4 Hf1 121(3) . 3
Hf2 O4 Hf1 107(2) . .
C12 O13 Hf1 137(3) . .
C8 C3 C4 117.5(11) . .
C9 C3 C4 115(4) . .
C9 C3 C8 127(4) . .
C3 C4 H4 120.2 . .
C5 C4 C3 120(3) . .
C5 C4 H4 120.2 . .
C4 C5 H5 118.6 . .
C4 C5 C6 123(4) . .
C6 C5 H5 118.6 . .
C5 C6 C7 117.6(11) . .
C12 C6 C5 117(4) . .
C12 C6 C7 125(4) . .
C6 C7 H7 120.2 . .
C8 C7 C6 120(3) . .
C8 C7 H7 120.2 . .
C3 C8 H8 118.6 . .
C7 C8 C3 123(4) . .
C7 C8 H8 118.6 . .
C16 C9 C3 118.5(8) . .
C16 C9 C10 119.8 . .
C10 C9 C3 121.3(10) . .
C9 C16 C15 120.9 . .
C17 C16 C9 128.0(2) . .
C17 C16 C15 111.0(2) . .
C16 C15 C16 118.1(15) 7_455 .
C16 C15 C15 120(6) . 2_565
C16 C15 C15 121(6) 7_455 2_565
C16 C15 C15D 2(10) 7_455 .
C15D C15 C16 118.3 . .
C15D C15 C15 121(5) . 2_565
C9 C15D C15 120.1(17) 7_455 .
C9 C15D C9D 1(4) 7_455 .
C16 C15D C9 96(10) 7_455 7_455
C16 C15D C15 65(10) 7_455 .
C16 C15D C9D 97(10) 7_455 .
C9D C15D C15 120.7 . .
C9 C9D C16 75(10) 7_455 7_455
C9 C9D C15D 77(10) 7_455 .
C9 C9D C10 76(10) 7_455 .
C15D C9D C16 3(10) . 7_455
C15D C9D C10 119.8 . .
C10 C9D C16 119(3) . 7_455
C9 C10 C9 119.8(17) 7_455 .
C9 C10 C9D 1(4) 7_455 .
C9D C10 C9 120.4 . .
C11 C10 C9 120.3(17) . 7_455
C11 C10 C9 119.9(2) . .
C11 C10 C9D 119.7(2) . .
C10 C11 H11A 109.5 . .
C10 C11 H11B 109.5 . .
C10 C11 H11C 109.4 . .
H11A C11 H11B 109.5 . .
H11A C11 H11C 109.5 . .
H11B C11 H11C 109.5 . .
O1 C12 C6 116(3) . .
O13 C12 O1 115(4) . .
O13 C12 C6 125(3) . .
C16 C17 H 109.4 . .
C16 C17 HA 109.5 . .
C16 C17 HB 109.5 . .
H C17 HA 109.5 . .
H C17 HB 109.5 . .
HA C17 HB 109.5 . .
loop_
_geom_bond_atom_site_label_1
_geom_bond_atom_site_label_2
_geom_bond_distance
_geom_bond_site_symmetry_2
Hf1 Hf1 3.512(7) 11
Hf1 Hf1 3.512(7) 3
Hf1 Hf2 3.465(6) .
Hf1 Hf2 3.465(6) 9
Hf1 O4 2.01(5) 11
Hf1 O4 2.01(5) 4
Hf1 O4 2.32(5) .
Hf1 O4 2.32(5) 10
Hf1 O13 2.139(19) 10
Hf1 O13 2.139(19) .
Hf1 O19 2.17(8) .
Hf1 O20 2.28(7) .
Hf2 Hf1 3.465(6) 3
Hf2 Hf1 3.465(6) 9
Hf2 Hf1 3.465(6) 11
Hf2 O1 2.123(19) 3
Hf2 O1 2.123(19) 4
Hf2 O1 2.123(19) 2
Hf2 O1 2.123(19) .
Hf2 O4 1.97(5) 3
Hf2 O4 1.97(5) 4
Hf2 O4 1.97(5) .
Hf2 O4 1.97(5) 2
O1 C12 1.408(9) .
O4 Hf1 2.01(5) 3
O13 C12 1.406(9) .
C3 C4 1.46(5) .
C3 C8 1.42(5) .
C3 C9 1.411(6) .
C4 H4 0.9300 .
C4 C5 1.391(10) .
C5 H5 0.9300 .
C5 C6 1.42(5) .
C6 C7 1.47(5) .
C6 C12 1.411(6) .
C7 H7 0.9300 .
C7 C8 1.390(10) .
C8 H8 0.9300 .
C9 C16 1.3900 .
C9 C10 1.3861 .
C16 C15 1.3978 .
C16 C17 1.282(4) .
C15 C16 1.38(6) 7_455
C15 C15 1.40(5) 2_565
C15 C15D 1.4071 .
C15D C9 1.38(2) 7_455
C15D C16 0.1(3) 7_455
C15D C9D 1.3900 .
C9D C9 0.04(11) 7_455
C9D C16 1.399(10) 7_455
C9D C10 1.3888 .
C10 C9 1.38(2) 7_455
C10 C11 1.371(4) .
C11 H11A 0.9600 .
C11 H11B 0.9600 .
C11 H11C 0.9600 .
C17 H 0.9600 .
C17 HA 0.9600 .
C17 HB 0.9600 .
loop_
_geom_torsion_atom_site_label_1
_geom_torsion_atom_site_label_2
_geom_torsion_atom_site_label_3
_geom_torsion_atom_site_label_4
_geom_torsion
_geom_torsion_site_symmetry_1
_geom_torsion_site_symmetry_4
Hf1 O13 C12 O1 11(6) . .
Hf1 O13 C12 C6 169(3) . .
Hf2 O1 C12 O13 -19(5) . .
Hf2 O1 C12 C6 -178(2) . .
C3 C4 C5 C6 0.0(4) . .
C3 C9 C16 C15 -174(5) . .
C3 C9 C16 C17 7(5) . .
C3 C9 C10 C9 173(4) . 7_455
C3 C9 C10 C9D 172(5) . .
C3 C9 C10 C11 -7(5) . .
C4 C3 C8 C7 0.0(3) . .
C4 C3 C9 C16 -79(2) . .
C4 C3 C9 C10 108(3) . .
C4 C5 C6 C7 0.0(3) . .
C4 C5 C6 C12 180.0(2) . .
C5 C6 C7 C8 0.0(4) . .
C5 C6 C12 O1 171(3) . .
C5 C6 C12 O13 15(3) . .
C6 C7 C8 C3 0.0(5) . .
C7 C6 C12 O1 -9(3) . .
C7 C6 C12 O13 -165(3) . .
C8 C3 C4 C5 0.0(3) . .
C8 C3 C9 C16 101(2) . .
C8 C3 C9 C10 -72(3) . .
C9 C3 C4 C5 180.0(2) . .
C9 C3 C8 C7 180.0(2) . .
C9 C16 C15 C16 1(13) . 7_455
C9 C16 C15 C15 -180(8) . 2_565
C9 C16 C15 C15D 3.2 . .
C9 C15D C9D C16 -1(37) 7_455 7_455
C9 C15D C9D C10 66(86) 7_455 .
C9 C9D C10 C9 67(85) 7_455 .
C9 C9D C10 C11 -114(85) 7_455 .
C16 C9 C10 C9 1(5) . 7_455
C16 C9 C10 C9D -0.8 . .
C16 C9 C10 C11 -179.5(5) . .
C16 C15 C15D C9 -5(5) . 7_455
C16 C15 C15D C9 82(39) 7_455 7_455
C16 C15 C15D C16 -87(41) . 7_455
C16 C15 C15D C9D -3.2 . .
C16 C15 C15D C9D 84(41) 7_455 .
C16 C15D C9D C9 1(36) 7_455 7_455
C16 C15D C9D C10 67(100) 7_455 .
C16 C9D C10 C9 3(13) 7_455 .
C16 C9D C10 C9 -64(78) 7_455 7_455
C16 C9D C10 C11 -178(13) 7_455 .
C15 C15 C15D C9 178(14) 2_565 7_455
C15 C15 C15D C16 96(47) 2_565 7_455
C15 C15 C15D C9D 180(9) 2_565 .
C15 C15D C9D C9 -65(86) . 7_455
C15 C15D C9D C16 -66(100) . 7_455
C15 C15D C9D C10 1.3 . .
C15D C9D C10 C9 -66(86) . 7_455
C15D C9D C10 C9 0.8 . .
C15D C9D C10 C11 179.5(5) . .
C10 C9 C16 C15 -1.3 . .
C10 C9 C16 C17 179.38(16) . .
C12 C6 C7 C8 180.0(2) . .
C17 C16 C15 C16 -180(13) . 7_455
C17 C16 C15 C15 0(8) . 2_565
C17 C16 C15 C15D -177.34(13) . .
loop_
_exptl_oxdiff_crystal_face_indexfrac_h
_exptl_oxdiff_crystal_face_indexfrac_k
_exptl_oxdiff_crystal_face_indexfrac_l
_exptl_oxdiff_crystal_face_x
_exptl_oxdiff_crystal_face_y
_exptl_oxdiff_crystal_face_z
26.9202 -2.0820 5.9410 -0.0373 -0.9110 0.4425
22.9476 6.9210 -20.0325 -0.0134 -0.9661 -0.2278
10.9955 11.9569 -36.9891 -0.0139 -0.6643 -0.7550
-15.9287 10.0454 -32.9328 -0.0011 0.3257 -0.9476
-26.9243 0.0837 0.0541 0.0354 0.9559 -0.2994
-24.9380 -4.9166 14.0414 0.0179 0.9920 0.0625
-12.9900 -10.9530 34.9920 0.0279 0.7181 0.6794
7.9471 -12.0188 38.9439 0.0098 0.0025 1.0020
15.9287 -10.0454 32.9328 0.0011 -0.3257 0.9476
-2.8485 -23.8298 -20.7233 -0.9863 0.1411 -0.0067
2.8485 23.8298 20.7233 0.9863 -0.1411 0.0067
