#------------------------------------------------------------------------------
#$Date: 2019-11-25 22:30:06 +0200 (Mon, 25 Nov 2019) $
#$Revision: 241967 $
#$URL: file:///home/coder/svn-repositories/cod/cif/4/13/18/4131841.cif $
#------------------------------------------------------------------------------
#
# This file is available in the Crystallography Open Database (COD),
# http://www.crystallography.net/
#
# All data on this site have been placed in the public domain by the
# contributors.
#
data_4131841
loop_
_publ_author_name
'Yan, Yong'
'O'Connor, Alice E'
'Kanthasamy, Gopikkaa'
'Atkinson, George'
'Allan, David R.'
'Blake, Alexander J.'
'Schr\"oder, Martin'
_publ_section_title
;
 Unusual and Tunable Negative Linear Compressibility in the Metal-Organic
 Framework MFM-133(M) (M = Zr, Hf).
;
_journal_issue                   11
_journal_name_full               'Journal of the American Chemical Society'
_journal_page_first              3952
_journal_page_last               3958
_journal_paper_doi               10.1021/jacs.7b11747
_journal_volume                  140
_journal_year                    2018
_chemical_formula_moiety         'C88 H72 Hf6 O32'
_chemical_formula_sum            'C88 H72 Hf6 O32'
_chemical_formula_weight         2708.36
_space_group_crystal_system      tetragonal
_space_group_IT_number           128
_space_group_name_Hall           '-P 4 2n'
_space_group_name_H-M_alt        'P 4/m n c'
_atom_sites_solution_hydrogens   geom
_audit_creation_date             2017-02-05
_audit_creation_method
;
Olex2 1.2
(compiled 2015.09.30 svn.r3233 for OlexSys, GUI svn.r5103)
;
_cell_angle_alpha                90
_cell_angle_beta                 90
_cell_angle_gamma                90
_cell_formula_units_Z            2
_cell_length_a                   19.1631(10)
_cell_length_b                   19.1631(10)
_cell_length_c                   32.547(2)
_cell_measurement_reflns_used    3681
_cell_measurement_temperature    293(2)
_cell_measurement_theta_max      13.6810
_cell_measurement_theta_min      1.9430
_cell_volume                     11952.1(11)
_computing_cell_refinement       'CrysAlisPro 1.171.38.41 (Rigaku OD, 2015)'
_computing_data_collection       'CrysAlisPro 1.171.38.41 (Rigaku OD, 2015)'
_computing_data_reduction        'CrysAlisPro 1.171.38.41 (Rigaku OD, 2015)'
_computing_molecular_graphics    'Olex2 (Dolomanov et al., 2009)'
_computing_publication_material  'Olex2 (Dolomanov et al., 2009)'
_computing_structure_refinement  'ShelXL (Sheldrick, 2015)'
_diffrn_ambient_temperature      293(2)
_diffrn_detector                 'CCD plate'
_diffrn_detector_area_resol_mean 16.1592
_diffrn_detector_type            Eos
_diffrn_measured_fraction_theta_full 0.925
_diffrn_measured_fraction_theta_max 0.925
_diffrn_measurement_details
;
List of Runs (angles in degrees, time in seconds):

  # Type    Start    End  Width  t~exp~   \w     \q     \k     \f   Frames
--------------------------------------------------------------------------
  1  \w      4.00  64.00   1.00  120.00    --   26.49   0.00 150.00   60
  2  \w     -5.00  44.00   1.00  120.00    --   26.49 -53.00  17.00   49
  3  \w    -49.00 -17.00   1.00  120.00    --   26.49 134.00 123.00   32
  4  \w    -30.00   6.00   1.00  120.00    --   26.49  39.00 -12.00   36
  5  \w    -25.00  15.00   1.00  120.00    --   26.49  13.00  -3.00   40
  6  \w      9.00  69.00   1.00  120.00    --   26.49 -97.00-143.00   60
  7  \w    -28.00 -15.00   1.00  120.00    --   26.49  97.00 -35.00   13
  8  \w    -57.00   1.00   1.00  120.00    --  -28.05  53.00 -17.00   58
  9  \w     -5.00  15.00   1.00  120.00    --  -28.05 -81.00  29.00   20
 10  \w      3.00  26.00   1.00  120.00    --  -28.05 -97.00  35.00   23
 11  \w    -20.00  13.00   1.00  120.00    --  -28.05 -53.00  17.00   33
 12  \w     -5.00  27.00   1.00  120.00    --  -28.05 -97.00-143.00   32
 13  \w    -20.00   7.00   1.00  120.00    --   26.49  81.00 151.00   27
 14  \w     -7.00  53.00   1.00  120.00    --   26.49 -37.00-180.00   60
 15  \w    -29.00 -15.00   1.00  120.00    --   26.49  97.00 -35.00   14
 16  \w     17.00  70.00   1.00  120.00    --   26.49-114.00  44.00   53
 17  \w    -52.00   7.00   1.00  120.00    --  -28.05  39.00 167.00   59
 18  \w    -23.00  29.00   1.00  120.00    --  -28.05 -39.00  12.00   52
 19  \w    -28.00  25.00   1.00  120.00    --  -28.05 -39.00-167.00   53
 20  \w     15.00  37.00   1.00  120.00    --  -28.05-114.00  44.00   22
;
_diffrn_measurement_device       'four-circle diffractometer'
_diffrn_measurement_device_type  'SuperNova, Single source at offset, Eos'
_diffrn_measurement_method       '\w scans'
_diffrn_orient_matrix_type
'CrysAlisPro convention (1999,Acta A55,543-557)'
_diffrn_orient_matrix_UB_11      -0.0013479000
_diffrn_orient_matrix_UB_12      0.0322204000
_diffrn_orient_matrix_UB_13      0.0106106000
_diffrn_orient_matrix_UB_21      -0.0353568000
_diffrn_orient_matrix_UB_22      -0.0064025000
_diffrn_orient_matrix_UB_23      0.0053101000
_diffrn_orient_matrix_UB_31      0.0109964000
_diffrn_orient_matrix_UB_32      -0.0169418000
_diffrn_orient_matrix_UB_33      0.0182899000
_diffrn_radiation_monochromator  mirror
_diffrn_radiation_probe          x-ray
_diffrn_radiation_type           MoK\a
_diffrn_radiation_wavelength     0.71073
_diffrn_reflns_av_R_equivalents  0.4103
_diffrn_reflns_av_unetI/netI     0.1187
_diffrn_reflns_Laue_measured_fraction_full 0.925
_diffrn_reflns_Laue_measured_fraction_max 0.925
_diffrn_reflns_limit_h_max       12
_diffrn_reflns_limit_h_min       -12
_diffrn_reflns_limit_k_max       10
_diffrn_reflns_limit_k_min       -10
_diffrn_reflns_limit_l_max       21
_diffrn_reflns_limit_l_min       -21
_diffrn_reflns_number            23277
_diffrn_reflns_point_group_measured_fraction_full 0.925
_diffrn_reflns_point_group_measured_fraction_max 0.925
_diffrn_reflns_theta_full        13.700
_diffrn_reflns_theta_max         13.700
_diffrn_reflns_theta_min         1.956
_diffrn_source                   'micro-focus sealed X-ray tube'
_diffrn_source_type              'SuperNova (Mo) X-ray Source'
_exptl_absorpt_coefficient_mu    2.625
_exptl_absorpt_correction_T_max  0.847
_exptl_absorpt_correction_T_min  0.811
_exptl_absorpt_correction_type   gaussian
_exptl_absorpt_process_details
;
CrysAlisPro 1.171.38.41 (Rigaku Oxford Diffraction, 2015)
Numerical absorption correction based on gaussian integration over
			a multifaceted crystal model
Empirical absorption correction using spherical harmonics,
 implemented in SCALE3 ABSPACK scaling algorithm.
;
_exptl_crystal_colour            colourless
_exptl_crystal_colour_primary    colourless
_exptl_crystal_density_diffrn    0.753
_exptl_crystal_F_000             2568
_exptl_crystal_size_max          0.104
_exptl_crystal_size_mid          0.085
_exptl_crystal_size_min          0.052
_refine_diff_density_max         1.763
_refine_diff_density_min         -1.070
_refine_diff_density_rms         0.273
_refine_ls_extinction_coef       0.00010(14)
_refine_ls_extinction_expression Fc^*^=kFc[1+0.001xFc^2^\l^3^/sin(2\q)]^-1/4^
_refine_ls_extinction_method     'SHELXL-2014/7 (Sheldrick 2014'
_refine_ls_goodness_of_fit_ref   1.573
_refine_ls_hydrogen_treatment    constr
_refine_ls_matrix_type           full
_refine_ls_number_parameters     77
_refine_ls_number_reflns         897
_refine_ls_number_restraints     73
_refine_ls_restrained_S_all      7.519
_refine_ls_R_factor_all          0.1699
_refine_ls_R_factor_gt           0.1397
_refine_ls_shift/su_max          0.797
_refine_ls_shift/su_mean         0.017
_refine_ls_structure_factor_coef Fsqd
_refine_ls_weighting_details
'w=1/[\s^2^(Fo^2^)+(0.2000P)^2^] where P=(Fo^2^+2Fc^2^)/3'
_refine_ls_weighting_scheme      calc
_refine_ls_wR_factor_gt          0.3629
_refine_ls_wR_factor_ref         0.3875
_reflns_Friedel_coverage         0.000
_reflns_number_gt                701
_reflns_number_total             897
_reflns_threshold_expression     'I > 2\s(I)'
_cod_data_source_file            HfMOF_All.cif
_cod_data_source_block           hfmof_18.1kbar
_cod_original_cell_volume        11952.0(15)
_cod_database_code               4131841
_chemical_oxdiff_formula         'C88 H72 Hf6 O32'
_chemical_oxdiff_usercomment     'HFMOF at 18.1kbar'
_shelx_space_group_comment
;
The symmetry employed for this shelxl refinement is uniquely defined
by the following loop, which should always be used as a source of
symmetry information in preference to the above space-group names.
They are only intended as comments.
;
_reflns_odcompleteness_completeness 15.48
_reflns_odcompleteness_iscentric 1
_reflns_odcompleteness_theta     26.32
_olex2_refinement_description
;
1. Fixed Uiso
 At 1.2 times of:
  All C(H) groups
 At 1.5 times of:
  All C(H,H,H) groups
2. Restrained distances
 O13-C12
 1.41 with sigma of 0.01
 C12-O1
 1.41 with sigma of 0.01
 C6-C12 = C9-C3
 1.41 with sigma of 0.02
 C6-C12 = C9-C3
 1.41 with sigma of 0.01
 C9-C3 = C6-C12
 1.41 with sigma of 0.01
 Hf1-O13 = Hf2-O1
 2.11 with sigma of 0.02
 O1-C12 = O13-C12
 1.41 with sigma of 0.02
 C9-C15 = C9-C10
 1.41 with sigma of 0.02
 C10-C11 = C16-C17
 1.45 with sigma of 0.005
 C4-C5 = C7-C8
 1.39 with sigma of 0.01
 C6-C12 \\sim C9-C3
 with sigma of 0.01
 C9-C3 \\sim C6-C12
 with sigma of 0.01
 C11-C10 \\sim C16-C15 \\sim C17-C15
 with sigma of 0.01
 C9-C17 \\sim C15-C17 \\sim C9-C11 \\sim C11-C9D
 with sigma of 0.005
 C3-C7 \\sim C8-C6 \\sim C7-C5 \\sim C6-C4 \\sim C5-C3 \\sim C4-C8
 with sigma of 0.01
3. Restrained planarity
 C12, C6, C5, C4, C3, C9, C8, C7
 with sigma of 0.01
 C9, C3, C8, C7, C6, C12, C5, C4
 with sigma of 0.01
 C9, C3, C8, C4
 with sigma of 0.01
 C17, C15, C16, C10, C9, C11
 with sigma of 0.01
4. Rigid bond restraints
 C6, Hf2, Hf1, C8, C3, C5, C4, C7, C9, C10, C11, C12, C15, C16, C17, O1, O4,
 O13, O19, O20
 with sigma for 1-2 distances of 0.01 and sigma for 1-3 distances of 0.01
5. Uiso/Uaniso restraints and constraints
C6 \\sim Hf2 \\sim Hf1 \\sim C8 \\sim C3 \\sim C5 \\sim C4 \\sim C7 \\sim C9
\\sim C10 \\sim C11 \\sim C12 \\sim C15 \\sim C16 \\sim C17 \\sim O1 \\sim O4
\\sim O13 \\sim O19 \\sim O20: within 1.7A with sigma of 0.04 and sigma for
terminal atoms of 0.08
6. Others
 Fixed Sof: C16(0.5) C15(0.5) C15D(0.00001) C9D(0.00001) C10(0.5) C11(0.5)
 H11A(0.5) H11B(0.5) H11C(0.5)
 Fixed Uiso: C15D(0.05) C9D(0.05)
7.a Aromatic/amide H refined with riding coordinates:
 C4(H4), C5(H5), C7(H7), C8(H8)
7.b Fitted hexagon refined as free rotating group:
 C9(C16,C15,C15D,C9D,C10)
7.c Idealised Me refined as rotating group:
 C11(H11A,H11B,H11C), C17(H,HA,HB)
;
_shelx_res_file
;
    hfmof_18.1kbar.res created by SHELXL-2014/7

TITL HFMOF_18 in P4/mnc
REM P4/mnc (#128 in standard setting)
REM SAME 0.01 0.04 C16 C15 C15D C9D C10 C9
CELL 0.71073 19.163054 19.163054 32.547135 90 90 90
ZERR 2 0.00102 0.00102 0.002243 0 0 0
LATT 1
SYMM -X,-Y,+Z
SYMM -Y,+X,+Z
SYMM +Y,-X,+Z
SYMM 0.5-X,0.5+Y,0.5-Z
SYMM 0.5+X,0.5-Y,0.5-Z
SYMM 0.5+Y,0.5+X,0.5-Z
SYMM 0.5-Y,0.5-X,0.5-Z
SFAC C H Hf O
UNIT 176 136 12 64
DFIX 1.41 0.01 O13 C12
DFIX 1.41 0.01 C12 O1
DFIX 1.41 C6 C12 C9 C3
DFIX 1.41 0.01 C6 C12 C9 C3
DFIX 1.41 0.01 C9 C3 C6 C12
DFIX 2.11 Hf1 O13 Hf2 O1
DFIX 1.41 O1 C12 O13 C12
DFIX 1.41 C9 C15 C9 C10
DFIX 1.45 0.005 C10 C11 C16 C17
DFIX 1.39 0.01 C4 C5 C7 C8
SADI 0.01 C6 C12 C9 C3
SADI 0.01 C9 C3 C6 C12
SADI 0.01 C11 C10 C16 C15 C17 C15
SADI 0.005 C9 C17 C15 C17 C9 C11 C11 C9D
SADI 0.01 C3 C7 C8 C6 C7 C5 C6 C4 C5 C3 C4 C8
FLAT 0.01 C12 C6 C5 C4 C3 C9 C8 C7
FLAT 0.01 C9 C3 C8 C7 C6 C12 C5 C4
FLAT 0.01 C9 C3 C8 C4
FLAT 0.01 C17 C15 C16 C10 C9 C11
DELU C6 Hf2 Hf1 C8 C3 C5 C4 C7 C9 C10 C11 C12 C15 C16 C17 O1 O4 O13 O19 O20
SIMU 0.04 0.08 1.7 C6 Hf2 Hf1 C8 C3 C5 C4 C7 C9 C10 C11 C12 C15 C16 C17 O1 =
 O4 O13 O19 O20

L.S. 6
PLAN  9
MPLA 6 C3 C4 C5 C6 C7 C8
MPLA 4 C9 C10 C15 C16
CONN 1 0 C17
FREE C17 C15D
FREE C17 C15
BIND Hf1 Hf2
BIND C16 C17
BOND
MORE -1
BOND $H
CONF
fmap 2
acta 52
OMIT -4 52
OMIT 2 5 3
OMIT 1 3 7
OMIT 1 3 5
OMIT 2 3 0
OMIT 0 3 3
OMIT 1 2 0
OMIT 1 2 6
REM <olex2.extras>
REM <HklSrc "%.\\HFMOF_18.1kbar.hkl">
REM </olex2.extras>

WGHT    0.200000
EXTI    0.000103
FVAR       0.12000
HF1   3   -0.042203    0.122552    0.000000    10.50000    0.07020    0.05375 =
         0.01890    0.00000    0.00000    0.00594
HF2   3    0.000000    0.000000    0.074774    10.25000    0.05578    0.05578 =
         0.01411    0.00000    0.00000    0.00000
O1    4   -0.025943    0.091049    0.108701    11.00000    0.03813
O4    4   -0.081945    0.034969    0.036273    11.00000    0.08447
O13   4   -0.059323    0.171209    0.058401    11.00000    0.06033
O19   4   -0.147880    0.164959    0.000000    10.50000    0.07178
O20   4    0.021031    0.225485    0.000000    10.50000    0.05792
C3    1   -0.068090    0.311995    0.191783    11.00000    0.07725
C4    1   -0.088300    0.325530    0.150886    11.00000    0.10657
SPEC 0.3
AFIX  43
H4    2   -0.104454    0.369544    0.143509    11.00000   -1.20000
AFIX   0
C5    1   -0.083983    0.272847    0.121649    11.00000    0.09604
AFIX  43
H5    2   -0.097325    0.281919    0.094701    11.00000   -1.20000
AFIX   0
C6    1   -0.059934    0.206646    0.132190    11.00000    0.08096
C7    1   -0.039748    0.193082    0.173043    11.00000    0.10679
AFIX  43
H7    2   -0.023615    0.149057    0.180414    11.00000   -1.20000
AFIX   0
C8    1   -0.044051    0.245799    0.202294    11.00000    0.09236
AFIX  43
H8    2   -0.030691    0.236717    0.229239    11.00000   -1.20000
AFIX  66
C9    1   -0.074061    0.368281    0.219531    11.00000    0.03512
PART -2
C16   1   -0.021610    0.418382    0.219791    10.50000   -0.00100
PART 0
C15   1   -0.028983    0.472607    0.247827    10.50000    0.03301
C15D  1   -0.088353    0.487544    0.267428    10.00001   10.05000
C9D   1   -0.140804    0.437444    0.267168    10.00001   10.05000
PART -1
C10   1   -0.133659    0.377813    0.243220    10.50000    0.04131
AFIX   0
C11   1   -0.188977    0.326700    0.242069    10.50000    0.08683
AFIX 137
H11A  2   -0.226521    0.343804    0.225337    10.50000   -1.50000
H11B  2   -0.205677    0.318381    0.269443    10.50000   -1.50000
H11C  2   -0.171516    0.283928    0.230662    10.50000   -1.50000
AFIX   0
PART 0
C12   1   -0.057174    0.156128    0.100692    11.00000    0.05654
PART -2
C17   1    0.036958    0.419800    0.197732    11.00000    0.12327
PART 0
AFIX 137
H     2    0.075540    0.405945    0.214685    11.00000   -1.50000
HA    2    0.044718    0.466241    0.187661    11.00000   -1.50000
HB    2    0.032806    0.388235    0.174959    11.00000   -1.50000
AFIX   0
HKLF 4

REM  HFMOF_18 in P4/mnc
REM R1 =  0.1397 for     701 Fo > 4sig(Fo)  and  0.1699 for all     897 data
REM     77 parameters refined using     73 restraints

END

WGHT      0.2000      0.0000

REM Highest difference peak  1.763,  deepest hole -1.070,  1-sigma level  0.273
Q1    1   0.0000  0.0000  0.2014  10.25000  0.05    1.76
Q2    1  -0.0488  0.0947  0.0000  10.50000  0.05    1.71
Q3    1  -0.0670  0.1370  0.0000  10.50000  0.05    1.46
Q4    1  -0.0495  0.1820  0.0000  10.50000  0.05    1.34
Q5    1   0.0384  0.0045  0.0621  11.00000  0.05    1.31
Q6    1  -0.0749  0.1543  0.0732  11.00000  0.05    1.12
Q7    1   0.2041  0.5021  0.1825  11.00000  0.05    1.11
Q8    1  -0.1180  0.0688  0.0521  11.00000  0.05    1.03
Q9    1   0.0948  0.2198 -0.0787  11.00000  0.05    1.02
;
_shelx_res_checksum              12672
_shelx_hkl_file
;
   0   0  12 9081.42 2402.91  16
   0   1  -2-0.79039 4.69295   3
   1   0  -2-20.6626 64.0606   9
   0  -1   2-1.81383 5.62860  16
   1   0  -2-2.24476 17.8545   1
   1   0  -2 3.74408 19.1441  11
  -1   0   2 0.36812 13.3786  17
  -1   0   2-4.47976 17.5210   2
   1   0  -2 2.49582 17.7377  18
   1   0   2-2.37178 13.7011   6
   0   1  -2 0.67803 4.53168  13
   0   1  -3 5502.68 271.157  18
  -1   0   3 7718.10 573.735  17
   0  -1   3 6211.95 360.031   6
   1   0  -3 3870.31 431.873  11
   0  -1   3 6492.55 342.750   2
   0  -1   3 6360.00 390.027  16
   1   0  -3 4458.61 422.520  18
   0  -1   3 6320.25 328.504  17
   0  -1   4 2.26194 7.79703   2
   0  -1   4 1.96694 14.0569   6
   1   0  -4 5.62641 29.2198  11
  -1   0   4-2.83900 24.7040  17
   0   1  -4 0.75758 7.47079  18
   0  -1   4-0.59088 12.6423  17
   0  -1   4 4.31131 19.2924  16
   0   1  -4 2.06957 18.7378  20
   1   0  -4-14.1022 32.2615  18
   0   1  -4-3.53936 17.5692  15
   1   0   4 10.5137 47.3841   6
   0   1  -4 8.29500 19.2213   7
   0   1  -4-5.67465 15.9102  11
   0   1  -5 759.447 154.173  11
   0   1  -5 522.108 196.489  15
   1   0  -5 343.686 146.453  18
   0   1  -5 832.385 200.357   9
   0  -1   5 835.933 153.086   2
   1   0  -5 305.733 150.133  11
   0  -1   5 710.238 189.478  16
   0   1  -5 805.840 232.176  20
   1   0   5-38.0653 136.781   6
  -1   0   5 976.846 276.786  17
   0   1  -5 576.768 222.625   7
   0   1  -5 816.966 208.223  10
   0   1  -5 696.874 127.416  18
   0  -1   5 664.586 222.570   6
   0  -1   5 964.859 159.800  17
   0   1  -6-2.42306 18.6483  18
   1   0  -6-11.3869 68.6708  11
  -1   0   6-16.2583 77.9563  17
   0  -1   6 4.79729 28.5061  16
   0  -1   6 12.4830 35.5196  17
   0  -1   6-32.2633 89.7513   6
   0   1  -6 5.05962 34.4013  20
   0   1  -6 37.5814 61.3662  10
   0   1  -6-4.30495 18.7281   9
   0  -1   6 0.73090 30.0159   2
   0   1  -6-11.6273 11.5425  11
   0  -1   7 807.572 199.741  17
   0   1  -7 359.817 249.529  20
   1   0  -7 53.5201 85.0036  11
   0   1  -7 437.312 173.942   9
   0   1  -7 512.998 203.821  10
   0   1  -7 402.629 146.956  11
   0  -1   7 596.839 163.917   2
   0  -1   7 197.999 160.906   6
   0   1  -7 398.955 137.158  18
   0  -1   7 508.836 218.821  16
  -1   0   7 678.450 241.402  17
   0   1  -8-34.6077 113.579  10
   0  -1   8 13.3006 151.002   6
   0  -1   8 6.00817 45.1964  17
   0   1  -8 8.25582 96.5178  20
   0  -1   8 24.2556 103.839  16
   0   1  -8 36.9119 52.9725  18
   0   1  -8-41.4651 93.8163   9
   0  -1   8-10.1509 11.2779   2
   0   1  -8 1.00630 35.5026  11
   0  -1   9 3580.58 498.394   2
   0   1  -9 1606.93 490.399  10
   0   1  -9 602.838 278.572  20
   0   1  -9 1235.29 394.216   9
   0   1  -9 1318.45 334.584  11
   0  -1   9 4456.17 610.562  17
   0  -1   9-84.2514 243.730   6
   0  -1   9 3289.36 700.385  16
   0   1  -9 1081.56 278.290  18
   0  -1  10-264.887 379.142   6
   0  -1  10 98.4127 164.307  16
   0   1 -10 81.0769 122.799   9
   0   1 -10 58.8476 99.3564  11
   1   0  10 113.499 194.806  16
   0  -1  10-11.7510 27.1438   2
   0   1 -10-119.204 248.372  20
   0   1 -10 63.3070 208.039  10
   0  -1  10-13.1079 105.006  17
   0  -1  11 8001.35 930.021  17
   0   1 -11 1242.62 469.899   9
   0  -1  11 6251.45 1130.71  16
   0   1 -11 1216.90 347.717  11
   0   1 -11 210.420 389.411  20
   1   0  11 5015.41 1471.47  16
   0  -1  11 7121.88 828.691   2
   0   1 -11 1236.10 540.292  10
   0  -1  12 58.6480 153.604   2
   0   1 -12-139.660 231.544   9
   0   1 -12-48.8886 164.818  10
   0   1 -12-99.1112 168.677  11
   0  -1  12 220.836 402.033  16
   1   0  12 352.202 532.039  16
   0  -1  13 5472.34 1222.02  16
   0  -1  13 6169.92 860.007   2
   1   0  13 5067.15 1443.23  16
   0  -1  14 507.302 348.679   2
   0  -1  14 851.392 598.213  16
   0  -1  15 6751.92 988.874   2
   0  -1  15 6516.00 1462.79  16
   0  -1  16 1332.72 716.061  16
   0  -1  16 861.397 402.800   2
   0  -1  17 3968.27 1196.66  16
   0  -1  17 4333.79 829.019   2
   0  -1  18 261.485 295.694   2
   0  -1  18 301.979 428.642  16
   0  -1  19 1286.44 815.530  16
   0  -1  20 751.342 792.704  16
  -1  -1   1-5.97771 21.8643   2
  -1   1  -1-3.01810 20.5682   3
   1   1  -1-0.60445 17.9994   1
  -1   1  -1 1.70553 9.55968  12
   1  -1   1 1.10072 8.24273   8
   1  -1   2 10757.9 436.865   6
   1   1  -2 9138.98 462.084  18
   1   1  -2 9493.92 451.127  13
  -1  -1   2 9226.18 540.266  17
   1  -1   2 8033.36 298.265   8
   1   1  -2 9796.55 609.138   1
   1  -1   2 10748.4 487.188  16
  -1   1  -2 9977.28 442.297   3
  -1  -1   2 9436.25 403.947  16
  -1  -1   2 8953.94 483.006   2
  -1   1  -2 9397.27 384.370  12
   1   1  -3 3.33921 6.54242   1
   1  -1   3 2.16325 15.4383   8
  -1   1  -3 0.95390 14.6121  19
  -1  -1   3 2.37339 14.4490   2
  -1   1  -3-3.65222 11.5992   4
   1  -1   3 2.15525 11.4439  14
  -1  -1   3-0.09163 4.18722  17
   1  -1   3 0.25218 7.09144  16
   1   1  -3 0.17483 3.12269  18
   1  -1   3-5.66423 8.78119   6
  -1  -1   3 6.38925 17.3323  16
  -1   1  -4 489.753 93.8304  11
   1  -1   4 498.278 130.263  16
  -1  -1   4 427.017 119.086  16
  -1   1  -4 419.390 136.561   4
  -1  -1   4 245.571 116.639   6
   1   1  -4 455.085 98.5690  18
   1   1  -4 270.612 106.949  15
  -1  -1   4 493.642 113.525   2
   1   1  -4 483.033 117.663  11
  -1   1  -4 501.265 151.866  20
   1   1  -4 531.053 97.9442   1
   1  -1   4 548.593 93.6128   2
  -1  -1   4 518.874 117.469  17
   1  -1   4 551.877 147.824   6
  -1   1  -4 421.309 106.110  19
   1   1  -4 546.996 157.263  20
   1   1  -4 278.942 121.279   7
   1  -1   4 483.270 98.4065  14
   1  -1   4 504.870 108.854   8
  -1   1  -5-11.7196 57.1011  15
  -1   1  -5-7.03764 32.6404  20
   1  -1   5 4.92638 9.83974   2
  -1   1  -5 14.4694 20.7430  19
  -1  -1   5-11.7011 25.0548   5
   1   1  -5 0.79613 29.3769  20
   1  -1   5 4.00703 49.0146   6
  -1   1  -5 43.6962 59.4640   7
   1   1  -5 6.12501 14.8310   1
   1   1  -5 3.68718 17.3967  18
   1  -1   5-1.84593 12.5327  17
  -1   1  -5 9.12106 46.7273   9
   1  -1   5-8.88480 18.5561   8
   1   1  -5-9.74756 26.3960  10
   1  -1   5 11.8805 28.7031  16
  -1  -1   5 5.66828 26.3430  16
   1   1  -5 34.6446 67.8360   9
  -1   1  -5-10.4140 21.5599  11
   1   1  -5 18.9701 33.4286  11
  -1  -1   5 21.7352 69.7428   6
  -1   1  -5 4.38420 8.23562  18
  -1  -1   5 11.9615 27.8021  17
  -1   1  -5 12.7386 17.2240  10
   1  -1   5 0.49459 15.5501  14
  -1  -1   5 11.9006 19.1188   2
   1  -1   6 348.926 191.230   6
  -1  -1   6 274.101 137.734  16
  -1   1  -6 273.580 108.167  11
  -1   1  -6 333.761 162.622  20
   1   1  -6 298.784 117.397  11
  -1   1  -6 100.972 68.9571  15
   1   1  -6 341.413 96.1888   1
   1  -1   6 428.730 119.708   2
  -1   1  -6 400.358 172.543  10
   1  -1   6 379.085 173.558   8
   1   1  -6 423.014 200.547  10
  -1   1  -6 143.458 97.0582   7
  -1   1  -6 263.902 104.396  18
  -1  -1   6-14.1983 38.3477   6
  -1   1  -6 350.879 135.100   9
   1  -1   6 619.797 168.566  17
   1   1  -6 314.476 104.414  18
  -1  -1   6 344.018 119.664   2
   1   1  -6 296.279 183.998  20
   1  -1   6 327.322 144.797  16
  -1  -1   6 459.572 136.704  17
   1   1  -6 414.493 166.487   9
   1   1  -7 3.58521 25.9214  10
   1  -1   7 8.33117 22.9254   2
  -1   1  -7 2.55803 26.7914  20
   1  -1   7-11.1628 50.9301   6
  -1  -1   7 2.03367 46.4659  16
   1   1  -7 5.02802 32.9041  18
   1  -1   7 15.3835 12.4881  16
   1   1  -7 5.54071 39.9664   9
  -1   1  -7 50.4176 87.8999  10
  -1  -1   7-0.09755 23.3070  17
   1  -1   7 17.8726 33.0427  17
   1   1  -7-0.44778 94.6303  20
   1   1  -7-24.7303 41.3041  11
  -1   1  -7-73.1170 171.756   7
  -1   1  -7 65.2635 85.4195   9
  -1   1  -7 15.1773 24.6889  11
   1  -1   7-11.9465 80.6766   8
  -1  -1   7-47.6710 209.093   6
   1   1  -7-0.30735 10.5753   1
  -1  -1   7 36.5604 57.4595   2
   1   1  -8 366.885 215.284  10
  -1   1  -8 456.605 198.304   9
   1   1  -8 618.895 261.973  20
   1   1  -8 671.872 191.315  18
   1   1  -8 785.114 182.193   1
  -1  -1   8 873.507 313.975  16
   1  -1   8 945.047 326.607  16
   1  -1   8 1294.82 317.924  17
   1   1  -8 625.348 189.430  11
  -1   1  -8 287.449 196.625  10
   1  -1   8 463.884 301.972   6
  -1   1  -8 354.901 169.650  11
  -1  -1   8 1003.67 249.678   2
   1  -1   8 1166.34 252.985   2
   1   1  -8 554.204 245.465   9
  -1  -1   8 1173.61 263.811  17
  -1   1  -8 564.646 257.915  20
   1   1  -9-33.9987 246.618  20
  -1  -1   9 4.53775 42.5981  17
   1   1  -9 61.6061 127.065   9
  -1  -1   9 17.6159 79.2606  16
  -1   1  -9 2.68461 90.0506  20
  -1   1  -9-41.8533 35.9891  10
   1  -1   9-32.6067 70.1716  16
  -1   1  -9 52.6164 110.190   9
   1   1  -9-21.8125 66.1613  18
   1   1  -9-43.5586 171.059  10
   1  -1   9 26.2287 110.026   6
  -1   1  -9-15.9382 87.1666  11
  -1  -1   9 0.52317 36.2974   2
   1   1  -9 16.6124 56.6768  11
   1  -1   9-0.11923 30.5888   2
   1   1 -10 837.116 381.064   9
   1   1 -10 1160.05 474.372  10
  -1   1 -10 292.652 114.426  11
   1  -1  10 890.821 379.478   6
  -1   1 -10 203.937 207.575  20
  -1   1 -10 523.112 299.872  10
  -1  -1  10 2353.12 444.334   2
   1  -1  10 2479.35 667.121  16
   1  -1  10 2711.27 461.740   2
   1   1 -10 973.460 278.818  18
  -1  -1  10 3077.44 520.948  17
  -1   1 -10 585.359 234.816   9
   1   1 -10 1032.63 305.948  11
  -1  -1  10 2411.49 654.928  16
   1   1 -10-635.428 553.021  20
  -1  -1  11 79.0376 77.4001  16
   1  -1  11 56.9677 106.554   2
  -1  -1  11 9.20022 89.9295  17
   1   1 -11 38.6293 157.770   9
  -1   1 -11-420.670 468.075  20
  -1   1 -11-217.943 253.899  11
  -1   1 -11-433.429 274.063   9
  -1  -1  11-17.8302 68.8333   2
  -1   1 -11 52.0201 147.884  10
   1   1 -11 78.0028 131.288  11
   1  -1  11-161.776 278.046   6
   1   1 -11 57.7838 105.871  10
   1   1 -11-86.3963 133.082  18
   1  -1  11 12.4225 91.9716  16
   1   1 -12 925.371 324.019  11
   1  -1  12 4045.88 949.887  16
   1   1 -12 427.160 211.107   9
  -1  -1  12 4435.93 693.343   2
  -1  -1  12 4017.89 1018.47  16
  -1   1 -12 227.514 71.7244  10
   1  -1  12 4974.40 721.259   2
   1   1 -12 558.159 158.089  18
  -1  -1  12 4962.13 747.792  17
   1   1 -12 611.998 410.789  10
   1  -1  12 15.0098 235.133   6
  -1  -1  13 188.776 199.662  17
  -1  -1  13 233.694 272.526   2
   1   1 -13 196.777 180.101  11
  -1  -1  13 635.636 537.061  16
   1  -1  13 159.807 246.880  16
   1  -1  13 60.8406 98.1259   2
  -1  -1  14 4337.25 1154.79  16
   1  -1  14 5217.42 795.763   2
  -1  -1  14 4190.16 734.619   2
   1  -1  14 4363.95 1094.15  16
   1  -1  15 109.044 137.501   2
   1   1 -15 314.567 109.296  11
   1  -1  15 221.035 340.711  16
  -1  -1  16 4259.39 1253.98  16
   1  -1  16 3356.99 1017.26  16
  -1  -1  16 3262.72 712.536   2
   1  -1  16 3966.65 785.396   2
   1  -1  17 96.4348 178.006   2
   1  -1  17 240.858 309.889  16
   1  -1  18 957.651 642.173  16
   1  -1  18 1568.11 555.798   2
  -1  -1  18 1459.85 520.004   2
  -1  -1  18 1620.82 845.223  16
  -1  -1  19 200.307 282.472   2
  -1  -1  19 854.169 730.112  16
   1  -1  19 332.605 597.047  16
   1  -1  20 449.718 505.645  16
  -2   0   0 5886.60 308.542  17
   2   0   0 6610.39 372.438   1
  -2   0   0 6325.89 354.557   4
  -2   0   0 6546.91 370.037   5
   2   0   0 6493.22 284.227  18
   2   0   0 6388.48 318.673   8
   2   0   0 6808.73 385.321  14
  -2   0   0 6659.62 378.631  19
  -2   0   1-1.32132 7.53218   4
  -2   0  -1-12.5969 25.0132   4
  -2   0  -1 25.2230 36.8132  15
   2   0  -1-2.75491 10.7235  18
   2   0  -1-0.75031 7.16352   8
   2   0   1 8.78730 20.3035  14
  -2   0   1-0.64665 7.83678   2
  -2   0  -1-0.71803 23.5846  19
   2   0  -1 0.50074 8.48549   1
  -2   0   1-3.56547 14.1452  17
   2   0  -1 2.54548 9.22693  11
   2   0   1-1.80150 2.03027   8
   2   0  -1-0.59631 9.04041  14
   2   0   1-0.35937 1.86714   6
  -2   0  -1 0.53007 12.6353   5
  -2   0   1 1.26411 4.25393   5
  -2   0   1 1.58057 6.24248  19
   2   0   1 8.99063 22.3408   1
   2   0   2 2163.08 307.832  16
   2   0  -2 2688.53 257.485   1
   2   0   2 2224.40 334.893   8
  -2   0   2 2678.70 279.424  17
  -2   0   2 2536.64 226.108   5
   2   0  -2 2683.78 216.685  14
   2   0   2 2034.11 412.003   1
  -2   0  -2 1720.62 334.791  19
   2   0  -2 2595.72 289.931  11
  -2   0   2 2442.33 197.866  19
   2   0   2 2293.42 330.137   6
   2   0  -2 2269.70 246.541  18
  -2   0  -2 736.311 223.632  20
  -2   0  -2 1721.03 322.880   7
   0   2  -2 2258.96 433.964   3
   2   0   2 2422.50 360.415  14
  -2   0   2 2273.22 233.511   2
   2   0  -2 2310.42 202.847   8
   2   0  -2 1495.18 347.371   9
  -2   0  -2 1774.54 340.557   4
  -2   0  -2 1664.75 295.586  15
  -2   0  -2 1475.84 348.354   5
  -2   0   3-6.24606 25.1121  19
   2   0  -3 0.66402 15.6262   1
   0  -2   3-44.5961 97.6259   2
   2   0  -3-4.95224 23.3944  18
  -2   0  -3-38.8312 120.209  15
   2   0  -3 3.50531 13.4402  14
   0   2  -3-1.01640 30.9855  13
  -2   0  -3-40.8510 99.0951   7
   2   0   3-7.95353 23.6768   8
  -2   0   3-5.63005 30.5304  17
   2   0   3 9.32598 35.1748  14
   0   2  -3-2.69796 8.74349  12
   2   0  -3 8.32708 39.2529  11
   2   0   3 18.0090 39.5990  16
  -2   0   3 0.90812 8.36230   2
   2   0  -3-82.2934 182.109   9
   0  -2   3-7.32277 42.7410  16
   2   0   3-1.09464 32.1340   6
   0   2  -3 14.3604 36.3916   3
   0  -2   3-5.81286 10.5568   6
   0  -2   4 1146.58 177.864   6
   2   0   4 394.739 202.085   8
   0  -2   4 1050.15 255.281   2
   0  -2   4 963.712 235.427  17
   2   0  -4 733.493 215.669  11
  -2   0   4 1215.05 266.359  17
   2   0   4 827.973 309.673  16
   2   0   4 696.572 277.073   6
   0  -2   4 1045.47 203.771  16
   2   0  -4 1101.23 222.429   1
   0   2  -4 996.926 144.017  12
   0   2  -4 1117.91 212.306  18
   0   2  -4 1032.20 187.469   3
   2   0  -4 769.542 198.702  18
  -2   0   4 1051.02 224.457   2
   2   0  -4 889.969 153.451  14
   0   2  -4 1007.42 216.733  13
   0  -2   5 4.46869 9.80956   6
   0  -2   5 2.85204 28.5069  17
   0  -2   5-12.4899 29.1774  16
   0  -2   5-0.95675 7.09027   8
   2   0   5-67.6689 121.477   6
   0   2  -5 15.6702 31.8638   3
  -2   0   5-22.3468 65.2030   2
   2   0  -5-2.77769 13.3021  18
  -2   0   5-23.2386 62.3661  17
   2   0   5 36.8092 117.841  16
   0   2  -5 9.03345 20.3435  18
   2   0  -5-12.5573 70.1691  11
   0   2  -5 1.38547 18.1039  12
   0  -2   5 9.16988 28.4650   2
   0  -2   6 430.165 132.140   2
   0  -2   6 371.932 131.235  16
   2   0   6 384.654 317.803  16
   0   2  -6 374.463 96.4635  18
   0  -2   6 473.285 149.770   6
   0  -2   6 462.232 117.469  17
   2   0   6 205.954 203.141   6
  -2   0   6 715.964 246.197  17
   0  -2   6 385.012 66.6342   8
   2   0  -6 204.236 138.441  11
   2   0  -6 265.735 143.495  18
   2   0   7-26.9260 129.267  16
   0  -2   7-19.5697 44.4915   2
   0   2  -7-0.37773 15.4363  18
   2   0  -7-51.2466 109.738  18
  -2   0   7-39.8569 87.7836  17
   0   2  -7-32.0598 75.7865  20
   0  -2   7 2.40162 23.1786  17
   2   0   7-70.1055 180.521   6
   0  -2   7 1.05035 41.6939  16
   0   2  -7 63.8389 98.8100  15
   0  -2   7 6.93897 2.78518   8
   0  -2   7-21.2055 57.3391   6
   0   2  -7-1.11151 3.90708  11
   2   0  -7-0.62241 33.9148  11
   0   2  -7 22.5803 70.6388   7
   2   0  -8-77.0080 203.946  18
   2   0  -8 12.5988 103.842  11
   2   0   8 19.5588 150.409  16
   0   2  -8 58.6902 42.5746   7
   0   2  -8 64.1938 91.7574  15
   0   2  -8 12.3317 63.7407  20
   0   2  -8 96.1089 113.694  10
   0  -2   8 7.41616 70.7466   6
  -2   0   8 69.6196 70.6269  17
   0  -2   8 9.18582 49.2858  16
   0   2  -8 22.0752 11.8938   1
   0  -2   8 44.2788 34.7592   8
   0   2  -8 16.4114 33.3218  11
   0  -2   8 45.0606 53.5563   2
   0  -2   8 56.8817 45.6309  17
   0   2  -8 18.9744 29.4036  18
   2   0   8-23.0125 258.962   6
   0   2  -9 296.545 245.401   9
   0   2  -9 104.329 215.942   7
   2   0   9-226.403 344.776   6
   0   2  -9 6.63358 24.7655   1
   0   2  -9 187.239 248.374  15
   0  -2   9 16.6339 68.3858  16
   0  -2   9-5.28070 42.5462   8
   0  -2   9 2.27154 71.9154   2
  -2   0   9-153.042 204.518  17
   2   0   9 72.0659 123.280  16
   2   0  -9-58.7734 152.700  11
   0  -2   9 57.4199 94.6633  17
   0   2  -9 494.132 285.378  20
   0  -2   9 75.3634 221.520   6
   0   2  -9 28.0575 84.0774  18
   0   2  -9 190.755 202.725  10
   0   2  -9 73.5182 124.755  11
   0  -2  10 1989.11 337.701   8
   2   0 -10 122.633 121.294  11
   0  -2  10 1468.72 553.951   6
   0   2 -10 1944.30 447.550  10
   0  -2  10 2308.09 482.250  16
   0  -2  10 2528.22 399.887   2
   0   2 -10 1788.78 329.366  11
   0   2 -10 1501.47 495.033  20
   0  -2  10 2953.92 396.595  17
   2   0  10 1678.94 716.149  16
   0   2 -10 1711.74 295.452  18
   0   2 -10 1865.42 431.088   9
   0   2 -10 1828.53 208.655   1
   0  -2  11 2.31581 37.8367  17
   0  -2  11-59.4602 162.268   6
   0   2 -11-5.10830 11.5892   1
   0   2 -11 152.984 134.260  20
   2   0  11-65.5601 191.201  16
   0   2 -11-19.1597 54.9922   9
   0  -2  11-3.16849 36.8148   2
   2   0 -11-211.107 254.192  11
   0   2 -11-0.98057 25.4140  11
   0  -2  11 15.9003 66.2704   8
   0  -2  11 23.6889 70.1272  16
   0   2 -11-6.89648 38.3982  18
   0   2 -11 38.2786 71.6971  10
   0   2 -12 1024.89 268.199  18
   0  -2  12 1494.46 381.387   8
   0   2 -12 654.477 336.078  20
   0   2 -12 1102.17 304.546  11
   0   2 -12 1131.61 365.469   9
   2   0  12 1267.39 608.291  16
   0   2 -12 1042.34 196.142   1
   0  -2  12 1903.89 392.297   2
   0  -2  12 632.531 414.419   6
   0   2 -12 908.974 372.665  10
   0  -2  12 1884.87 514.443  16
   0  -2  12 2495.43 438.486  17
  -2   0  12 1453.32 389.196   2
   0   2 -13 36.4463 84.3814  18
   0  -2  13 12.3399 41.9894  17
   0  -2  13 129.811 164.785  16
   0   2 -13 14.7353 117.429   9
   0  -2  13 142.044 216.489   6
   2   0  13 225.709 325.958  16
   0   2 -13 119.102 212.905  10
   0  -2  13 26.8711 100.769   2
   0   2 -13 153.514 314.856  20
   0  -2  13-149.795 144.838   8
   0   2 -13 4.43122 37.9228   1
   0   2 -13 87.9102 131.025  11
   0   2 -14-290.684 390.524  20
   0  -2  14 2690.84 505.868  17
   0  -2  14-197.000 466.657   6
   0   2 -14 550.141 163.953   1
   0   2 -14 473.372 410.822  10
   0  -2  14 956.329 280.338   8
   2   0  14 1306.98 701.601  16
   0   2 -14 689.610 357.002   9
   0  -2  14 1668.93 546.692  16
   0  -2  14 2232.21 463.489   2
   0   2 -14 344.558 64.0498  18
   0   2 -14 567.070 223.289  11
   0   2 -15 126.351 103.238   1
   0   2 -15 135.400 154.883  11
   0   2 -15 343.412 305.225  10
   0  -2  15 112.630 161.576  16
   0   2 -15 63.5467 122.210   9
   0  -2  15-18.3770 85.3213   2
   0  -2  15-53.1580 132.297  17
   0  -2  15-289.294 241.658   8
   0  -2  16 16.8279 162.804   8
   0   2 -16 96.3890 48.6885   1
   0   2 -16 24.2542 196.157   9
   0  -2  16 516.537 171.317  17
   0   2 -16 196.435 138.291  11
   0   2 -16 9.46694 151.489  10
   0  -2  16 648.138 407.080  16
   0  -2  16 968.431 374.987   2
   0  -2  17 11.5062 171.272  16
   0  -2  17-15.2188 53.2371   2
   0  -2  17-178.173 258.134   8
   0   2 -17-98.8665 203.826  11
   0   2 -17-53.5690 354.236  10
   0   2 -17-410.336 413.487   9
   0   2 -17 0.22996 72.7079   1
   0  -2  18-51.0512 165.638  16
   0   2 -18-27.0705 70.4816   1
   0  -2  18 200.696 213.582   2
   0  -2  18-60.8638 183.936   8
   0  -2  19-116.598 224.446  16
   0  -2  19-93.6183 197.774   8
   0   2 -19 35.7008 50.5318   1
   0  -2  19-10.8431 35.8369   2
   0  -2  20-22.8257 210.333  16
   0  -2  20 61.7785 86.9664   8
   0  -2  20 34.0572 179.510   2
   0  -2  21-81.1837 206.060   8
   0  -2  21-99.0067 242.950  16
   0  -2  21 17.0805 206.526   2
  -2   1   0 220.693 68.6269  19
   2   1   0 103.189 81.6859   1
   2  -1   0 186.211 65.0425   8
  -2   1   0 155.290 73.9360  12
   2  -1   0 235.220 77.7677  14
   2   1  -1 3615.57 395.435  18
  -2   1  -1 3253.40 236.630   5
   2  -1   1 2673.86 216.173   8
   2   1  -1 820.704 255.834  14
  -2  -1   1 2963.79 365.736   2
  -2   1  -1 3126.89 242.336  19
   2   1  -1 3478.05 489.338   1
  -2   1  -1 3243.02 350.027   3
  -2  -1   1 2596.68 433.067   5
  -2   1   1 3868.62 390.323  19
   2   1  -1 3986.21 444.911  13
  -2   1  -1 2883.09 229.086   4
  -2  -1   1 1136.97 286.704   4
  -2  -1   1 2670.48 393.732  17
   2  -1   1 3635.87 266.197   1
   2  -1   1 3347.60 263.793  14
   2  -1   1 3558.72 282.218   6
  -2   1  -1 3274.24 259.378  12
  -2   1  -2 50.0474 35.0931  12
   1   2  -2 71.0922 128.935  13
   2  -1   2 60.7619 37.2406  14
   2   1  -2 44.4036 35.1913  18
  -1   2  -2 57.5112 49.4017  12
  -2  -1   2 50.3465 39.3528  19
   2   1  -2 43.7646 52.9037  14
   2  -1   2 57.8620 34.6146   6
  -2   1  -2 54.2646 40.7463   3
  -2  -1   2 22.5816 7.97607   2
  -2  -1   2 46.0580 43.0489   4
  -2  -1   2 32.0492 39.2043   5
  -2  -1   2 20.6017 23.7130  17
  -1   2  -2 49.7443 67.1801   3
   2  -1   2 54.0905 36.1808  16
  -2   1  -2 46.1195 32.1045   4
  -2   1  -2 51.3309 33.4833  19
   2   1  -2 34.6236 38.9184   1
  -2   1  -2 42.0164 24.7144   5
   2  -1   2 49.5619 26.1552   1
   2  -1   2 37.4089 28.0521   8
  -2   1  -3 1219.92 179.369   4
  -2  -1   3 1256.64 182.747   5
   1   2  -3 1551.25 306.726  13
  -1   2  -3 1400.18 191.877  12
  -2  -1   3 1183.51 184.755   2
  -1   2  -3 1602.58 234.229  19
  -2   1  -3 1254.33 158.011   5
  -1  -2   3 1322.93 250.342  16
   2  -1   3 1272.87 173.420   8
  -2   1  -3 1316.65 182.748  19
   2   1  -3 1235.08 185.826  18
  -2  -1   3 1406.32 143.591  19
   1  -2   3 1186.42 173.171   8
   2  -1   3 1536.20 214.783   6
   2   1  -3 1038.53 192.341  14
   1  -2   3 1480.37 217.063   6
  -2  -1   3 1253.84 153.786   4
  -2  -1   3 1211.50 151.160  16
   1   2  -3 1344.23 238.987  12
   1   2  -3 1408.31 231.917   3
  -1  -2   3 1008.93 291.043   2
   2   1  -3 1231.88 197.582   1
   2  -1   3 1557.21 211.323  16
  -1  -2   3 984.015 161.862   6
  -1  -2   3 935.414 305.008  17
   1   2  -3 1589.68 325.888  18
   1  -2   3 1416.31 279.985  16
   2  -1   3 1384.79 175.304  14
  -1   2  -3 1533.60 405.093  13
  -1   2  -3 1426.21 239.626   3
  -2  -1   3 1224.93 205.742  17
   2  -1   4 27.3421 15.1101  14
  -2  -1   4 38.9298 30.7178   5
   1   2  -4 38.0095 47.0426  18
   2   1  -4 4.43004 37.1215  10
   2   1  -4 26.2430 30.8569  18
  -2   1  -4 48.5439 49.1963  20
   1  -2   4 8.53687 35.6546   2
  -1  -2   4 25.0539 24.9656   6
   1   2  -4 41.8206 34.6484   3
   1  -2   4 43.7528 29.9117   8
  -2  -1   4 35.9879 30.6823   2
   2  -1   4 44.5286 34.7685   8
  -1   2  -4 26.9750 12.2920   4
   1  -2   4 33.1840 43.3452  17
   2   1  -4 19.7253 31.0257  14
   1   2  -4 32.7445 41.9542  13
  -2  -1   4 37.5913 19.7147  19
   2  -1   4 22.1786 21.9391   6
   2  -1   4 39.5341 37.9123  16
  -1  -2   4 30.5694 36.4669  16
  -2   1  -4 45.1261 43.3778  19
   2   1  -4 5.67794 68.4526  20
  -2  -1   4 35.3410 34.3381  17
   2   1  -4 23.9065 29.5524   1
  -2  -1   4 18.0882 26.1999  16
  -1   2  -4 33.2094 25.2460  19
   2   1  -4 39.4033 40.2729  11
  -2   1  -4 46.2269 54.4835   4
  -2   1  -4 8.50256 23.2860   5
   1  -2   4 34.0447 35.8035   6
   1   2  -4 47.5569 30.2824  12
  -1  -2   4 29.5533 65.8428  17
  -1   2  -4 29.8696 38.9267  13
  -1   2  -4 41.2011 36.1959  12
   1  -2   4 34.9032 39.7182  16
   1   2  -4 16.0794 53.3631   1
  -1   2  -4 43.3044 47.3379   3
  -2  -1   4 30.3029 19.7016   4
   1  -2   4 29.4932 21.8446  14
  -1  -2   4 25.9977 43.7881   2
   2   1  -5 183.065 54.6560  14
   2  -1   5 164.549 90.1410  16
  -1  -2   5 146.574 79.7615   2
   2  -1   5 155.174 85.0295  14
   2   1  -5 148.042 70.5240   1
   2  -1   5 174.420 97.1747   6
  -2   1  -5 162.000 83.8409  10
  -1   2  -5 167.351 87.7966   3
   1  -2   5 135.980 48.1276   8
   2   1  -5 180.185 122.128  10
  -2  -1   5 163.868 87.4535  17
  -2  -1   5 120.922 63.0248   2
  -2  -1   5 168.673 64.2930   5
  -1   2  -5 141.561 51.3538  18
   1  -2   5 182.019 77.0002   6
   1   2  -5 185.046 80.6025  18
   1  -2   5 180.148 51.6258  14
  -2   1  -5 125.281 75.7333  11
  -2  -1   5 137.603 74.5340  16
  -1  -2   5 165.963 78.4319  16
  -1  -2   5 196.880 92.1621  17
  -2   1  -5 210.305 137.356   7
  -2   1  -5 152.215 95.9685  20
   2   1  -5 101.044 60.0325  11
  -1   2  -5 194.988 52.6390  19
   2   1  -5 142.202 132.609  20
   1  -2   5 187.192 96.1994   2
  -2  -1   5 244.248 77.0261  19
  -1   2  -5 171.057 96.2053  13
   2  -1   5 191.743 57.0575   2
  -1   2  -5 189.327 55.4641   4
   2  -1   5 142.257 87.6416   8
  -2   1  -5 145.510 102.210  15
  -2   1  -5 75.9079 94.2991   4
   2   1  -5 183.825 115.697   9
   1  -2   5 168.954 67.2292  17
   1  -2   5 177.362 87.5320  16
  -2   1  -5 163.609 79.9231   9
   2   1  -5 145.372 68.9837  18
   1   2  -5 152.568 52.1359  12
  -1   2  -5 160.632 75.9043  12
  -2   1  -5 130.269 87.0023  19
   1   2  -5 194.177 79.9720   3
  -1  -2   5 172.857 67.6743   6
   1   2  -5 160.086 94.3329   1
   2   1  -6 41.9345 77.7633  20
   1  -2   6 41.5153 30.9857   8
   2   1  -6 64.9276 37.6889  10
   2   1  -6 23.3989 55.2847   9
  -2  -1   6 32.9932 21.1881  16
   2   1  -6 47.2863 39.9441  18
  -1   2  -6 50.1887 30.5355   4
   2  -1   6 47.7597 29.8984   2
   1  -2   6 49.0886 43.6179   2
   1   2  -6 24.5948 39.6678   1
  -2   1  -6 30.7431 76.1986  19
  -2  -1   6 55.7881 48.6332  17
   2   1  -6 50.3254 35.9420   1
  -2   1  -6 70.7421 78.8354  10
  -2  -1   6 41.9740 31.8205   5
  -1  -2   6 37.9150 32.4155   2
   2  -1   6 27.6571 67.3910   8
  -1  -2   6 39.8041 30.1051   5
  -2   1  -6 50.0439 96.7718  20
  -2   1  -6 89.7389 107.674  15
   1  -2   6 70.6574 75.4022   6
  -1  -2   6 49.9633 49.1340  16
   1   2  -6 25.3213 18.2845  18
   2   1  -6 35.6221 24.3880  14
  -1   2  -6 37.7609 27.3813  18
  -1  -2   6 17.7533 37.0144  17
  -1  -2   6 39.2135 48.8189   6
  -2   1  -6 39.4740 59.1178   9
   1  -2   6 47.8265 56.7554  16
   1  -2   6 30.5927 26.8639  17
  -2   1  -6 28.5858 30.3510  11
   1  -2   6 51.4811 27.2689  14
  -2   1  -6 55.5738 78.9933   7
  -2  -1   6 37.8469 40.0981   2
   2  -1   6 65.3411 69.2762   6
   2  -1   6 31.7406 33.2946  16
  -1   2  -6 46.7571 32.5556  19
   2  -1   6 88.1589 99.9453  14
   2   1  -6 38.9611 51.3683  11
  -2   1  -7 100.873 72.6522  15
   1   2  -7 193.194 83.9590  18
   1  -2   7 232.576 89.3223   2
  -2   1  -7 79.9563 43.9237  10
  -1  -2   7 221.050 100.719  17
   1   2  -7 211.265 97.7926  11
  -2  -1   7 221.372 102.234   2
   2   1  -7 241.964 100.941   1
  -1   2  -7 206.134 92.3500  11
   2   1  -7 139.918 80.5504  18
  -1   2  -7 245.531 141.375  15
   1   2  -7 206.316 122.257  15
   1   2  -7 193.805 99.7395  20
   1  -2   7 190.632 98.1475  16
   1  -2   7 175.797 107.314   6
  -2   1  -7 124.183 49.8018   7
   1  -2   7 168.368 66.7695   8
  -2   1  -7 7.26186 117.831  11
  -2  -1   7 189.969 120.567  16
  -1  -2   7 208.810 67.8476   5
  -2   1  -7 96.8991 82.5200   9
  -1   2  -7 153.031 58.8469  19
   1   2  -7 193.052 78.3228   1
  -2   1  -7 99.9625 87.2524  20
   2   1  -7 224.673 59.9535  14
   2   1  -7 192.843 179.238  10
   2  -1   7 209.445 170.777   6
  -2  -1   7 260.297 125.811  17
   1   2  -7 251.205 160.093   7
   2  -1   7 191.293 126.426   8
   2  -1   7 269.635 103.852   2
  -1  -2   7 193.782 93.0593   2
  -1  -2   7 168.640 87.6797  16
   1  -2   7 179.292 68.0316  17
   2   1  -7 170.541 146.750   9
  -1  -2   7 211.833 111.457   6
   2  -1   7 242.495 136.706  16
  -1   2  -7 182.083 62.9955  18
   2  -1   7 125.374 129.337  14
   1  -2   7 218.815 78.3932  14
   2   1  -7 193.429 106.614  11
   2   1  -7 69.9231 165.679  20
   1   2  -8 74.9054 88.1418  10
  -2  -1   8 30.6321 43.9825   2
  -1   2  -8 59.9703 96.7754  15
  -2   1  -8 9.98488 52.9248   9
   2  -1   8 23.5462 28.4759   8
  -1   2  -8 62.3890 48.1605  18
   1  -2   8 28.1918 20.2570   6
  -1  -2   8 46.8533 46.4353  16
   1  -2   8 18.9984 36.8746   2
  -2  -1   8 18.3380 14.7854  17
   2   1  -8 55.1177 27.6359   1
   2  -1   8 47.5180 96.4440   6
  -1   2  -8 25.2178 12.7018  20
  -2   1  -8 150.267 175.957  20
   2   1  -8 36.9445 55.5873  11
   1   2  -8 22.1144 18.5907   1
  -1  -2   8 19.9391 13.5742   5
   2   1  -8-170.987 292.881  20
   1  -2   8 57.9182 50.9847   8
   1   2  -8-121.504 188.085  15
   1  -2   8 56.6700 73.9806  16
  -1   2  -8 35.3630 40.0120  11
  -1   2  -8 30.6427 21.3241  19
   1   2  -8 50.8601 48.7439  18
  -1   2  -8 22.7008 77.0743   7
  -2  -1   8 84.4913 71.7879  16
  -1  -2   8 38.4393 46.3242   2
   1   2  -8 30.6018 43.2409  11
   2  -1   8 40.7899 13.1616   2
   2  -1   8-19.9582 82.3293  16
  -1  -2   8 44.5024 15.4522  17
   1  -2   8 58.2271 50.0740  17
   2   1  -8 36.4714 26.2809  14
   2   1  -8-65.5216 167.619  10
   2   1  -8 23.8620 52.2062  18
   1  -2   8 28.2645 68.5587  14
  -1  -2   8-34.5870 107.164   6
  -2   1  -8-13.3280 95.3876  10
   2   1  -8-69.1471 122.327   9
   1   2  -8-30.9204 154.942   7
   1   2  -8 41.8421 60.3122  20
  -1   2  -8 84.4712 111.256  10
   1  -2   9 14.0855 76.7986   6
  -1   2  -9 65.5284 121.575  15
  -1  -2   9 7.69466 34.7473   8
   1   2  -9 6.44317 14.1477  18
  -1  -2   9 7.20608 31.3451  17
   2   1  -9 27.2953 54.6307  18
   1  -2   9 22.8841 45.0200  17
   1  -2   9 31.0594 47.8299  16
  -2  -1   9-18.1261 33.9174  17
   2  -1   9-26.7412 52.5937  16
  -1  -2   9 35.7524 32.8283   6
  -2   1  -9 8.50390 70.4684  20
  -1   2  -9 27.1076 35.2585  19
  -1   2  -9 14.9124 132.704   7
   1   2  -9 42.6783 121.736  10
  -2  -1   9 45.6836 76.7052   2
  -1   2  -9 16.9840 41.5109  18
   2  -1   9-7.80347 40.5970   2
   2  -1   9-22.8842 21.6129   8
   2   1  -9 0.52346 17.2226  11
   1   2  -9 18.1817 54.6516  11
   2   1  -9 36.5451 57.3172   1
  -2   1  -9-32.1216 122.203   9
  -1   2  -9 122.182 174.620   9
  -2  -1   9 20.2756 81.2809  16
   1   2  -9 272.980 209.466  20
  -1   2  -9-24.7750 13.9031  20
   1  -2   9-17.5305 34.4221   2
  -1  -2   9 37.0652 55.2916  16
  -1  -2   9 10.1835 18.5972   5
  -1   2  -9-21.9228 68.8076  10
   1   2  -9 55.7409 121.601   9
  -1   2  -9 19.9278 48.2985  11
  -1  -2   9 12.3986 47.1391   2
   2  -1   9-111.055 221.945   6
   2   1  -9 18.2332 64.0055   9
   1   2  -9 5.64312 38.5905   1
   2   1  -9 178.521 223.033  10
   1  -2   9-32.4814 67.2188   8
  -2   1  -9 7.73302 93.6013  10
   2  -1  10 29.1092 42.5030   2
  -2   1 -10-339.208 256.920  20
   1  -2  10 24.4556 52.4985  17
  -1   2 -10 45.3752 59.5981  11
  -2  -1  10 51.8185 77.8881  17
   1  -2  10-11.2350 78.3104   8
  -1  -2  10-23.0262 20.9493  16
   2  -1  10 74.3821 155.531   6
  -1  -2  10-58.9193 97.9751   8
   2   1 -10 31.4882 158.978  10
   2   1 -10 5.41515 43.5280  11
   2   1 -10 116.571 187.459   9
   2   1 -10 26.4684 58.3695  18
  -2  -1  10 24.9310 21.0244   2
  -1  -2  10 45.3154 169.430   6
   1  -2  10 26.7316 81.0064  16
  -1   2 -10 50.8026 68.8701  10
   1   2 -10 53.7577 141.523   9
  -2   1 -10 40.9896 85.0751  10
  -1   2 -10 18.5027 60.9023   9
   1   2 -10 48.2686 85.7900  10
   1   2 -10 11.4442 25.6440   1
  -1   2 -10 340.327 233.844  20
   2  -1  10 26.5792 100.664  16
   1  -2  10 33.8812 46.0293   2
  -2  -1  10 26.5866 174.111  16
  -1  -2  10 47.6876 65.4219  17
   2  -1  10-49.0567 138.067   8
  -1   2 -10 16.9898 83.8401  19
   1   2 -10 55.0311 72.2711  11
   2   1 -10 38.3833 13.8383   1
  -1   2 -10 8.56605 44.8690   7
  -1   2 -10-16.8104 148.997  15
  -1  -2  10 32.6181 24.2709   5
   1   2 -10-0.76723 70.5891  20
  -1   2 -10 26.5086 14.9303  18
   1  -2  10 124.317 139.094   6
  -1  -2  10 75.9113 78.7767   2
   1   2 -10 14.6696 8.96590  18
  -2   1 -10-156.558 245.145   9
   2   1 -11 555.867 245.220  11
  -1  -2  11 295.855 285.548   6
   1   2 -11 858.646 297.107   9
  -2  -1  11 1583.85 387.673  17
   2  -1  11 1572.14 536.056  16
   1  -2  11 1642.93 340.389  17
   2  -1  11 1793.09 385.823   2
   1  -2  11 1456.94 297.578   2
   1   2 -11 809.545 245.245  11
   2   1 -11 572.871 225.493  18
   1  -2  11 1330.01 408.417  16
  -1   2 -11 717.058 212.619  18
   1  -2  11 957.072 294.750   8
  -1  -2  11 1284.76 310.279   2
  -2   1 -11-247.070 383.503  20
   1   2 -11 621.495 350.894  10
  -1   2 -11 637.739 119.891   1
   2   1 -11 385.951 270.809   9
   1   2 -11 525.326 343.457  20
   1  -2  11 1013.84 457.557   6
  -1  -2  11 1086.39 366.262  16
  -1  -2  11 1303.52 299.759  17
  -2  -1  11 1114.26 509.334  16
  -1   2 -11 859.231 342.748  10
   1   2 -11 902.776 190.836   1
  -2  -1  11 1212.07 344.236   2
   2  -1  11 347.748 57.6841   8
  -1   2 -11 661.306 271.638   9
  -1   2 -11 777.197 347.854  20
   2   1 -11 731.431 237.430   1
   2  -1  11 740.641 458.281   6
   2   1 -11 405.756 321.571  10
  -1   2 -11 866.800 225.008  11
   1   2 -11 763.995 215.548  18
   1   2 -12-154.557 196.783  10
  -2  -1  12 130.483 202.454   2
   1   2 -12 102.975 131.693   9
   1  -2  12 110.234 134.531  16
   2   1 -12 135.437 197.196  11
   1  -2  12-51.7408 59.9025  17
   1   2 -12 62.9771 62.8448  18
  -1   2 -12 93.5024 116.858  11
  -1   2 -12-148.939 161.074  18
  -1   2 -12 64.4697 161.602   9
   1  -2  12 9.90179 36.2713   8
   2  -1  12 3.33927 38.1210   2
  -1   2 -12-53.0545 74.9037  10
  -1  -2  12-221.205 355.756   6
   2  -1  12 13.0306 116.063   6
   2  -1  12 230.161 286.963  16
  -2  -1  12 155.371 201.053  17
   2   1 -12 12.3507 68.1942  18
   1  -2  12 70.3314 130.701   6
  -2   1 -12-196.775 296.333  10
   1  -2  12-9.30058 63.5523   2
  -1   2 -12 161.691 184.268  20
   1   2 -12 28.7159 51.1634   1
  -2  -1  12 394.935 497.385  16
   2   1 -12 321.986 422.739   9
  -1  -2  12 16.8521 100.170  16
   2   1 -12-138.737 201.454  10
   2   1 -12-9.94807 91.7788   1
  -1  -2  12 38.2845 84.8650   2
   2  -1  12-102.373 262.602   8
  -1  -2  12 99.1817 117.424  17
   1   2 -12 36.1355 102.229  11
   1   2 -12-12.8904 105.839  20
  -1   2 -13 605.053 337.087  10
   2  -1  13 206.918 190.694   8
  -1   2 -13 631.700 257.556  11
  -1  -2  13 1298.00 349.002   2
   1   2 -13 737.060 274.338  11
  -1   2 -13 1019.65 445.393  20
  -1   2 -13 664.675 351.978   9
  -2  -1  13 1652.47 445.556   2
   2  -1  13-53.4767 218.885   6
  -2  -1  13 1794.63 450.011  17
   1   2 -13 705.041 184.743   1
  -1  -2  13 1591.19 489.122  16
   1  -2  13 1194.92 519.739   6
   1  -2  13 1770.86 383.271   2
   2   1 -13 313.267 112.147   1
   1   2 -13 628.244 217.759  18
   1   2 -13 313.140 211.835  10
   2  -1  13 1573.17 621.735  16
   1  -2  13 1500.62 388.514   8
   1   2 -13 70.6594 181.173  20
   2   1 -13 327.098 211.883  11
   1  -2  13 1647.55 519.841  16
   2  -1  13 2396.63 510.771   2
   1  -2  13 1894.79 419.567  17
  -2  -1  13 1530.62 674.617  16
   1   2 -13 700.017 314.422   9
  -1  -2  13-343.538 514.446   6
  -1  -2  13 1737.22 384.167  17
   1   2 -14 472.788 355.396  10
  -1   2 -14 190.794 229.165  10
  -1   2 -14-297.377 468.271  20
   2  -1  14 152.266 152.907   2
  -1   2 -14 289.620 269.277   9
   2   1 -14 16.8718 131.033  11
   2  -1  14 313.711 301.875  16
  -1  -2  14 150.478 168.649  17
  -2  -1  14 49.7745 158.100   2
   1  -2  14-24.7006 59.2828   2
   1  -2  14 157.364 271.779   6
   2   1 -14-1.68864 111.543   1
  -2  -1  14 17.7279 175.988  17
   1  -2  14-43.5667 102.279  16
   1   2 -14 235.182 187.812  11
   1  -2  14-99.9089 131.906   8
   1   2 -14 110.782 104.767   1
   1   2 -14 126.596 130.818  18
   2  -1  14-840.818 805.019   6
   1   2 -14 138.486 264.999   9
  -2  -1  14 600.162 560.452  16
  -1  -2  14 294.497 237.021  16
  -1  -2  14 47.4045 116.530   2
  -1   2 -14 52.1326 130.073  11
   1   2 -14-299.530 567.303  20
  -1  -2  15 708.692 294.802   2
   1   2 -15 197.592 163.657  11
  -1  -2  15 680.796 385.861  16
  -1   2 -15 164.447 163.145   9
  -2  -1  15 491.146 190.885  17
  -1   2 -15 303.678 293.251  10
   1  -2  15 427.521 271.852   8
  -1   2 -15 91.3314 72.0779  11
   2   1 -15-155.136 226.993  11
   1  -2  15-436.792 357.913   6
   2  -1  15 527.740 447.699  16
  -1   2 -15-213.123 361.642  20
  -2  -1  15 660.904 317.739   2
   1   2 -15 140.096 120.859   9
   1   2 -15 51.9228 102.598  10
   1  -2  15 865.442 299.555   2
  -2  -1  15 884.015 518.841  16
   1   2 -15-7.44956 156.322  18
  -1  -2  15 760.294 293.717  17
   1  -2  15 742.136 399.444  16
   1   2 -15-1257.49 821.447  20
   2  -1  15 1063.42 365.056   2
   1   2 -15 190.710 108.721   1
  -1   2 -16-350.135 272.150  11
   1   2 -16 75.5301 58.7161   1
   1   2 -16-59.3064 293.238   9
  -1   2 -16-12.4112 177.869  10
   2  -1  16 85.6068 116.817   2
  -1  -2  16 184.370 172.427   2
   1  -2  16 81.3545 151.108   8
   2   1 -16-45.3941 245.589  11
   1  -2  16 131.851 122.936   2
   2  -1  16 113.919 240.485  16
  -2  -1  16 515.738 724.122  16
  -1  -2  16 65.6908 64.6059  17
   1   2 -16 355.385 199.115  11
   1   2 -16-52.5115 246.361  18
   1  -2  16-702.050 707.852   6
  -1   2 -16-215.075 283.889   9
  -1  -2  16 322.777 317.935  16
   1  -2  16-5.43277 213.416  16
  -2  -1  16 444.277 313.377   2
   1   2 -16 41.3111 89.0458  10
   2  -1  17 352.019 450.704  16
  -1   2 -17-361.115 489.068  10
  -1  -2  17-6.63595 145.494  17
   1   2 -17-4.51367 76.1153  11
   1  -2  17 246.248 240.860   8
   1  -2  17 232.422 206.431  16
  -2  -1  17 172.802 205.010   2
   1   2 -17-334.457 437.507   9
   1   2 -17-112.708 383.501  10
   1  -2  17 142.561 155.747   2
  -1  -2  17 13.4099 50.8567  16
   1   2 -17 5.44258 62.3491   1
  -2  -1  17 125.093 238.375  16
  -1  -2  17 122.315 105.805   2
   2  -1  17 185.904 205.191   2
  -2  -1  18 123.403 221.028   2
   1   2 -18-45.9107 60.4299   1
   1  -2  18 139.480 42.0697  16
  -1  -2  18 26.9817 39.1710   2
   1  -2  18 41.3740 139.466   8
  -1  -2  18-196.380 277.671  16
   1   2 -18-213.609 252.120  11
   2  -1  18-13.5119 201.645   2
  -2  -1  18 356.031 433.785  16
   1  -2  18 48.7296 91.0700   2
   2  -1  18-37.4433 50.2704  16
  -1  -2  19 70.8844 208.050  16
   1   2 -19-381.880 340.620  11
  -2  -1  19 429.265 498.545  16
   2  -1  19 519.767 475.309  16
   1  -2  19 55.8364 111.689   2
  -2  -1  19 142.200 197.043   2
   1  -2  19 43.2801 282.197  16
   1   2 -19-11.0289 42.2146   1
  -1  -2  19 124.149 172.994   2
   1  -2  19 129.745 185.460   8
  -1  -2  20 21.1652 41.5959   2
   1  -2  20 68.2230 19.0895  16
   1  -2  20-12.3704 143.308   2
   2  -1  20 395.321 484.989  16
   1   2 -20 46.1717 91.2552   1
  -1  -2  20 248.145 261.334  16
   1  -2  20-19.8509 136.460   8
   1  -2  21 180.060 284.020  16
  -1  -2  21 268.477 264.085   2
   1  -2  21 135.189 218.193   8
   1  -2  21-63.4129 196.221   2
  -1  -2  21 204.539 174.148  16
   2  -2   1-18.3456 123.286   8
  -2   2  -1-9.32030 73.2954  12
  -2   2  -2 673.826 230.960   3
   2   2  -2 733.546 311.002  13
   2  -2   2 478.509 141.664   6
   2   2  -2 137.843 145.787   1
  -2   2  -2 516.266 134.846  12
  -2  -2   2 134.492 62.6055   2
   2  -2   2 425.876 117.381   8
  -2   2  -2 602.357 139.876  19
   2  -2   2 413.201 115.924  14
  -2  -2   3 8.51525 38.5111   2
  -2  -2   3 1.56882 64.3742  17
   2   2  -3 9.35249 26.1857  18
  -2   2  -3-1.52069 18.8876   3
   2   2  -3 19.6333 88.2398   1
   2   2  -3-0.43233 16.6673   3
   2  -2   3 1.71099 12.7720   8
   2   2  -3 0.10977 30.0852  13
   2  -2   3-38.5487 75.6879  16
   2  -2   3-0.56515 10.6265  14
   2  -2   3 6.26404 28.2586   6
  -2   2  -3-5.33091 5.76567  12
  -2   2  -3 1.94045 61.5857  13
  -2   2  -3-1.83727 16.7046  19
   2  -2   4 98.3175 50.0272  14
  -2  -2   4 69.4598 46.2958  19
   2   2  -4 108.998 70.2265  18
   2   2  -4 114.129 98.3959   1
  -2  -2   4 35.3737 49.0416   5
  -2   2  -4 106.048 65.1745   3
  -2   2  -4 94.9597 90.0866  13
   2  -2   4 121.959 79.3492  16
  -2   2  -4 109.102 58.6913  12
   2  -2   4 108.115 54.7751   8
   2   2  -4 139.014 83.8079  13
  -2   2  -4 95.4555 34.6165   5
  -2  -2   4 113.408 66.3429  16
  -2   2  -4 115.247 52.2864   4
  -2   2  -4 113.137 49.2963  19
   2   2  -4 93.5318 46.5618   3
   2  -2   4 107.434 66.2852   6
  -2  -2   4 73.9891 60.1630   2
  -2  -2   4 96.4315 80.9870  17
   2   2  -5 0.31149 37.8047  18
   2   2  -5 0.11945 22.5330   3
   2  -2   5-2.54210 6.24396   6
  -2   2  -5-7.95994 16.7566  19
   2   2  -5-4.18139 6.68298  12
   2   2  -5 9.70329 29.3344   1
  -2  -2   5 9.15459 27.0896   6
   2  -2   5 28.9644 59.8006  16
  -2  -2   5-6.79445 25.4715  17
   2  -2   5-14.6265 20.7917   2
  -2   2  -5 11.5535 50.6345  13
  -2   2  -5 15.4129 39.1954  12
   2  -2   5 2.76789 18.1319   8
  -2  -2   5 4.29386 13.7602   2
   2  -2   5-0.21221 7.63109  14
  -2   2  -5 6.99614 39.1939   3
  -2  -2   5 8.43421 38.5694   5
  -2   2  -5-9.11549 16.3517   4
  -2   2  -5 4.19837 4.88611   5
  -2  -2   5 17.9483 25.6831  16
  -2   2  -6 2861.78 187.892  18
   2   2  -6 3734.61 444.414  15
  -2  -2   6 2935.29 380.944   2
   2  -2   6 3559.14 302.487  14
  -2   2  -6 2970.14 352.005   4
   2  -2   6 3460.89 227.522  17
  -2  -2   6 3204.09 394.491  17
  -2  -2   6 2228.31 351.682   6
   2   2  -6 2847.31 368.355   1
   2   2  -6 3894.10 497.515   7
   2   2  -6 3141.80 348.088  18
  -2   2  -6 3055.82 260.056  11
   2  -2   6 3619.35 442.185  16
  -2  -2   6 3188.66 359.923  16
  -2  -2   6 3266.51 379.958   5
   2  -2   6 3749.60 437.376   6
   2  -2   6 3271.59 299.730   8
   2  -2   6 4042.44 410.107   2
  -2   2  -6 3356.37 301.872  19
  -2   2  -6 3174.00 337.560   5
   2  -2   7 1.96360 19.7025  14
   2   2  -7-4.12476 14.6964  18
   2  -2   7 10.6691 26.1254   6
   2  -2   7 1.98506 12.3814   2
  -2  -2   7-30.7588 41.7063   2
   2   2  -7-98.3206 212.800   7
   2   2  -7-7.24291 9.23495   1
  -2  -2   7 6.93770 27.8772  16
  -2  -2   7-35.2243 55.9882   6
   2  -2   7 21.8144 19.6643  16
  -2   2  -7-3.95008 34.0234  19
   2   2  -7 11.9269 31.7079  20
   2  -2   7-0.75800 27.4604   8
   2   2  -7-113.760 194.653  15
  -2  -2   7 4.39731 11.8533  17
  -2   2  -7-36.2684 77.3480   4
   2   2  -7 18.5690 22.7240  11
   2  -2   7 9.24305 22.0612  17
  -2  -2   7 3.03010 9.66708   5
  -2   2  -7-3.40322 9.89855  11
  -2   2  -7 4.30290 10.1994  18
  -2   2  -8 109.720 59.0993  11
  -2   2  -8 121.606 68.8124  18
   2  -2   8 191.320 82.5889  17
  -2  -2   8 186.729 95.7319  17
   2  -2   8 198.085 123.948  16
   2  -2   8 173.396 81.7673   2
  -2   2  -8 247.661 168.759  20
  -2  -2   8 189.693 74.1720   5
  -2  -2   8 132.102 102.206  16
   2   2  -8 133.147 75.8764  18
  -2  -2   8 183.414 104.717   2
   2   2  -8 309.888 198.737  20
  -2   2  -8 212.651 155.054   7
  -2   2  -8 148.540 145.117  15
   2  -2   8 141.684 81.8189   8
   2  -2   8 186.088 140.227   6
   2   2  -8 222.445 118.506  11
  -2   2  -8 211.913 135.359  10
   2   2  -8 172.015 121.642  10
  -2  -2   8 56.0286 162.970   6
  -2   2  -8 117.448 52.0726  19
   2  -2   8 175.811 98.7032  14
   2   2  -8 119.157 72.4982   1
   2  -2   9 3.81605 17.4344  17
   2  -2   9 3.08209 37.1894   8
   2   2  -9-3.27289 49.3912  10
   2  -2   9-0.31982 59.2719  16
  -2   2  -9-40.2541 73.5924  19
   2   2  -9-2.74593 18.2672   1
  -2  -2   9-4.77519 38.9788   5
  -2  -2   9 21.5295 28.1812   6
  -2   2  -9-22.9187 60.3393  20
  -2  -2   9-34.1604 39.0063  17
  -2   2  -9-11.8168 62.5451  18
  -2   2  -9 2.82640 35.7970   7
  -2  -2   9 15.8252 4.22483  16
   2   2  -9 12.7059 31.7973  11
   2  -2   9-21.9181 107.061   6
   2  -2   9 45.4415 116.129  14
  -2  -2   9-32.7777 56.9024   2
   2   2  -9 67.1604 143.463   9
  -2   2  -9 5.84606 32.2522  11
  -2   2  -9-24.7814 40.4996  10
   2  -2   9-1.08405 37.2898   2
  -2   2  -9 53.5507 115.550  15
  -2   2  -9 25.3781 69.3082   9
   2   2  -9-3.55498 46.5523  18
   2   2  -9 136.986 142.492  20
   2  -2  10 160.937 97.0445   8
   2  -2  10 270.125 107.369   2
  -2   2 -10 131.113 109.709   9
  -2  -2  10 148.523 100.932   2
  -2   2 -10 5.26016 172.294  18
   2  -2  10 141.125 162.848   6
  -2   2 -10 46.3426 56.4376  19
   2  -2  10 148.660 119.483  16
   2   2 -10 242.156 136.413  11
   2   2 -10-48.4365 146.148  20
   2   2 -10 119.521 83.4222  18
  -2   2 -10 47.7787 91.9887  10
  -2  -2  10-158.241 255.385   6
  -2   2 -10 152.673 104.851  11
  -2  -2  10 154.793 110.596  17
   2   2 -10 158.824 166.999   9
   2  -2  10 177.829 189.990  14
  -2  -2  10 163.269 138.842  16
  -2   2 -10 53.0763 7.52201  15
   2  -2  10 214.023 141.120  17
  -2   2 -10 322.008 210.133  20
  -2  -2  10 219.906 87.5428   5
  -2   2 -10 61.6553 111.819   7
   2   2 -10 93.0392 62.6428   1
   2   2 -10 197.845 196.160  10
  -2   2 -11 104.335 128.503  20
  -2  -2  11 68.0339 106.903   2
  -2   2 -11-58.7480 65.7279  11
   2  -2  11-12.9103 87.5261   6
   2  -2  11-27.8129 32.2855   2
  -2   2 -11-184.740 251.872   7
   2   2 -11-4.54755 19.9108  18
  -2   2 -11-22.0777 38.4222  10
  -2   2 -11-51.4428 99.9035   9
  -2   2 -11-18.6212 49.9377  19
  -2   2 -11-306.408 285.783  15
   2   2 -11-2.73990 7.78565  11
   2  -2  11-73.6358 147.991  16
  -2  -2  11 43.1225 126.944  16
   2   2 -11 14.8769 120.140  20
   2   2 -11-9.55841 84.8337   9
  -2  -2  11 45.4453 101.786  17
   2   2 -11 2.95316 27.8952   1
   2   2 -11 37.3787 180.363  10
   2  -2  11 21.4586 86.0308   8
   2  -2  11-124.717 189.507  17
  -2  -2  11 18.7752 44.2435   5
   2   2 -12 310.983 182.550   9
  -2  -2  12 629.767 223.832  17
   2   2 -12 252.678 181.619  10
  -2   2 -12-49.2679 79.5013  19
  -2  -2  12 662.508 266.389   2
   2   2 -12 366.964 170.066  18
  -2   2 -12 135.796 149.397  10
  -2   2 -12 258.769 173.022   9
  -2   2 -12 142.579 143.507  20
   2  -2  12 769.731 330.266  16
   2  -2  12 799.541 219.540   2
   2   2 -12 369.620 185.966  11
  -2   2 -12 274.881 172.461  11
  -2  -2  12 494.230 213.965  16
   2   2 -12 298.835 302.722  20
   2  -2  12 577.037 215.693   8
   2   2 -12 359.041 140.747   1
   2  -2  12 615.293 298.472   6
  -2  -2  12 625.063 148.159   5
   2   2 -13-379.088 525.784  20
   2   2 -13-12.5251 59.9907  18
  -2   2 -13-88.5923 163.937  11
  -2  -2  13-21.1230 53.7468   5
   2  -2  13 94.5956 142.466   6
  -2   2 -13-50.8798 145.002   9
   2  -2  13-19.8550 75.8265   2
   2  -2  13-24.3413 45.7572  16
   2  -2  13-93.2142 123.338   8
  -2  -2  13-8.48447 61.6241  16
   2   2 -13 9.57617 60.2209   1
  -2   2 -13-110.698 266.372  20
   2   2 -13-84.9300 155.950  10
  -2   2 -13 69.3432 147.249  19
   2   2 -13 26.8470 84.8235  11
  -2   2 -13-197.322 237.308  10
   2   2 -13 0.13393 140.180   9
  -2  -2  13 19.7177 81.1973  17
  -2  -2  13-12.9680 76.4954   2
   2   2 -14 80.0766 53.6516  11
  -2   2 -14 98.4170 123.793  10
  -2  -2  14 310.010 76.8555   5
   2  -2  14 392.283 234.014  16
   2   2 -14-48.6724 168.435   9
   2   2 -14 79.5457 226.473  10
   2  -2  14 690.112 237.191   2
  -2  -2  14 286.333 199.242   2
  -2   2 -14 96.3598 28.6423   9
  -2  -2  14 299.633 157.580  17
  -2   2 -14-676.829 386.760  20
  -2  -2  14 340.011 240.652  16
   2   2 -14 109.565 95.8405   1
  -2   2 -14-367.476 283.314  11
   2  -2  14 563.526 273.672   8
   2   2 -14 100.969 74.5364  18
   2  -2  14 687.623 408.170   6
   2   2 -15 20.6853 84.2497   1
  -2   2 -15-510.698 503.853  20
   2   2 -15 43.1887 78.2891  18
   2   2 -15-68.4035 138.876   9
   2  -2  15 319.879 297.091   6
  -2  -2  15 60.3509 46.2724  16
   2  -2  15-17.1245 86.3983   8
   2   2 -15 29.3350 127.350  11
  -2   2 -15-15.3383 57.9854  10
   2  -2  15 25.3835 77.7631  16
   2  -2  15 45.0287 100.425   2
  -2  -2  15-35.0684 43.6604  17
  -2   2 -15-106.739 230.363   9
   2   2 -15 167.469 396.518  10
  -2  -2  15-61.2078 112.053   2
   2  -2  16 137.044 150.197   8
  -2   2 -16-443.651 560.587  20
   2   2 -16-258.558 412.102  10
   2   2 -16 10.2108 46.0127  11
   2  -2  16 104.791 138.065   2
   2   2 -16-27.8392 135.812  18
   2  -2  16 19.2260 125.234  16
   2   2 -16-12.5629 61.3960   1
  -2  -2  16 27.4370 42.3710   2
  -2   2 -16-45.5351 125.832  10
  -2  -2  16 66.7122 119.464  17
   2   2 -16-116.811 223.771   9
  -2  -2  16 130.270 178.644  16
  -2   2 -16-154.619 345.846   9
   2  -2  16-158.609 388.951   6
   2  -2  17-66.5535 108.224   8
   2  -2  17-829.972 752.972   6
   2  -2  17 190.605 168.987   2
   2   2 -17 35.8107 37.9209   1
  -2  -2  17 51.0387 97.3589  17
  -2   2 -17-376.468 418.592  10
   2  -2  17-26.0888 131.384  16
  -2  -2  17-51.8838 92.7559  16
  -2  -2  17 20.9554 43.2595   2
   2   2 -17-392.903 485.015  10
   2   2 -17 180.349 167.970  11
   2   2 -17-703.749 421.039   9
   2   2 -18 64.1197 89.5778   1
  -2  -2  18 186.632 63.8275  17
  -2  -2  18 254.398 192.273   2
  -2  -2  18 370.357 341.649  16
   2   2 -18-4.07818 73.4279  11
   2  -2  18 605.661 424.731  16
   2  -2  18 492.167 282.248   2
   2  -2  18 238.866 211.498   8
   2   2 -19 82.5561 111.190   1
   2  -2  19-23.6124 152.202   8
  -2  -2  19 114.783 275.398  16
   2  -2  19 74.8875 147.405   2
   2  -2  19 165.962 291.978  16
  -2  -2  19-166.641 251.510   2
   2   2 -19-255.873 294.545  11
  -2  -2  20 697.545 413.308  16
  -2  -2  20 538.393 287.609   2
   2   2 -20 146.337 118.378   1
   2  -2  20 916.956 385.687   2
   2  -2  20 767.063 458.755  16
   2  -2  20 420.823 253.868   8
   2   2 -20-382.443 414.667  11
   2  -2  21-76.4527 212.162   8
  -2  -2  21-271.653 237.110   2
   2   2 -21 48.1737 87.3373   1
   2  -2  21-90.8388 170.294   2
   2  -2  21 135.803 249.854  16
  -2  -2  21 253.594 379.739  16
   3   0   0-1.98170 20.2997  14
  -3   0   0 3.10497 15.9249   2
  -3   0   0-1.25109 24.1779  19
  -3   0   0 1.58606 23.7091   5
   3   0   0-7.27625 9.68171  11
  -3   0   0-5.03508 3.62222  17
   3   0   0 3.24466 21.9145  18
   3   0   0 14.3275 17.7212   1
   3   0   0-9.62454 4.35110   6
  -3   0   0 9.02849 25.7432  12
  -3   0   0-7.98644 13.7930   4
   3   0   0 8.18498 30.7841   8
  -3   0  -1 826.909 140.063  17
   3   0   1 984.704 169.302   6
  -3   0  -1 906.425 198.888  19
   3   0  -1 928.804 134.003   8
  -3   0   1 1009.13 161.555  19
  -3   0  -1 891.834 195.512   5
   3   0  -1 1149.80 126.118   6
   3   0   1 1049.48 141.252  18
   3   0  -1 1104.07 175.213  11
   3   0   1 1071.20 208.998   1
   3   0  -1 974.673 154.823  18
   3   0  -1 1062.96 175.842  14
  -3   0   1 940.332 151.608   4
   3   0   1 977.526 205.153  14
  -3   0   1 833.352 157.193   5
  -3   0   1 915.771 169.017  17
  -3   0  -1 794.276 185.663   4
  -3   0   1 879.925 132.843  12
   3   0   1 975.101 179.569   8
   3   0  -1 1041.23 178.057   1
  -3   0   1 860.679 123.638   2
   3   0   2-16.5731 25.6908   1
   3   0   2 12.6934 23.5966  18
  -3   0  -2 0.96164 42.5318   7
  -3   0  -2 16.1166 61.1696   4
   3   0  -2 8.66970 27.0614  18
  -3   0   2-1.99155 14.8787  19
   3   0  -2 5.65517 30.9216   1
  -3   0  -2 26.1279 47.1527  19
  -3   0   2 12.9665 26.3629   5
  -3   0  -2 12.4435 19.7220  17
   3   0  -2-7.11375 19.9098  14
   3   0   2 7.38573 23.5157   8
   3   0  -2-0.50205 1.52376   8
  -3   0   2-1.43462 10.9778   2
  -3   0  -2-96.4878 224.803  20
  -3   0  -2-7.98722 12.7394  15
   3   0  -2-153.074 171.932   9
  -3   0  -2-12.2859 18.6103   5
   3   0   2 7.16585 39.6123   6
   3   0   2-12.0531 33.9691  16
   3   0  -2 2.05481 28.3644  11
  -3   0   2-1.14565 17.0284  17
  -3   0   2 5.79272 14.0836   4
   3   0   2 12.3909 39.5467  14
   3   0   3 18.4150 102.524   1
  -3   0   3 15.8540 27.4132   2
   3   0  -3 12.1765 30.8732   8
   3   0   3 25.4177 45.4629  14
  -3   0  -3-21.4649 87.1694   5
  -3   0   3 29.1330 44.8930  17
   3   0   3 28.9575 47.8884   6
  -3   0  -3 14.2952 49.7778   4
  -3   0   3 23.3412 17.9475   5
   3   0  -3 32.6075 55.8971  11
  -3   0   3 15.4878 21.0177  19
   3   0  -3 29.0562 23.2306  18
   0   3  -3 2.00939 48.8032   3
   3   0  -3 16.6031 15.9751  14
  -3   0  -3-11.2775 43.7203  15
   3   0  -3 17.9174 30.9583   1
  -3   0  -3 8.79767 46.7299   7
   3   0   3 47.5273 77.0701   8
  -3   0  -3 1.68391 11.4492  19
   3   0   3 47.8840 39.2265  16
   3   0  -4-4.48444 27.1835  18
   3   0   4 48.9253 118.435  16
  -3   0  -4-60.9567 130.755  15
  -3   0   4 5.69713 11.0434   2
   3   0   4-15.4276 25.0791  14
   3   0  -4 8.46850 16.4299   1
   3   0  -4 37.7023 86.9752  11
   0   3  -4-6.36483 28.7285  12
   0   3  -4-9.93929 26.8661   3
   3   0   4-12.9869 67.7188   8
   0  -3   4-6.03549 44.1471   6
  -3   0   4-3.00833 7.81177  19
  -3   0   4-20.9480 47.3863   5
   3   0  -4 10.1482 22.8073  14
   3   0   4 3.72884 61.6065   6
   0   3  -4-32.5562 56.5628  13
  -3   0  -4-91.1630 171.993   7
  -3   0   4 17.8432 30.7523  17
   3   0   5 65.3078 79.8769   6
   0  -3   5 69.5468 67.2915  16
   0   3  -5 105.334 56.1447  12
   3   0  -5 102.645 62.9691  14
  -3   0   5 63.6801 50.1362   2
   0   3  -5 115.260 95.2171  13
   3   0   5 21.3508 20.9059  14
   0   3  -5 99.3072 73.6514   3
   3   0   5 84.6446 109.737  16
   3   0  -5 91.9816 67.3335   1
   3   0  -5 65.4955 62.3203  18
   3   0   5 117.705 123.322   8
   3   0  -5 86.2284 91.1295  11
  -3   0   5 107.806 88.1878  17
   0  -3   5 97.1138 63.7716   6
   0  -3   5-14.3718 133.701   2
   3   0  -6-9.80629 17.4117  14
   0  -3   6-13.3463 31.7055  16
   3   0  -6-15.5003 52.1260   1
   0   3  -6-10.1063 12.7692  18
   0  -3   6-25.1738 65.2268   2
  -3   0   6-12.0166 75.9332   2
   0   3  -6 13.6302 23.1914  12
   3   0  -6-20.3811 55.1129  18
   0  -3   6 16.4158 27.5978   6
   3   0   6 28.3418 20.2814   6
   3   0   6-41.3320 176.310   8
   3   0   6 17.8328 112.903  16
   0  -3   6 11.8307 17.3521  17
   3   0  -6 7.12766 45.1920  11
  -3   0   6 7.19625 48.0160  17
   0   3  -6-18.0586 34.3424   3
   0   3  -6-8.25006 42.4893  13
   0  -3   7 2010.17 347.461  16
   3   0  -7 914.677 310.687  11
   3   0   7 580.054 195.212   8
   3   0   7 1776.81 560.218  16
   0   3  -7 2092.26 262.607  12
   0  -3   7 2216.77 326.666   6
   0   3  -7 1997.50 322.727   3
   3   0  -7 1212.88 319.802  18
   3   0  -7 1469.12 268.534  14
   0   3  -7 1830.73 267.007  18
   0  -3   7 1965.81 217.677   8
   3   0   7 1431.50 480.692   6
  -3   0   7 2255.60 423.767   2
   0  -3   7 1966.64 329.180  17
   0   3  -7 1784.44 344.896  13
   0  -3   7 2094.19 411.704   2
   3   0  -7 1835.52 387.077   1
  -3   0   7 2793.61 503.206  17
   3   0  -8 5.55345 78.9737  18
  -3   0   8-68.8706 135.303   2
   0  -3   8-9.76302 24.2201   2
   3   0  -8-108.883 191.421   1
   0  -3   8 8.49640 14.2115   8
   0  -3   8-24.9485 43.4678  17
   3   0   8 29.2460 53.7859   6
   3   0   8 94.2827 211.404  16
   0  -3   8-4.75517 30.0514   6
   3   0  -8 13.6021 124.252  11
   0  -3   8 34.9908 52.0269  16
   0   3  -8-3.89987 15.4993  18
  -3   0   8-17.0143 55.1521  17
   0   3  -8 33.9085 73.6166   3
   0   3  -8 37.2839 45.6342  12
   3   0  -9 0.98438 23.6839  11
   0  -3   9 2.40135 26.1113   6
   0  -3   9 6.79893 50.5777   2
   3   0   9-101.751 226.592   6
   0   3  -9 22.1906 20.3204  18
  -3   0   9-34.5619 98.3464   2
   0  -3   9-9.76732 39.6233  16
  -3   0   9 20.7744 61.3447  17
   0  -3   9 21.0174 9.22597  17
   3   0   9 125.110 206.735  16
   3   0  -9-61.5856 162.070  18
   0   3  -9 50.5963 57.8169  11
   0  -3   9 3.39342 11.4273   8
   0   3  -9-19.0282 52.4332   1
   0   3 -10-10.1403 53.4900  11
   3   0 -10-72.1495 180.566  11
   0   3 -10 10.7859 34.6836  18
   0   3 -10 48.4416 89.9386   1
   0  -3  10-25.9814 46.3993  17
   3   0  10 60.1488 181.612  16
   0  -3  10 26.0712 26.6246   8
   3   0  10-190.250 389.203   6
   0   3 -10 13.0549 114.122   7
   0  -3  10-16.4402 9.50791  16
  -3   0  10-31.9320 127.687  17
   0   3 -10-59.7572 86.5507  20
  -3   0  10-69.0077 97.3743   2
   0  -3  10 19.0075 92.3718   2
   0   3 -10-43.4724 53.1744  15
   0  -3  10 65.2075 28.4375   6
   3   0 -10-136.970 242.554  18
  -3   0  11-95.3572 140.843   2
   0  -3  11-6.27219 8.01169   8
   0   3 -11 35.9307 59.0460   7
   0  -3  11 36.1232 72.7171   2
   0   3 -11-27.9455 84.8236  20
   0   3 -11 13.9390 45.1466   1
   0   3 -11-4.60142 3.36549  18
   0  -3  11 35.2688 71.3500  16
   0   3 -11-20.2286 48.4524  15
   3   0  11-450.502 524.105   6
   0   3 -11 101.667 104.512  10
   0   3 -11-27.0948 64.5451  11
   3   0 -11-169.662 279.718  11
  -3   0  11-133.033 190.582  17
   3   0  11-29.0998 69.7614  16
   0  -3  11-4.54821 7.55810  17
   0  -3  11-83.7213 174.716   6
   0   3 -12 14.6796 27.3670   1
   0   3 -12 18.1083 47.9145  18
   0   3 -12 158.822 177.619   9
   0   3 -12-6.00890 11.8094  19
   0  -3  12-45.1539 94.8433   6
   3   0  12 45.3107 38.4636  16
   0  -3  12 40.8556 49.8148   2
   0   3 -12-212.632 166.706  10
   0  -3  12-53.1921 85.8933  16
   0   3 -12 11.0011 56.8620  11
   0  -3  12 41.8800 74.1155  17
   0   3 -12-133.866 246.679  15
  -3   0  12-56.2680 125.958   2
   0  -3  12-29.5194 34.9464   8
   3   0 -12-250.031 366.361  11
   0   3 -12-66.7427 137.753  20
   0   3 -12-68.2958 99.7385   7
   0   3 -13 329.884 141.405  11
   0  -3  13 488.453 189.883   2
  -3   0  13 315.180 164.949   2
   0  -3  13 311.025 188.901  16
   0  -3  13 416.824 113.977   8
   0   3 -13 65.3491 180.490  10
   0   3 -13 142.227 61.0686   1
   0   3 -13 194.929 66.2216  19
   0   3 -13 493.127 273.430  20
   3   0  13 137.539 122.454  16
   0  -3  13 487.822 175.647  17
   0   3 -13 321.030 130.749  18
   0  -3  13 430.621 283.620   6
   0   3 -13 283.416 229.686   9
   0   3 -14-42.3480 42.9138  19
   0   3 -14 33.3720 67.2512  20
   0   3 -14-171.463 152.670   9
   0   3 -14-60.7636 74.7457   1
   0  -3  14 252.642 116.042   8
   0  -3  14 15.2709 85.7286  17
   0  -3  14 185.862 181.870   2
   0   3 -14 16.8216 76.0753  11
   0   3 -14-33.9142 49.0020  18
   0   3 -14 182.301 288.533  10
   3   0  14 84.0473 176.980  16
   0  -3  14 155.617 151.803  16
   0  -3  15 109.020 156.372   6
   0   3 -15 52.6647 95.5411  10
   0  -3  15 250.648 122.604   8
   0  -3  15 189.820 174.328  16
   0   3 -15 79.8803 85.1539  11
   0  -3  15 316.677 174.134  17
   3   0  15 352.972 357.681  16
   0  -3  15 280.805 185.212   2
   0   3 -15 84.9607 76.5723  19
   0   3 -15 260.581 343.492  20
   0   3 -15 111.997 83.9990   1
   0   3 -15 202.849 118.739  18
   0   3 -15 252.870 233.747   9
   0  -3  16-48.0597 98.3484   2
   0   3 -16 44.9170 199.525  20
   0  -3  16-25.5575 59.3901  17
   0   3 -16 59.3330 71.5623   1
   0   3 -16-33.2337 108.734   9
   0  -3  16-55.1334 200.258   6
   0  -3  16-132.258 141.869  16
   0   3 -16 131.985 200.875  10
   0   3 -16 23.7661 50.5536  11
   0  -3  16 4.24259 26.8986   8
   0   3 -16-8.99587 37.9671  19
   0  -3  16-10.4221 9.97904   5
   0   3 -16 73.3750 88.5092  18
   0  -3  17 142.895 65.6775   5
   0   3 -17 9.85596 26.0496  19
   0   3 -17 273.472 273.652   9
   0   3 -17 116.584 80.8211   1
   0  -3  17 157.138 106.907   2
   0  -3  17 84.7957 73.8698   8
   0   3 -17-65.0177 145.748  18
   0  -3  17 178.011 189.399  16
   0   3 -17 6.83433 289.127  20
   0  -3  17 263.051 168.994  17
   0   3 -17 112.379 69.6954  11
   0   3 -17-31.8892 193.068  10
   0   3 -18-8.08082 53.8981  19
   0  -3  18 160.976 136.725   8
   0   3 -18 123.671 173.197  10
   0   3 -18 255.613 132.207   1
   0  -3  18 232.378 152.039   2
   0  -3  18 167.339 97.5091  17
   0  -3  18 186.786 149.400  16
   0   3 -18 145.874 108.987  11
   0  -3  18-572.766 746.434   6
   0   3 -18-116.561 294.104  18
   0   3 -18-219.526 496.311  20
   0   3 -18 214.673 208.905   9
   0  -3  18 133.617 61.7129   5
   0   3 -19 65.7776 107.472  11
   0   3 -19 210.184 254.632   9
   0  -3  19 466.187 171.340  17
   0  -3  19 901.067 451.983  16
   0   3 -19-20.4858 49.6687  10
   0  -3  19 938.578 391.669   2
   0  -3  19 659.535 248.626   8
   0  -3  20 21.7578 97.3006   8
   0   3 -20-116.204 251.892  10
   0  -3  20-126.580 154.761   2
   0   3 -20-178.487 231.730  11
   0   3 -20-133.231 234.612   9
   0  -3  20 155.319 47.3779  16
   0  -3  21 455.679 280.108  16
   0  -3  21 707.173 347.599   2
   3   1   0 756.919 284.272   1
  -3   1   0 616.936 147.564  12
   3  -1   0 678.945 145.337   1
  -3  -1   0 237.955 171.896  19
  -3  -1   0 186.041 131.449   4
  -3   1   0 158.107 70.9821  17
  -3  -1   0 301.363 176.363  17
   3   1   0 546.169 209.459   8
  -3   1   0 594.737 125.897   4
   3  -1   0 536.068 114.352   8
  -3   1   0 624.171 131.428  19
   3  -1   0 639.359 138.020   6
  -3   1   0 638.377 133.430   5
   3   1   0 476.420 243.729  14
   3   1   0 704.316 215.914  18
  -3  -1   0 344.345 198.917   5
   3  -1   0 697.301 149.607  14
  -3   1  -1 337.850 131.775   3
  -3   1  -1 321.876 89.8136   5
  -3  -1   1 381.359 154.193  19
   3   1   1 170.549 136.813  14
  -3   1  -1 58.8393 21.1788  17
   3  -1   1 289.529 83.5888   8
  -3   1  -1 337.088 93.5569   4
   3   1  -1 408.594 166.653   1
  -3  -1   1 244.719 112.910  17
   3  -1  -1 375.276 112.856  14
  -3   1   1 382.560 107.269  19
  -3   1  -1 378.774 99.9224  12
   3  -1  -1 344.132 104.264   8
   3   1  -1 295.149 115.790   8
   3   1   1 183.686 88.7314   8
   3   1  -1 500.013 152.168  13
  -3  -1   1 257.992 136.977   4
  -3   1   1 81.0129 40.2175  17
   3  -1  -1 399.231 130.797   1
   3  -1   1 400.092 105.191   6
   3   1   1 352.773 226.023   1
  -3  -1   1 317.733 119.444   2
  -3  -1   1 235.836 126.805   5
   3   1  -1 376.537 127.389  18
   3   1  -1 303.035 157.359  14
   3  -1   1 358.248 105.113  14
   3  -1   1 352.510 94.2743   1
  -3   1  -1 349.568 98.5615  19
   3   1  -2 138.862 72.3632  18
   3  -1   2 159.859 66.6328  14
  -3  -1   2 127.947 80.0366   5
   3  -1   2 172.083 69.3510   6
  -3   1   2 175.100 83.4053  19
  -3  -1   2 87.7339 51.1610   2
   3   1  -2 170.402 71.2511  13
   3  -1   2 206.584 84.7496  16
   3   1  -2 182.018 103.909   1
   3  -1  -2 154.771 21.1936   8
  -3   1  -2 139.996 65.4466  19
  -3   1  -2 136.713 56.5264   5
   3  -1  -2 135.547 81.1409  14
  -3  -1   2 126.412 76.3177  17
  -3  -1   2 101.948 64.5327  19
   3   1  -2 147.243 57.2018   8
   3  -1  -2 131.208 63.1484   1
   3  -1   2 162.477 64.1646   1
  -3   1  -2 170.030 70.2533   3
  -3   1  -2 165.485 76.4888   4
  -3  -1   2 125.656 81.7641   4
  -3   1  -2 161.842 73.8444  12
   3  -1   2 119.814 53.8166   8
   3   1  -2 157.627 102.867  14
   3   1  -3 72.4327 35.4561   8
   3   1  -3 88.9884 67.1513   1
   1   3  -3 7.06307 199.425  13
  -3   1  -3 69.4700 48.4058   5
  -3  -1   3 70.8598 50.7794  17
   3  -1   3 80.7751 54.5636   6
   3  -1   3 77.0965 50.4639   8
  -1   3  -3 67.8021 73.3032   3
  -3  -1   3 61.7075 50.4031   5
   3  -1  -3 15.9602 44.2300  14
   3   1  -3 81.8181 71.0360  14
   3   1  -3 124.262 58.3460  20
  -3  -1   3 67.9417 47.7241   4
   3  -1   3 106.282 64.3671  16
  -3  -1   3 87.8407 47.9783  19
  -3   1  -3 74.2652 44.6761  19
  -1   3  -3 87.7400 72.2443  12
  -3   1  -3 69.6512 48.6975   4
   3  -1   3 69.0333 52.2384  14
  -3  -1   3 57.0899 41.3899   2
   3   1  -3 99.1848 62.8570  18
  -3  -1   3 80.5139 38.3597  16
   3  -1   3 85.8706 49.3270   1
   3  -1   4 243.956 95.4640  14
   3   1  -4 239.411 59.7701   8
   3   1  -4 241.031 96.0596  18
   3   1  -4 305.334 117.108  11
  -3   1  -4 216.445 94.3500  20
  -1   3  -4 235.114 129.765   3
  -3  -1   4 225.168 100.431  17
  -3   1  -4 304.816 101.905  10
   1   3  -4 252.035 126.323   3
   3   1  -4 196.235 82.3573  14
  -3   1  -4 179.191 92.7280  19
   3  -1   4 250.340 108.182   1
  -3   1  -4 200.840 96.1400   4
  -3  -1   4 199.663 81.2736   2
  -3  -1   4 244.854 75.4413   4
  -1   3  -4 315.879 265.646  13
   3  -1   4 290.902 108.713   8
   3   1  -4 335.288 129.371  10
  -1   3  -4 284.984 102.767  12
  -3  -1   4 237.608 89.1325   5
  -3  -1   4 254.967 74.8106  19
   1   3  -4 323.565 175.085  13
  -3   1  -4 196.257 95.9044   5
   3  -1   4 289.220 103.875  16
   3   1  -4 239.425 103.019  20
   1  -3   4 210.775 100.885   6
  -3  -1   4 211.057 76.3835  16
   3   1  -4 228.104 98.5004   1
   3  -1   4 273.126 106.977   6
  -3  -1   5 353.331 110.621   5
   1   3  -5 328.034 150.202  13
  -1  -3   5 191.530 132.839   2
   1  -3   5 373.504 130.432   6
  -1   3  -5 349.517 115.032  12
   1   3  -5 367.107 161.724  18
   3   1  -5 296.533 91.9861  14
   3  -1   5 355.840 138.913  16
  -3  -1   5 292.356 80.4247   4
   3  -1   5 329.149 132.391  14
  -1  -3   5 260.547 192.781  17
   3  -1   5 204.640 126.095   1
   3  -1   5 387.900 146.483   6
  -1   3  -5 336.029 131.197   3
  -3   1  -5 238.326 142.321   5
  -3   1  -5 341.279 127.870  10
  -1  -3   5 292.366 127.337  16
   3  -1   5 362.276 132.365   8
   1   3  -5 342.015 106.444  12
   3   1  -5 354.959 190.244  10
  -1   3  -5 394.805 214.865  13
   3   1  -5 295.203 109.887   1
   3   1  -5 1157.56 249.920   8
   3   1  -5 219.092 165.379  20
   1  -3   5 272.955 135.673  16
   1  -3   5 269.842 107.410   8
  -3  -1   5 370.627 133.356  17
   3   1  -5 287.553 108.274  18
  -3   1  -5 271.867 144.582   4
  -1  -3   5 277.401 106.593   6
   3   1  -5 373.117 136.274  11
  -3   1  -5 245.263 117.241  19
  -3   1  -5 337.641 107.448   9
  -3   1  -5 359.420 175.880   7
  -3  -1   5 307.901 110.767  16
  -3   1  -5 240.539 117.580  20
  -3   1  -5 341.361 162.740  15
  -3  -1   5 330.480 84.0643  19
   1   3  -5 366.629 132.142   3
   3   1  -5 417.010 186.629   9
  -3  -1   5 309.549 115.915   2
   3  -1   6 913.263 267.990   6
  -3   1  -6 524.971 192.880  19
   3   1  -6 630.876 299.872  20
  -3   1  -6 621.571 208.579  15
  -3   1  -6 580.454 216.582  10
   1  -3   6 855.608 236.318  16
   1   3  -6 875.583 153.278  12
  -3   1  -6 635.437 234.575   7
  -1  -3   6 842.862 257.216  17
  -3  -1   6 908.810 177.535   5
   1  -3   6 494.652 246.279   2
  -3   1  -6 340.830 155.406   4
  -3  -1   6 693.872 196.986  16
   3  -1   6 864.558 235.902   8
  -1   3  -6 785.833 206.030  18
  -3  -1   6 900.426 190.304  19
   3   1  -6 744.093 259.422   9
   1   3  -6 926.295 243.441  13
  -3  -1   6 801.377 192.499   2
  -1   3  -6 852.736 120.107   4
  -3   1  -6 615.827 249.762  20
   1  -3   6 861.990 204.486   6
  -1   3  -6 742.822 163.870  12
   3   1  -6 777.083 297.257  10
   1  -3   6 797.651 238.761  17
  -3   1  -6 628.286 198.509   9
   3   1  -6 876.422 225.091  11
   3   1  -6 714.659 182.165  18
  -1   3  -6 835.617 205.507   3
   1   3  -6 891.149 200.862   3
  -1   3  -6 806.582 179.467  19
  -3  -1   6 968.762 224.654  17
   1  -3   6 747.236 146.446   8
   1  -3   6 946.062 163.416  14
   3  -1   6 1039.55 146.601   2
  -1  -3   6 790.923 210.565  16
  -1   3  -6 864.072 276.045  13
   3   1  -6 810.319 146.718  14
   3  -1   6 852.262 244.515  14
  -1  -3   6 866.132 180.571   6
   1   3  -6 884.709 233.384  18
  -1  -3   6 831.041 267.828   2
   3  -1   6 961.960 259.747  16
   3   1  -6 847.194 189.789   1
   3   1  -7 187.235 96.4788  18
   1  -3   7 245.438 172.031   2
  -1   3  -7 317.687 84.9046   4
   1   3  -7 252.495 131.001  13
   3   1  -7 340.321 200.034   9
  -1  -3   7 243.597 119.664  16
  -3   1  -7 140.038 93.0796   9
   1   3  -7 66.1867 87.0541   1
   1  -3   7 312.770 144.458  16
  -3   1  -7 193.192 119.340  10
   3   1  -7-50.3353 401.134  20
  -3  -1   7 214.708 130.249  16
  -3  -1   7 331.681 113.097   5
   1   3  -7 215.653 98.2439  18
   1  -3   7 251.991 75.2610   8
  -1  -3   7 307.245 155.151   2
  -3  -1   7 361.818 151.511  17
   1  -3   7 316.018 132.286   6
   3   1  -7 265.666 81.9642  14
  -3  -1   7 305.134 136.249   2
  -1   3  -7 244.835 90.3974  18
   3  -1   7 361.182 98.7721   2
  -1   3  -7 222.751 119.870  13
   1   3  -7 265.467 85.2591  12
   3   1  -7 225.077 125.756  11
   1   3  -7 328.105 123.555   3
  -1  -3   7 277.528 104.372   6
  -3   1  -7 148.586 127.961  15
  -3   1  -7 134.561 121.259  19
  -3   1  -7 169.585 151.689  20
   1  -3   7 253.123 109.063  17
   3   1  -7 161.265 78.8923  10
  -1   3  -7 311.813 92.2817  19
  -1   3  -7 286.873 108.444  12
  -1   3  -7 311.925 140.945   3
  -3   1  -7 105.020 124.538   7
   3  -1   7 322.174 168.618  16
  -1  -3   7 258.254 117.357  17
   3  -1   7 348.237 214.478  14
   3  -1   7 380.818 184.545   8
   3  -1   7 370.912 200.529   6
   1  -3   7 336.199 79.4945  14
   3   1  -7 313.579 124.741   1
  -1  -3   8 853.965 229.035   6
  -1   3  -8 965.364 215.266  12
  -3  -1   8 1093.17 270.893   2
   1   3  -8 1007.36 179.793  12
  -3   1  -8 304.696 124.923  15
  -1   3  -8 897.666 237.888   3
   1  -3   8 1013.99 192.425  17
   1  -3   8 1076.14 284.991   2
  -3  -1   8 1141.86 216.153   5
   1  -3   8 1052.07 266.401  16
  -3   1  -8 593.749 236.072  20
   3   1  -8 844.015 257.763  11
  -1   3  -8 835.197 154.410  18
  -3  -1   8 740.271 259.359  16
   3  -1   8 863.650 331.582  14
   3  -1   8 1138.09 353.982  16
   1  -3   8 865.058 145.214   8
  -3   1  -8 423.429 193.195   9
   3   1  -8-20.2705 653.399  20
   1  -3   8 1206.43 274.258   6
  -3  -1   8 1218.56 288.779  17
  -1   3  -8 1053.35 152.453  19
  -3   1  -8 206.025 198.892  19
  -3   1  -8 323.773 155.463   7
  -1  -3   8 889.742 233.693  16
   3   1  -8 950.664 228.177   1
   3   1  -8 793.978 216.912  18
  -1   3  -8 1088.15 206.007   4
  -1  -3   8 1011.42 272.133   2
   3  -1   8 1086.72 373.175   6
   3   1  -8 935.388 157.707  14
   3   1  -8 391.031 226.098  10
   3   1  -8 496.057 228.660   9
   1   3  -8 964.944 230.265   3
   1   3  -8 858.784 194.425  18
   3  -1   8 1371.07 245.599   2
   1   3  -8 706.265 289.340   1
   1  -3   8 1011.16 136.440  14
  -3   1  -8 529.745 228.233  10
  -1   3  -8 769.785 250.843  13
  -1  -3   8 919.004 232.929  17
   3  -1   8 1053.13 324.844   8
  -1   3  -9 136.878 16.3626   4
   3   1  -9 406.365 432.587  10
   1  -3   9 268.891 146.108   2
  -3   1  -9-193.774 262.485   9
  -3   1  -9-31.1419 93.8045  20
  -1   3  -9 320.019 76.2914  19
   1   3  -9 291.797 124.473  11
   1  -3   9 278.614 140.155  16
   1   3  -9 430.462 222.639  15
   3   1  -9 208.527 128.537   1
   1  -3   9 234.293 75.6187   8
   3   1  -9 95.0798 108.276   9
   3  -1   9 231.749 189.012   6
   1   3  -9 235.755 101.769  18
   3   1  -9 238.003 83.4256  14
  -3  -1   9 283.308 95.8139   5
  -3   1  -9 107.368 126.654  10
   1   3  -9 243.540 167.741   1
   1  -3   9 238.538 122.105   6
   1   3  -9 354.656 230.954   7
   1  -3   9 265.555 75.7612  14
   3  -1   9 265.639 160.593   8
  -1   3  -9 308.884 106.177  11
  -1  -3   9 180.156 103.544  16
   3  -1   9 284.855 183.288  16
   3   1  -9 195.852 141.543  11
  -1   3  -9 208.204 76.4797  18
  -3  -1   9 336.787 160.280  17
   3  -1   9 280.690 110.462   2
  -3  -1   9 234.901 194.629  16
  -1  -3   9 204.861 119.405  17
  -1  -3   9 207.308 128.677   2
   1  -3   9 232.626 91.5094  17
  -1  -3   9 206.594 156.723   6
   3   1  -9 232.878 119.772  18
  -3  -1   9 326.628 155.152   2
   1   3 -10 37.2333 44.5802  18
  -1   3 -10 124.562 139.454   7
   1  -3  10 45.3764 26.8389   8
   1   3 -10 86.9326 136.402   7
   3   1 -10 29.4132 59.8935  18
   1  -3  10 118.383 99.9192   2
   1   3 -10 62.9666 79.4491  20
   1   3 -10 89.1181 77.0888  11
   1  -3  10 54.3423 60.3283  14
   3   1 -10 54.7597 70.2802   1
  -1   3 -10 62.1292 34.6393  19
   3   1 -10 85.1743 117.208  10
  -1   3 -10 40.3276 107.627  20
  -3  -1  10 87.1841 77.7069  17
  -1  -3  10 21.7184 58.5521   5
  -1  -3  10 75.9656 82.4414  16
  -1  -3  10 105.555 97.2975   2
  -3   1 -10-141.158 273.359  10
   1  -3  10 74.9507 83.6053   6
  -1   3 -10 131.976 78.4541  11
   3   1 -10 76.1079 114.143   9
  -3   1 -10-114.155 280.938  20
  -1  -3  10 49.1056 23.7987   8
   1  -3  10 35.4882 13.5896  16
  -1  -3  10 50.7763 48.8001  17
  -3  -1  10 69.3042 62.4040   2
   1  -3  10 55.1253 38.7813  17
   3   1 -10 13.9384 28.9315  11
  -1  -3  10 52.0443 7.86359   6
  -3  -1  10 116.330 142.325  16
   3  -1  10 34.9678 82.5724  16
   3  -1  10 126.534 216.257   6
  -1   3 -10 117.656 150.843  15
   3  -1  10 74.5179 51.4394   8
   1   3 -10 89.7357 101.372  15
   1   3 -10 101.972 110.319   1
   3   1 -10 73.0618 53.4400  14
   3  -1  10 115.695 46.2484   2
  -1   3 -10 35.9381 38.8853  18
   3   1 -11 16.3593 40.1783  18
   1   3 -11 23.5673 50.4692  10
   1  -3  11 57.0365 39.2985   8
   3  -1  11-53.0896 186.554   6
   1   3 -11-18.1668 46.0852   1
  -1   3 -11 31.3563 31.6321  15
  -3  -1  11 51.0198 56.6244  17
  -1   3 -11 32.0942 48.8158  11
  -3  -1  11 120.938 82.4147  16
  -1   3 -11 182.814 151.568  20
  -1  -3  11 14.2247 18.0131  17
   1  -3  11 12.9532 66.5315   6
   1   3 -11-10.5327 48.9116  11
   1  -3  11 36.7481 44.4826  17
  -1  -3  11 25.2014 22.2360   8
   3   1 -11-320.285 606.882  10
   3  -1  11 93.0639 137.290   8
   1   3 -11 46.2949 199.756   7
   1  -3  11-39.9020 8.50754  14
  -3  -1  11 75.4371 91.9392   2
   1   3 -11 7.00758 9.61325  18
   3   1 -11 54.4884 112.901  11
  -1  -3  11 12.4031 23.6912  16
  -1   3 -11 45.6621 114.967  10
  -1   3 -11 15.4505 22.8019  19
   3  -1  11-3.01142 151.282  16
   1   3 -11-41.2903 186.072  15
  -1   3 -11 45.7584 103.878   7
  -1  -3  11 35.2213 61.3323   5
  -1  -3  11 94.0311 136.976   6
   3  -1  11 69.2000 61.8574   2
   1  -3  11 4.74174 47.2554  16
   3   1 -11 37.3803 60.1653   1
  -3   1 -11-417.500 380.695  20
  -1   3 -11 47.6244 38.8662  18
  -3   1 -11-125.505 309.455  10
  -1  -3  11 14.4837 54.5984   2
   3   1 -11-171.496 236.097   9
   3   1 -11 25.3597 48.6008  14
   1   3 -11 267.553 170.458  20
   1  -3  11 29.6591 27.1866   2
  -1   3 -12 146.939 102.340  11
  -1  -3  12 64.5953 40.7160   8
   1   3 -12 100.368 152.434  10
  -1  -3  12 101.444 70.5688   2
  -1   3 -12 255.093 284.646  15
   3   1 -12 68.2802 49.4083  14
   3  -1  12 105.209 33.3221   2
   1   3 -12 108.523 83.0871   1
  -1   3 -12 95.6454 83.5154  18
   3   1 -12 51.6650 83.2292  18
   1  -3  12 107.675 105.150   2
  -1  -3  12 102.498 100.225  17
   1   3 -12 111.276 103.417  11
   1  -3  12 143.317 91.0149  17
   3  -1  12 24.2247 183.185  16
   1   3 -12 163.842 173.447   9
   1  -3  12 24.6293 55.0548  16
  -1  -3  12 26.8956 17.0989  16
   3   1 -12-30.4880 178.898   9
   1   3 -12 66.6849 82.0790  18
  -1   3 -12 227.551 217.585   9
   1  -3  12 126.349 57.0331   8
   3   1 -12 127.530 150.894  11
   3   1 -12 78.2193 77.3501   1
  -3  -1  12 101.415 102.064   2
   3  -1  12 119.884 185.554   8
  -1   3 -12 112.252 61.1184  19
  -1  -3  12-18.0486 215.224   6
   1   3 -12 84.4939 189.953  20
   3  -1  12 126.539 185.625   6
  -3  -1  12 76.6365 115.937  17
  -1   3 -12 120.326 144.338  10
   1  -3  12 110.257 77.0603   6
  -1   3 -12 225.517 272.220  20
  -1   3 -12 153.615 170.865   7
  -1  -3  12 50.5096 48.5749   5
  -3  -1  12 126.727 212.420  16
   1  -3  13-79.7069 90.8974   8
  -1  -3  13-26.9764 10.1044   2
  -1   3 -13-39.0324 81.6546  11
  -1   3 -13 83.6939 144.737   9
   3  -1  13 59.3228 62.1410   8
   3  -1  13 21.9419 131.909   6
  -1  -3  13-14.5710 18.1746   8
   1  -3  13-4.72173 30.5416   2
  -1   3 -13-364.492 532.639  15
  -1   3 -13-331.936 498.826   7
   1   3 -13-58.3902 71.2357  18
  -3  -1  13 110.673 262.127  16
   3  -1  13-153.296 190.051   2
  -1   3 -13-32.2599 74.1729  18
  -3  -1  13 74.5150 118.643  17
  -1  -3  13 92.7738 422.323   6
   3   1 -13-190.016 141.449  18
   1   3 -13 25.2834 106.717   9
   1   3 -13 58.6948 60.2446  10
   1   3 -13-69.3249 85.1269   1
   1   3 -13 103.116 103.373  11
  -1   3 -13-1.52473 40.6577  10
  -1  -3  13 76.5390 106.828  17
   1  -3  13 2.87024 54.6861  16
   1   3 -13 11.9752 50.2001  20
  -1   3 -13-82.4004 80.6851  19
   1  -3  13-125.416 190.407   6
   3  -1  13 118.655 187.640  16
  -3  -1  13 57.1264 111.425   2
  -1  -3  13-34.2662 26.1642   5
   3   1 -13-11.7585 28.3642  11
   3   1 -13-63.3733 86.5528   1
  -1  -3  13-74.3645 71.3956  16
  -1   3 -13-220.068 306.480  20
   1  -3  13-22.0220 65.7585  17
  -3  -1  14 359.952 184.205  17
  -1   3 -14 150.908 97.1344  18
   3  -1  14 481.412 195.284   2
  -1  -3  14 305.103 195.448   2
   3  -1  14 95.5661 156.960  16
   1  -3  14 164.906 98.3662  16
  -1  -3  14 414.544 458.661   6
   1   3 -14 207.944 202.583   9
   3   1 -14-109.306 221.292  18
  -1   3 -14 226.161 284.393  10
  -1  -3  14 251.948 98.3881   8
   3   1 -14 30.1274 44.7452  11
   1   3 -14 75.5446 70.3933   1
   1   3 -14-22.1702 70.0953  20
   1  -3  14 369.205 145.787   8
  -3  -1  14 402.969 382.977  16
   3   1 -14 109.126 127.300   1
  -1   3 -14 8.13028 29.6657  19
   1   3 -14 221.706 127.211  11
   3  -1  14-61.3288 173.007   8
  -1  -3  14 319.193 114.679   5
  -1   3 -14 64.4671 14.0898   1
   1  -3  14 432.002 345.320   6
   1   3 -14 184.791 121.997  18
  -1   3 -14 193.970 270.196  20
  -1  -3  14 281.526 121.903  17
  -1   3 -14 64.6353 84.3424  11
  -1  -3  14 368.964 237.416  16
  -3  -1  14 283.303 207.398   2
  -1   3 -14 130.533 134.206   9
   1  -3  14 305.923 172.402   2
   3  -1  14-339.180 535.054   6
   1   3 -14-36.6208 88.4628  10
   1  -3  14 523.813 193.426  17
   1   3 -15 87.0431 59.2338   1
   3  -1  15-672.179 538.055   6
   1  -3  15 433.711 185.778  17
   1  -3  15 286.277 122.882   8
   3   1 -15 31.8743 95.1613   1
  -1   3 -15 96.1137 56.0070   1
   3   1 -15 37.7502 55.6802  11
  -1  -3  15 193.595 141.234   2
  -1   3 -15 106.858 91.2359  19
   3   1 -15-326.102 282.676  18
   1   3 -15 220.766 213.573   9
  -1  -3  15-1.85920 21.2397   6
   1   3 -15 153.546 73.0822  11
  -3  -1  15 299.887 304.028  16
  -1  -3  15 309.588 243.796  16
   1  -3  15 297.694 145.627   2
  -1  -3  15 300.882 169.152  17
  -1  -3  15 280.460 97.8775   5
  -3  -1  15 341.115 226.400   2
   3  -1  15 169.357 177.031   8
  -1   3 -15 68.3447 143.250  10
  -3  -1  15 236.772 166.436  17
   1   3 -15-95.1682 254.112  20
  -1   3 -15 174.478 117.919   9
   3  -1  15 350.722 193.096   2
   3  -1  15 301.834 318.615  16
   1   3 -15 110.723 202.042  10
   1  -3  15 462.657 266.129  16
   1   3 -15 141.601 103.233  18
  -1   3 -15 208.075 112.119  11
  -1  -3  15 286.320 121.260   8
  -1   3 -15 88.4798 43.9888  18
   1  -3  15 173.263 212.963   6
  -1   3 -15 119.034 253.716  20
   1  -3  16-34.1985 62.3815  17
  -1  -3  16-1.39649 83.0383  16
  -1   3 -16 155.007 155.107  11
   1   3 -16 18.5103 43.4416  19
   1   3 -16 257.431 365.067  20
   1   3 -16-10.2904 24.2740  18
  -3  -1  16 86.7385 151.939   2
   1  -3  16 219.897 217.692  16
  -1   3 -16 468.147 398.495  20
   3   1 -16-249.617 265.364  11
  -1   3 -16 20.0456 116.387   9
   1   3 -16 231.128 252.163  10
   3  -1  16 3.81407 80.6672  16
   1  -3  16 72.4337 121.749   2
  -1   3 -16-35.2783 48.2794  19
  -3  -1  16-201.763 268.576  17
   1   3 -16-71.6850 112.822  11
  -1  -3  16 18.3800 36.3849   2
  -1   3 -16-164.184 201.238  18
  -1  -3  16-185.672 389.315   6
   3  -1  16-14.9140 121.091   2
   1   3 -16 61.0962 151.374   9
   1  -3  16-51.5650 45.0093   8
   3  -1  16-34.2136 51.9314   8
  -1  -3  16-34.8928 51.0481   5
  -3  -1  16 169.050 332.712  16
  -1   3 -16-328.374 285.053  10
   1   3 -16 95.7508 100.522   1
  -1  -3  16 54.9330 75.3496   8
   3   1 -16 147.417 154.083   1
   1  -3  16 335.560 360.533   6
  -1  -3  16-195.995 135.699  17
  -1   3 -16 40.0332 53.6374   1
  -1  -3  17 203.203 211.177  16
  -1  -3  17 296.883 116.027   5
   1   3 -17-137.188 376.116  20
   3  -1  17 418.251 239.866   2
   1   3 -17-8.61627 19.4246  19
  -3  -1  17 162.899 185.356   2
   3  -1  17-110.106 192.307   8
   1   3 -17 111.442 228.705   9
  -1  -3  17 249.969 196.687   2
  -1  -3  17 159.206 130.982  17
  -1  -3  17 207.020 119.149   8
   1  -3  17 488.541 361.575  16
   3  -1  17 397.368 404.459  16
   1   3 -17 76.5885 91.2033   1
   1  -3  17 421.617 254.199   2
  -1   3 -17 200.104 212.342  11
   1   3 -17 92.0346 110.704  18
   1  -3  17 344.891 393.638   6
  -3  -1  17 166.899 221.027  16
   1   3 -17 133.261 213.729  10
  -1   3 -17-131.209 226.094  20
  -1   3 -17 127.408 300.738  10
  -1   3 -17 78.1848 81.4208   1
   1   3 -17 275.642 205.682  11
   1  -3  17 272.381 156.283   8
  -1  -3  17-577.269 773.485   6
  -1   3 -17 350.909 289.102   9
  -1   3 -17-66.1255 71.1893  19
   1  -3  17 159.734 29.9660  17
   1  -3  18 984.556 392.306   2
   3  -1  18 220.189 182.213   8
  -1  -3  18 748.869 401.296  16
   1   3 -18 145.982 234.988  10
   1  -3  18 950.284 473.157  16
   1   3 -18 25.1199 211.316   9
   1  -3  18 315.455 156.511   6
   1  -3  18 602.768 224.128   8
   1  -3  18 472.145 125.384  17
  -1  -3  18 890.161 186.819   5
  -1  -3  18 842.333 370.874   2
  -3  -1  18 820.120 377.043   2
  -1   3 -18 145.343 120.508  19
  -3  -1  18 1032.68 655.696  16
   1   3 -18 241.963 155.618   1
   1   3 -18 143.336 157.620  11
  -1  -3  18 744.104 299.379  17
   1   3 -18-1057.26 794.223  20
  -1   3 -18 232.323 163.546  11
   3  -1  18 614.950 435.324  16
   3  -1  18 1284.23 502.307   2
  -1   3 -18 229.771 266.279   9
  -1   3 -18-724.922 465.871  20
  -1   3 -18 386.685 321.622  10
   1   3 -18 108.606 123.886  18
  -1  -3  18 626.366 207.989   8
   1   3 -19 303.224 233.973  11
   1   3 -19 15.0021 183.795   9
  -1   3 -19-45.8765 117.678  10
  -1  -3  19 227.931 179.969   8
  -1  -3  19 185.469 132.940  17
   1   3 -19-189.377 426.164  10
   1  -3  19 313.902 293.263   2
  -1  -3  19 197.390 113.361   5
   1   3 -19 131.062 111.165   1
  -1  -3  19 315.674 220.338   2
   1  -3  19-1000.24 805.618   6
   1   3 -19-293.294 281.207  18
  -1   3 -19-39.8455 42.5379  11
  -1   3 -19 163.307 186.287   9
   1  -3  19 190.557 208.671   8
  -1  -3  19 253.693 224.125  16
   3  -1  19 8.09212 226.578  16
  -3  -1  19 743.279 728.004  16
  -3  -1  19 126.514 196.068   2
  -1   3 -19-465.674 637.747  20
   1  -3  19 263.443 359.715  16
  -1  -3  20 1042.46 441.814   2
   1   3 -20 194.343 227.039   9
  -1   3 -20-162.903 423.021   9
  -1   3 -20-464.324 350.695  11
  -1  -3  20 879.274 507.247  16
   3  -1  20 1134.18 631.763  16
   1   3 -20 69.0391 93.2542  11
  -1   3 -20-253.637 366.031  10
   1  -3  20 632.171 408.459  16
  -1  -3  20 748.985 193.191  17
   1  -3  20 1268.56 473.141   2
   1  -3  20 861.313 280.860   8
   1   3 -20 249.846 263.815  10
  -1  -3  21-8.14944 92.5293   2
   1  -3  21 6.31097 61.3810   8
   1  -3  21 54.0810 120.542   2
   1   3 -21-37.5761 138.015  11
   3  -2   0-15.6117 78.0399  14
  -3   2   0 14.4864 21.8386  19
   3  -2   0-6.60763 69.2196   8
  -3   2  -1 40.0233 42.2030  19
   3  -2   1 37.8643 37.2646   8
   3  -2   1 10.1900 53.6337   6
   3   2  -1-36.3174 96.0137   1
  -3   2  -1 31.8445 36.6613  12
   3  -2   1 36.0381 47.1028  14
   3   2  -2 654.690 324.698   1
   3  -2   2 732.273 163.377  14
  -3   2  -2 680.153 146.251  19
   3  -2   2 629.459 138.453   8
   3  -2   2 708.276 172.236   6
   3  -2   2 742.123 158.699   1
  -3   2  -2 696.402 254.773   3
  -3  -2   2 308.227 203.752  17
   3   2  -2 876.679 313.973  13
  -3   2  -2 692.224 160.991  12
   3   2  -2 806.396 265.606  18
  -3  -2   2 307.689 154.891   2
   3  -2   3 247.421 88.8551  14
  -3  -2   3 160.353 103.126   2
   3  -2   3 190.810 71.3404   8
  -3  -2   3 133.283 70.6674  19
  -3   2  -3 226.568 118.333   3
   3   2  -3 261.613 149.357   1
  -3  -2   3 60.0085 82.9770   5
   3   2  -3 182.504 106.600  13
  -3   2  -3 214.818 84.6508  19
   3   2  -3 186.100 122.850   8
   3  -2   3 240.553 110.628  16
   2   3  -3 300.263 224.935  13
  -2   3  -3 261.396 117.789  12
  -3   2  -3 266.867 94.6510  12
   3  -2   3 230.894 99.8505   6
   2  -3   3 103.804 69.6370   8
  -3   2  -3 217.996 81.8751   4
  -3  -2   3 149.698 117.641  17
   3   2  -3 321.336 144.582  18
   3  -2   3 259.119 80.3732   1
  -3   2  -3 224.947 74.5624   5
  -2   3  -3 259.680 167.193   3
   2  -3   3 88.7765 56.5388   6
  -2   3  -4-85.2617 238.590  13
  -2   3  -4 86.1259 70.6020   3
  -3   2  -4 81.0327 48.8529   4
  -2  -3   4 12.5610 87.6332   2
  -3   2  -4 59.2569 30.7786   5
   2   3  -4 5.58795 95.9637  18
   3  -2   4 73.3374 46.4263  14
  -2   3  -4 71.0874 57.2872  12
   3   2  -4 60.6551 37.0203   8
   2  -3   4 42.9771 30.7672   8
   3  -2   4 98.7289 77.7822  16
  -3  -2   4 63.7653 51.8514  16
   3   2  -4 82.6041 84.4244   1
  -2  -3   4 47.5303 127.329  17
  -3   2  -4 26.5883 45.2672  13
  -2   3  -4 30.9366 65.0419  19
   2   3  -4 85.9236 78.6559  13
  -3   2  -4 74.0675 43.8908  12
  -3  -2   4 50.7949 40.4147  17
  -3   2  -4 67.2919 46.1329  19
   3  -2   4 84.1298 41.2704   1
  -3  -2   4 25.2370 40.5105   5
   3   2  -4 72.3167 47.6456  18
   3   2  -4 81.5848 67.8633  13
   3   2  -4 68.8450 42.6740   3
   3  -2   4 64.9106 48.2073   6
   2  -3   4 89.3103 70.2122   6
   3  -2   4 55.5562 43.8988   8
  -3  -2   4 44.9608 56.7751   2
  -3   2  -4 77.3626 68.7919   3
  -3  -2   4 65.7763 58.1246  19
   2   3  -4 80.5486 63.6918   3
  -2  -3   5 539.144 230.817  17
  -3  -2   5 613.363 179.376   2
   3  -2   5 730.391 154.794   8
  -3  -2   5 762.632 140.743  19
   2  -3   5 854.722 177.447  14
  -2   3  -5 813.362 214.295   3
   2   3  -5 858.891 253.008  13
  -3   2  -5 887.146 171.617  19
  -3   2  -5 799.711 190.846  12
  -3  -2   5 732.399 217.349  17
  -3   2  -5 709.714 140.794   5
  -2  -3   5 590.336 187.755  16
   2  -3   5 872.807 204.663   6
   2   3  -5 848.838 202.311   3
  -3   2  -5 710.119 164.153   4
   2  -3   5 824.510 260.724  16
   2   3  -5 1016.12 283.809  18
   3   2  -5 776.238 221.753   1
   3  -2   5 1025.86 233.968  16
   3  -2   5 813.641 158.997  14
  -3   2  -5 747.708 211.793  13
  -2  -3   5 585.351 233.087   2
   3   2  -5 44.9832 136.428  14
   2   3  -5 109.861 57.2093   1
  -3  -2   5 717.772 154.624  16
   3  -2   5 788.607 119.374   1
   2  -3   5 721.285 152.126   8
  -2   3  -5 883.643 186.437  12
   3   2  -5 729.738 137.684   3
   3   2  -5 801.424 198.409  18
  -3  -2   5 642.157 190.034   4
  -2  -3   5 711.269 154.315   6
  -2   3  -5 836.033 180.042  19
  -3   2  -5 679.632 193.268   3
  -2   3  -5 783.959 322.432  13
   3  -2   5 958.366 208.626   6
  -3  -2   5 667.782 198.676   5
   2   3  -6 251.639 207.804   1
   2   3  -6 429.435 104.983  12
   2   3  -6 473.116 169.216  18
   2  -3   6 368.973 162.841  16
  -3   2  -6 358.888 121.266   5
  -2   3  -6 398.022 124.917  12
  -2   3  -6 465.999 120.272  19
   3   2  -6 337.669 64.7817  12
   3  -2   6 510.514 185.668   2
  -2  -3   6 362.675 168.654  17
   3   2  -6 510.161 185.494  20
   2  -3   6 369.301 169.529  17
   3   2  -6 439.298 156.856  11
   3   2  -6 366.008 150.597   1
   3   2  -6 109.797 107.627  14
   3  -2   6 465.917 169.603  16
   2  -3   6 412.384 110.463  14
   3  -2   6 451.008 158.258   6
  -3   2  -6 334.299 112.764  19
  -3  -2   6 379.953 151.398  17
  -2   3  -6 410.221 151.519   3
  -3   2  -6 353.079 131.243   4
   2  -3   6 395.949 135.807   6
   2   3  -6 344.890 149.067  13
  -3  -2   6 356.125 116.293   4
   3  -2   6 492.333 134.802   1
   3  -2   6 383.754 115.844  14
  -2  -3   6 368.331 171.503   2
   3   2  -6 348.642 126.497  18
  -2   3  -6 426.781 196.966  13
  -3  -2   6 368.546 145.201   5
  -3  -2   6 324.941 130.367   2
   2   3  -6 414.253 137.302   3
   2  -3   6 331.705 97.0637   8
  -2   3  -6 360.019 98.7094   4
  -2  -3   6 409.809 116.439   6
  -3  -2   6 344.261 115.352  16
  -2  -3   6 353.247 144.573  16
   3  -2   6 372.595 117.635   8
  -3  -2   6 407.821 83.1566  19
  -3   2  -6 394.910 77.7563  11
  -2   3  -6 417.747 135.830  18
   2   3  -7 3646.23 294.340  12
   3   2  -7 3508.01 415.124  18
   3   2  -7 3891.47 488.135  11
  -3   2  -7 3675.74 475.736  20
   3   2  -7 4428.83 661.570  10
  -2  -3   7 3271.33 487.677   2
   3  -2   7 4061.52 419.404   8
   2  -3   7 3375.65 315.976   8
  -2   3  -7 3361.36 212.253   5
   2  -3   7 3732.79 351.250  17
   2  -3   7 2752.19 579.113   2
   3   2  -7 4392.72 669.319  20
   3  -2   7 3981.08 421.783  14
   2  -3   7 4288.14 491.176   6
  -2   3  -7 3626.44 406.081  12
  -2  -3   7 3403.49 425.227  16
   3   2  -7 3291.69 427.957   1
   2  -3   7 3806.68 322.722  14
  -3  -2   7 3458.06 400.597  16
   3  -2   7 4426.89 545.620   6
  -3   2  -7 3494.10 303.918  11
  -3   2  -7 2904.69 365.136  19
   3  -2   7 4504.54 561.041  16
  -3  -2   7 3785.52 279.179  19
  -2   3  -7 3719.41 332.741  19
  -2   3  -7 3533.48 463.461   3
  -2   3  -7 3010.20 275.168  18
   2   3  -7 3536.74 473.512  13
  -3   2  -7 3022.31 471.041   4
  -3  -2   7 3339.80 434.247   2
  -3  -2   7 3772.35 415.687   5
  -3  -2   7 3756.53 469.613  17
  -2   3  -7 3824.43 346.384   4
   2   3  -7 3961.16 465.923  18
   3   2  -7 1463.83 341.493  14
  -3  -2   7 3587.10 307.354   4
   2  -3   7 4186.66 541.973  16
  -2  -3   7 3647.19 516.077  17
  -2   3  -7 3283.30 516.563  13
  -2  -3   7 3671.23 386.979   6
  -3   2  -7 2430.14 445.129   5
   2   3  -7 3867.00 410.513   3
   3  -2   7 4833.91 441.782   2
   2   3  -8 48.1340 67.5129   3
   2   3  -8 20.4102 74.5284   1
   2  -3   8-2.03302 7.63857  16
  -3  -2   8 2.32585 20.8695   2
  -3   2  -8 130.712 183.377   7
  -3   2  -8 23.4423 51.7897  20
   3   2  -8 8.99741 12.2382  11
  -2  -3   8 8.78476 35.5351   2
  -3   2  -8 46.1515 74.8433  10
  -2   3  -8 44.1196 124.661  13
   3  -2   8-12.2563 45.1258  16
  -2   3  -8 12.1125 78.8515  12
  -3  -2   8 16.9714 13.8752   4
   3   2  -8-19.7348 150.456  10
  -3   2  -8 12.7711 109.804   4
  -2   3  -8 12.4978 12.5259  19
  -3   2  -8-23.4902 31.6260  11
   3  -2   8-0.90359 14.7624   2
   2  -3   8 21.5826 126.289   2
   2  -3   8-7.20143 31.8265  14
  -3   2  -8 102.326 109.401  15
  -2  -3   8-28.7336 72.5918   6
  -2  -3   8-3.52353 42.1005  17
  -3  -2   8 42.9285 53.4810  16
   2  -3   8 6.77827 2.48414   8
  -2   3  -8 12.7579 36.6396   4
  -3  -2   8 26.4562 55.0743   5
   2   3  -8 22.9655 31.1834  12
  -2  -3   8 52.5815 76.2799  16
  -2  -3   8-52.6412 198.526   5
  -3   2  -8-21.0752 23.7120  19
  -2   3  -8 14.2286 27.2109  18
   3  -2   8 30.9574 90.4521   6
   2   3  -8-31.5389 47.9269  18
   3   2  -8 24.3038 28.9367  14
  -2   3  -8 52.9723 82.6348   3
   2  -3   8 10.0260 31.5030  17
   3   2  -8-17.2684 35.7028   1
   3   2  -8 4.54114 32.5406  18
   3  -2   8 6.92168 45.3249  14
   2  -3   8 25.6397 56.5588   6
   3   2  -8 104.745 180.046  20
  -3  -2   8-7.94672 26.2287  17
   3  -2   8-33.8809 51.7172   8
   2   3  -9 878.451 318.825   7
  -2  -3   9 545.792 176.571  16
   2   3  -9 772.828 274.737  15
   3   2  -9 709.155 315.683  10
   3  -2   9 669.410 194.835   8
  -2   3  -9 506.160 109.933  18
   2   3  -9 593.546 203.882  11
  -2   3  -9 655.010 221.558   4
   3  -2   9 833.227 180.259   2
   3   2  -9 601.097 212.210  11
  -3   2  -9 564.207 197.904   9
   3   2  -9 531.502 171.929   1
  -3   2  -9 398.182 155.177  19
  -2  -3   9 589.221 205.661  17
   2  -3   9 669.099 134.606  17
  -3   2  -9 404.493 192.518  15
   3  -2   9 706.855 270.076   6
   2  -3   9 582.130 143.579   8
  -3  -2   9 619.682 199.516  17
   2   3  -9 642.193 149.509  12
   2  -3   9 838.834 243.572   2
   3   2  -9 366.763 143.899  14
   3   2  -9 651.204 379.737  20
  -3   2  -9 459.883 200.570  20
  -2  -3   9 631.306 220.529   2
   3   2  -9 507.008 171.206  18
  -3  -2   9 633.731 106.095   4
  -3  -2   9 644.214 211.706  16
  -3  -2   9 548.792 195.296   2
  -3   2  -9 529.341 213.842  10
   2   3  -9 573.911 175.812  18
   3  -2   9 722.022 246.400  14
  -3   2  -9 438.086 152.953  11
  -3  -2   9 619.447 160.841   5
  -2   3  -9 593.277 139.465  11
   2  -3   9 717.828 237.692   6
   2  -3   9 621.577 142.056  14
  -3   2  -9 563.075 264.064   7
  -2  -3   9 641.161 217.090   5
   3   2  -9 658.694 305.688   9
  -2  -3   9 419.565 196.174   6
   3  -2   9 770.780 270.282  16
  -2   3  -9 648.439 140.628  19
   2   3  -9 507.780 212.502   1
   2  -3   9 713.702 243.145  16
  -2   3 -10 212.055 159.678  20
  -3  -2  10 465.999 190.097  17
   2   3 -10 401.466 150.875  18
   3  -2  10 428.730 194.816   8
  -2   3 -10 390.948 119.418  11
   2   3 -10 31.8792 204.236  15
   3   2 -10 340.314 254.997  10
   2  -3  10 570.203 195.475   2
   3   2 -10 224.010 193.455  20
  -2  -3  10 505.663 178.454  17
   3   2 -10 335.712 145.968   1
  -3   2 -10 209.124 143.210  19
   3   2 -10 312.493 222.146   9
   2   3 -10 241.912 80.4640   7
  -2   3 -10 367.934 101.292  18
  -2  -3  10 402.810 157.796   5
  -3  -2  10 347.697 169.911  16
   2  -3  10 465.986 130.702  17
   3  -2  10 481.934 155.782   2
  -3   2 -10 206.808 163.350  15
  -3   2 -10 302.652 181.374  20
   2  -3  10 498.395 224.735   6
   2  -3  10 516.742 151.233  14
   3  -2  10 352.432 204.839  14
   2   3 -10 304.571 156.122   1
   2   3 -10 454.159 245.083  20
  -3  -2  10 353.871 168.688   2
   2  -3  10 430.841 205.866  16
  -2   3 -10 317.475 185.374  15
  -2  -3  10 415.223 174.213  16
   3   2 -10 234.118 104.564  14
  -2  -3  10 216.624 179.146   6
   3  -2  10 460.900 212.697  16
  -3  -2  10 399.634 82.6857   4
  -3   2 -10 262.212 182.121  10
   3   2 -10 315.320 164.273  11
   2   3 -10 320.991 141.646  11
   3   2 -10 337.407 155.683  18
  -3   2 -10 180.776 114.076  11
   2  -3  10 363.612 116.916   8
  -3   2 -10 191.121 152.610   7
  -2   3 -10 399.364 254.599   7
   3  -2  10 486.578 247.919   6
  -2  -3  10 299.575 143.487   2
  -3  -2  10 450.039 139.826   5
  -3   2 -10 268.384 131.033   9
  -2   3 -10 374.276 104.024  19
  -2  -3  11 49.8876 91.3669  17
  -3   2 -11 56.3861 156.046   9
  -3  -2  11 89.8358 119.529   2
  -2  -3  11 58.9403 105.986  16
  -2  -3  11 57.9705 102.431   6
   2  -3  11 85.0841 54.2622  17
   2  -3  11 59.8777 107.249  14
   3   2 -11 44.0882 61.2983   1
  -2   3 -11 401.447 292.186  20
   3  -2  11 181.417 206.519  14
  -2   3 -11 160.784 220.135  10
   2   3 -11 221.183 200.385  10
   3  -2  11 85.3423 73.0382   2
   2  -3  11 169.613 223.702  16
   2   3 -11 16.4550 71.2730   1
  -2   3 -11 238.312 325.062   7
  -3   2 -11-14.9018 45.3766  19
  -3  -2  11 46.3573 60.1066  17
  -2   3 -11 245.474 272.310  15
  -3   2 -11-65.4644 183.967  11
  -2  -3  11 72.8309 80.6151   2
   3  -2  11 33.1068 110.883   6
  -3   2 -11-102.314 179.857  15
  -3  -2  11 104.966 86.8603   5
  -3  -2  11-46.0680 129.043  16
   3   2 -11 52.6513 66.2330  11
   3  -2  11 13.6186 63.2435   8
   3   2 -11 37.4877 45.0107  14
   2  -3  11 126.495 98.1722   8
  -3   2 -11-136.672 241.826   7
  -2   3 -11 51.2771 68.3980  11
  -2  -3  11 70.5197 70.6514   5
   2  -3  11 112.274 142.064   2
   3   2 -11 44.9077 135.477  20
  -2   3 -11 31.0885 56.5451  19
   3   2 -11-7.81404 20.1604  10
   3  -2  11 27.2270 77.6299  16
   2   3 -11 24.9311 80.8025  11
  -3   2 -11 153.517 142.155  20
  -2   3 -11 34.4589 64.2689  18
   3   2 -11 164.385 238.906   9
   2  -3  11 72.2297 187.574   6
   3   2 -11 45.9306 50.3227  18
   2   3 -11 19.8621 109.226  20
  -3   2 -11-74.7484 122.122  10
   2   3 -11 72.8001 68.2667  18
   2   3 -12 43.1227 60.1209  18
   3   2 -12-13.4310 141.601   9
  -3  -2  12 92.3480 108.749   2
   2   3 -12-48.3566 84.9248  20
  -3   2 -12-141.817 333.841   7
   3   2 -12-116.461 255.049  10
  -2   3 -12 86.6883 48.7747  19
  -2  -3  12-8.98931 37.7619  16
  -2   3 -12 73.7547 72.3609  11
  -2  -3  12 26.9882 67.8164   2
   2  -3  12 66.8038 40.5406   2
  -2   3 -12 200.811 208.312  20
  -3  -2  12-35.8035 104.676  16
  -2  -3  12 35.6029 240.557   6
   3   2 -12-456.634 574.536  20
  -3   2 -12 133.885 139.824  10
   2   3 -12 155.000 155.065   9
  -2   3 -12 291.394 231.875   9
   3  -2  12 113.196 83.0988   2
   2  -3  12 98.7968 63.8765   8
   3   2 -12-19.9032 25.7063  14
   2   3 -12 57.2097 86.4251   1
  -2   3 -12 239.629 176.411  10
   2  -3  12 65.9162 100.341  16
   3  -2  12 2.13785 91.9420   6
   3   2 -12 76.2989 110.566  11
  -3   2 -12 226.466 190.065  20
   2  -3  12 64.7072 53.5409  17
  -3   2 -12 8.62381 52.0826   9
  -2  -3  12 26.4641 14.3109  17
  -3  -2  12 73.1741 85.4203  17
  -2   3 -12 228.272 218.116  15
  -3   2 -12-143.457 265.480  15
   2  -3  12-33.2169 126.851  14
   3   2 -12 60.5942 81.8798   1
  -3  -2  12 89.8248 86.8950   5
   3  -2  12 35.8930 67.0384   8
   3  -2  12-82.6758 175.303  16
  -2   3 -12 70.9345 191.357   7
   2   3 -12 58.6973 103.909  11
   3   2 -12 42.5386 71.7883  18
   2  -3  12 68.7892 40.6337   6
   2   3 -12 21.2915 40.5551  10
  -2   3 -12 102.073 71.8428  18
  -2  -3  12 123.074 86.4531   5
  -3   2 -12 53.4945 95.7342  19
  -3   2 -13-6.82329 55.8097  19
  -2  -3  13 90.3900 262.456   6
   2  -3  13 118.372 249.386   8
  -3  -2  13 116.300 121.982   2
  -2   3 -13 539.946 546.052  20
   2  -3  13 262.934 316.717   2
   3  -2  13 169.435 233.072  16
  -2  -3  13 227.641 149.090  17
  -3  -2  13 110.324 89.8334   5
  -3   2 -13-34.4845 98.2004  10
  -3   2 -13 74.6930 208.746   9
   3   2 -13 740.552 568.941  10
  -2  -3  13 14.6488 144.067   2
  -2   3 -13 284.886 269.060  11
   3   2 -13 74.4650 83.8873   1
   3   2 -13 238.293 191.859  11
   3  -2  13 52.5782 85.9137   2
   2   3 -13 215.468 144.819  18
   2   3 -13 173.754 186.882  11
   2   3 -13-87.3827 246.158  20
   2   3 -13 344.052 349.155  10
  -2   3 -13-91.6228 549.277   7
   2   3 -13 95.1845 222.567   9
   3   2 -13-346.541 441.983  20
   3   2 -13 83.2584 130.746  18
   2   3 -13 154.064 133.681   1
  -2  -3  13 145.694 174.465  16
   3   2 -13 79.4939 57.5760  14
  -2   3 -13 310.040 268.776  18
   3  -2  13 227.426 320.229   6
   3  -2  13 31.4494 142.584   8
  -2   3 -13-635.696 280.948  15
   3   2 -13 426.032 376.460   9
  -3  -2  13 33.5221 23.2142  17
  -3   2 -13 175.844 259.290  20
  -3  -2  13 38.7992 40.5416  16
   2  -3  13 568.292 429.551  16
  -2  -3  13 48.2272 63.6794   5
  -2   3 -13 206.044 201.783  19
   2  -3  13 1121.42 690.147   6
  -2  -3  14-9.52089 14.8998   8
  -3   2 -14-14.7657 79.6357  10
   2   3 -14 1.81453 43.3607   1
  -2   3 -14 283.555 273.544  10
   3  -2  14-10.8724 149.743   6
   2  -3  14 6.53822 8.41699   8
   3  -2  14-55.8916 36.1711   8
  -2   3 -14 173.898 205.970   9
   2  -3  14 3.83205 63.4400   2
  -3   2 -14-45.3773 216.380   9
   3  -2  14-88.5721 127.766  16
   3   2 -14-150.197 306.813  10
  -2   3 -14 28.3717 38.5508  11
   3   2 -14-65.5935 89.1735  18
   2  -3  14-65.8390 135.578  16
  -2   3 -14 510.881 396.167  20
   3  -2  14-70.5692 96.7448   2
   3   2 -14 133.048 177.437   9
  -2  -3  14 9.41269 62.0386  17
  -2   3 -14-186.429 201.204  18
  -2   3 -14-287.086 341.321  15
   3   2 -14 58.2804 79.2900   1
  -2  -3  14 33.6149 39.8946  16
   2   3 -14-54.7542 102.861  18
  -3   2 -14-20.3549 67.8734  19
  -3  -2  14 139.896 129.261  17
  -3  -2  14 25.5188 48.8356   5
   3   2 -14-573.107 938.615  20
  -2   3 -14 71.2562 78.0198  19
   2   3 -14 34.8028 116.729  11
  -3  -2  14-0.29405 75.1339   2
   2   3 -14 221.424 348.371  20
   2   3 -14 4.98345 127.346   9
   2  -3  14 40.3239 182.033   6
  -3   2 -14-68.3061 181.982  20
   2   3 -14 212.930 274.994  10
   2  -3  14 129.709 104.927  17
  -2   3 -14-97.2569 262.886   7
  -2  -3  14 57.3381 66.1941   2
   3   2 -14 47.5220 93.5925  11
  -2  -3  14-245.987 406.968   6
  -2  -3  14 104.985 86.4633   5
  -3  -2  14 52.7071 113.612  16
   3   2 -14 14.4344 27.9292  14
  -3  -2  15 11.2955 14.8797   5
   2   3 -15-15.6590 117.625  10
   3   2 -15-90.0891 199.168   9
   2   3 -15 113.878 191.395   9
  -3   2 -15-57.4104 119.868  10
  -2  -3  15-24.7920 30.2624  16
   3   2 -15-19.7158 20.9811  18
   3  -2  15-116.387 271.941   6
  -2  -3  15 32.1679 34.8936   8
  -2   3 -15-4.24151 57.3673  11
   2   3 -15-31.8082 35.6883  18
   3   2 -15-36.4375 59.9516  11
  -2  -3  15 10.7159 46.0752  17
  -2   3 -15-33.4997 76.6659  19
   3  -2  15-8.14240 93.3495  16
  -2  -3  15 38.7178 45.5268   5
  -3  -2  15-23.7276 48.7004  16
   3   2 -15 256.940 339.779  10
  -2   3 -15-49.3779 194.502  20
   3  -2  15-2.05675 56.5739   8
   2  -3  15 26.4196 110.485  16
  -2  -3  15-58.5359 88.4965   2
   2   3 -15 39.7047 66.8163  11
  -3   2 -15 104.012 194.982  19
  -3   2 -15-208.642 310.868   9
   3  -2  15-13.2969 31.4650   2
  -3   2 -15-443.739 396.441  20
   2  -3  15-46.2637 67.7290   8
   2  -3  15-69.7351 158.319  17
   2   3 -15 367.423 398.808  20
   2  -3  15-64.3012 107.351   6
  -2   3 -15 27.3692 142.352  10
  -2   3 -15 59.8973 77.6330   9
   2   3 -15-10.5631 31.1770   1
   3   2 -15 0.06313 6.52612  14
  -3  -2  15 69.2462 127.337   2
   3   2 -15 57.3920 89.2390   1
  -3  -2  15 33.4624 65.8166  17
   2  -3  15-42.6217 70.8636   2
   3   2 -16 225.704 122.932   1
   2   3 -16 140.984 101.949   1
  -2   3 -16 152.589 158.264   9
   2   3 -16 108.192 121.743  11
  -2  -3  16 433.642 129.983   5
   3   2 -16 208.800 271.108   9
   3   2 -16 157.998 120.052  18
  -3  -2  16 496.607 254.313  17
   3   2 -16-55.7512 298.002  10
   2  -3  16 312.217 278.782   6
   3  -2  16 427.635 256.379   8
  -3  -2  16 496.829 257.339   2
  -2   3 -16 103.272 128.338  11
   2  -3  16 637.418 268.537   2
   2   3 -16 200.633 108.108  18
  -3   2 -16 54.1654 107.208  10
  -2   3 -16 130.349 196.416  10
   3  -2  16 512.566 388.134   6
  -3   2 -16-32.8445 42.7936  19
  -3  -2  16 581.424 411.718  16
  -2  -3  16 400.048 249.009  16
   2  -3  16 427.590 177.831   8
   2   3 -16-262.155 290.203  20
   3  -2  16 723.361 261.324   2
  -2   3 -16 414.871 308.901  20
  -2  -3  16 558.373 268.088   2
   2  -3  16 718.420 403.427  16
   2  -3  16 312.011 162.166  17
  -2  -3  16 505.212 205.910  17
  -2  -3  16 482.217 161.488   8
   2   3 -16 391.356 295.591   9
   3  -2  16 679.049 434.765  16
  -2   3 -16 100.331 97.7682  19
  -3  -2  16 514.382 177.604   5
   3   2 -16 46.0915 33.4332  14
  -3   2 -16-1116.22 542.746  20
   2   3 -16-16.0321 169.123  10
   3   2 -16 158.911 173.865  11
  -2  -3  17 600.519 200.569   8
   2  -3  17 620.405 366.520  16
  -2  -3  17 733.825 305.975   2
   3   2 -17 38.5522 166.015  18
   3  -2  17 702.552 401.887  16
  -2   3 -17 363.781 282.528  10
  -2  -3  17 720.777 364.783  16
  -3  -2  17 896.407 230.665   5
   2   3 -17-82.4057 502.087  20
   3   2 -17 157.391 125.569   1
  -2  -3  17 853.651 314.236  17
  -2   3 -17 207.170 131.311  11
  -2   3 -17 226.658 215.745   9
  -3  -2  17 792.690 359.485   2
   2  -3  17 1091.80 357.428   2
   2   3 -17 220.735 149.099   1
  -2   3 -17-180.406 368.067  20
   2   3 -17 390.376 214.911  18
  -3  -2  17 925.485 339.144  17
   3   2 -17-266.162 485.783   9
  -2   3 -17 155.127 114.612  19
   2  -3  17 628.740 234.238   8
  -3  -2  17 1057.84 458.394  16
   2   3 -17 457.850 262.602  11
   2   3 -17-158.259 320.074  10
   3  -2  17 1163.85 364.920   2
  -2  -3  17 894.722 197.844   5
   3  -2  17 334.957 232.675   6
   2   3 -17 321.112 270.325   9
   2  -3  17 477.286 360.609   6
   3  -2  17 744.991 343.428   8
   3   2 -17 279.198 224.832  11
   2   3 -18 161.922 252.564   9
   3   2 -18-325.614 268.666  18
   2   3 -18 196.380 215.939  11
   3  -2  18 119.088 176.071   8
   2  -3  18 375.466 376.668   6
   2  -3  18 22.5573 203.961  16
  -2   3 -18-281.300 346.284  20
  -3   2 -18 83.1011 176.091  19
   2   3 -18 48.8949 106.027   1
   2  -3  18 123.636 162.971   2
  -2  -3  18 154.310 103.495   5
   2   3 -18-14.1848 86.8997  18
  -3  -2  18 18.7084 216.423  16
   2   3 -18 244.725 341.195  10
   2  -3  18 201.162 176.943   8
   3  -2  18 205.737 242.171  16
   3   2 -18-58.3260 52.2166   1
  -2   3 -18-222.154 203.797  11
   3  -2  18-578.726 597.542   6
  -2  -3  18 92.0446 148.182  17
  -2   3 -18 62.5308 163.215   9
   3  -2  18 242.607 255.027   2
  -2   3 -18 57.9816 251.704  10
  -3  -2  18 43.1016 22.1108   5
  -2   3 -18-52.4209 108.631  19
   3   2 -18-65.0584 132.697  11
   2   3 -18-767.274 979.634  20
  -2  -3  18 101.350 150.469   2
  -3  -2  18 21.3205 74.2418  17
  -3  -2  18 32.8024 78.4453   2
  -2  -3  18 132.196 310.312  16
  -2  -3  18 43.6237 78.3750   8
  -3  -2  19 1898.74 490.630  17
  -3  -2  19 1877.38 729.543  16
  -3  -2  19 2320.45 374.217   5
  -2   3 -19 89.8999 98.1246  19
   2   3 -19 507.925 283.990  11
  -3   2 -19-125.455 206.611  19
   2   3 -19 423.759 212.560   1
   2  -3  19 2458.57 600.438   2
  -2  -3  19 2369.39 618.706   2
  -3  -2  19 1948.11 578.903   2
  -2   3 -19 326.919 222.415   9
  -2   3 -19 307.607 293.913  10
   2   3 -19 34.8870 260.243  10
   3  -2  19 2079.18 700.369  16
  -2  -3  19 2307.29 342.909   5
   3   2 -19 421.309 254.494  11
   3   2 -19 257.922 154.282   1
  -2  -3  19 2088.22 667.149  16
   3  -2  19 1293.41 492.820   8
  -2   3 -19-381.083 371.888  11
   2  -3  19 1061.42 444.835   6
   3  -2  19 2767.95 646.596   2
   3  -2  19 144.399 650.127   6
  -2  -3  19 2109.29 526.169  17
   2   3 -19 382.751 109.371  18
   2  -3  19 1777.41 653.661  16
   2   3 -19 208.627 240.066   9
   2  -3  19 2108.31 501.704   8
  -2   3 -19-217.488 634.426  20
   3  -2  20 181.695 154.628  16
  -3  -2  20 331.762 413.343  16
   2   3 -20 52.6248 98.7692   1
   2   3 -20-64.4149 295.200   9
  -2   3 -20-1661.58 949.804  20
  -3  -2  20 28.3028 96.1587   5
  -2   3 -20-435.613 449.314  10
  -3  -2  20-46.7940 152.899   2
   2  -3  20 83.0541 179.278  16
   3   2 -20 63.4560 87.0034   1
   2   3 -20-346.505 519.245  10
  -2  -3  20 272.976 264.241  16
   3  -2  20 89.8601 148.421   8
   3  -2  20 111.264 56.0702   2
   2  -3  20-1279.80 809.298   6
   2  -3  20 103.570 164.499   8
  -3   2 -20-96.6120 172.922  19
   2  -3  20 177.251 216.460   2
  -2  -3  20 228.148 140.895   2
   2   3 -20 80.8229 141.072  11
   2   3 -20-379.855 323.786  18
  -2   3 -20-541.648 494.219   9
  -2  -3  20 45.2418 62.7288  17
   3   2 -20-241.606 312.087  11
   3  -3   2-22.5159 121.735   6
   3  -3   2 5.07365 92.4671   8
  -3   3  -2 82.9985 72.3608  12
   3  -3   3 12.2467 37.5644   8
   3  -3   3-14.5327 58.6751  14
  -3   3  -3 0.13124 31.3602  19
   3   3  -3-10.0073 96.2024   1
  -3   3  -3-3.08793 81.7148   3
  -3   3  -3-7.49652 42.1465  12
   3  -3   3 2.39847 37.2878   6
   3   3  -3 9.29962 25.2214  13
   3   3  -4 2143.06 445.650  13
  -3   3  -4 2008.83 292.773  19
  -3  -3   4 830.424 289.956   2
   3  -3   4 1906.04 296.245  14
   3  -3   4 1648.96 252.257   8
   3   3  -4 948.750 416.600   1
  -3  -3   4 741.664 311.234  17
   3  -3   4 1756.34 311.314   6
  -3   3  -4 2041.88 404.874   3
  -3   3  -4 1962.25 298.974  12
   3   3  -4 2310.20 479.540  18
  -3  -3   5 5.77075 10.1114  17
   3  -3   5-0.87673 21.5933   6
  -3  -3   5 10.1130 62.0160   2
  -3   3  -5 1.99175 19.4838   4
  -3   3  -5-44.1945 113.298  13
  -3   3  -5 5.04167 15.6359  19
   3   3  -5-19.8707 62.3236   1
  -3   3  -5-13.7302 9.23322   3
   3   3  -5 6.25693 55.5981  13
  -3  -3   5-57.9449 128.196  16
   3  -3   5-1.23404 28.9525  14
   3   3  -5-6.07599 43.8052  18
  -3   3  -5-15.1319 22.9781  12
   3  -3   5-9.89078 102.383  16
   3   3  -5 16.4565 24.1558   3
  -3   3  -5-20.0137 45.4011   5
   3  -3   5 9.37146 26.2497   8
  -3  -3   5-13.8018 19.1964   6
  -3   3  -6 1275.75 210.211  19
   3  -3   6 1305.36 215.404  14
  -3   3  -6 1211.39 160.690   5
  -3  -3   6 895.442 270.550   2
  -3   3  -6 1168.98 202.929   4
  -3  -3   6 949.135 210.100  19
   3   3  -6 1194.27 276.467  13
  -3  -3   6 1079.09 168.073   6
   3   3  -6 1114.13 409.245   1
  -3   3  -6 1066.65 371.150  13
   3  -3   6 1065.31 193.606   8
  -3   3  -6 1152.05 241.857  12
   3   3  -6 1232.54 228.120   3
   3  -3   6 1349.60 330.791  16
  -3   3  -6 1230.19 284.680   3
  -3  -3   6 1014.47 302.026  17
  -3  -3   6 1061.94 238.150  16
   3  -3   6 1506.42 292.120   6
   3   3  -6 1268.50 298.008  18
   3  -3   6 1317.20 148.536   1
  -3   3  -7 37.2474 72.7086  13
   3  -3   7 22.6731 36.7907   6
   3   3  -7-6.07276 38.6752  18
  -3   3  -7 14.4401 28.3049   5
  -3   3  -7 10.7485 20.3254  18
  -3   3  -7-2.13889 59.2793   3
  -3  -3   7-5.33496 22.8566  16
   3  -3   7 4.52446 26.7708   8
   3   3  -7-5.67537 26.5767   3
   3  -3   7 3.42233 20.5450  17
   3  -3   7-4.99308 18.7516  14
  -3   3  -7 27.1442 44.1648  19
  -3  -3   7 3.75893 44.3162   2
   3   3  -7 2.88275 17.9843  12
  -3  -3   7 9.68558 65.4915   5
   3   3  -7 19.1554 80.5866   1
  -3  -3   7 12.8596 5.03457   6
  -3   3  -7 27.5754 54.9836  12
   3   3  -7-9.27191 41.4530  13
  -3   3  -7-7.09260 12.9867   4
   3  -3   7-3.89576 26.3189  16
  -3  -3   7-1.03447 39.6829  17
  -3  -3   7-14.3663 6.40893  19
   3   3  -8 3897.00 286.370  12
  -3   3  -8 3857.10 325.217  11
   3   3  -8 3834.19 491.808  18
  -3  -3   8 2184.50 416.953   6
   3  -3   8 4137.94 391.655  14
  -3  -3   8 3671.93 604.681   5
  -3   3  -8 3218.92 439.139  12
   3  -3   8 4909.86 630.336  16
  -3   3  -8 3936.11 382.102  19
   3  -3   8 4531.69 564.140   6
  -3   3  -8 3398.77 228.632  18
   3  -3   8 3998.96 271.216  17
  -3   3  -8 3158.49 527.722  13
   3  -3   8 3594.31 374.723   8
  -3  -3   8 3468.12 532.132  17
  -3   3  -8 3635.27 452.271   4
   3  -3   8 3206.50 613.641   2
   3   3  -8 3486.54 591.826   1
  -3  -3   8 3596.94 449.198  16
   3   3  -8 4795.51 651.364   7
  -3   3  -8 3974.42 408.127   5
  -3  -3   8 3635.07 517.641   2
   3   3  -8 4141.36 431.028   3
  -3   3  -8 3247.96 498.683   3
   3   3  -8 4798.39 595.089  15
  -3  -3   8 3762.46 240.066  19
   3   3  -9 110.357 106.712   3
   3  -3   9 1.70682 16.9777   6
  -3   3  -9-2.95796 19.3681  19
   3  -3   9 12.4623 44.3544  14
  -3   3  -9 55.8888 106.078  13
   3   3  -9-140.725 267.079   7
   3   3  -9-3.67769 48.4539   1
  -3   3  -9 6.98989 36.1584   4
   3   3  -9 9.85875 57.6456  11
  -3  -3   9-24.8601 75.5389   2
  -3  -3   9-0.07885 27.8387  16
   3   3  -9 39.6140 74.4018  18
  -3   3  -9-6.70868 8.37915  18
   3  -3   9 0.09765 8.85009   8
   3  -3   9 2.51233 22.7985  17
   3   3  -9-12.4028 15.8438  12
   3  -3   9-0.56135 123.563   2
   3  -3   9-4.05432 55.8543  16
  -3  -3   9-22.2202 72.7348  19
  -3   3  -9 0.07488 21.9085  11
  -3  -3   9 9.55338 29.4703   5
  -3  -3   9 38.0483 71.8162   6
   3   3  -9-3.09333 76.5907  20
   3   3  -9-272.367 327.557  15
  -3  -3   9-2.09926 26.2966  17
  -3  -3  10 241.207 120.969  17
  -3  -3  10 243.094 143.594  16
   3  -3  10 257.828 120.753  14
  -3  -3  10 285.156 148.797   5
   3  -3  10 297.470 160.175   6
  -3   3 -10 228.949 93.5183  19
  -3   3 -10 122.088 71.3047   4
   3  -3  10 253.663 145.408  16
  -3   3 -10 211.273 74.9791  18
  -3   3 -10 311.190 198.570  20
   3   3 -10 238.477 121.706  18
   3  -3  10 364.365 171.882   2
  -3  -3  10 21.6369 87.1823   6
   3  -3  10 349.333 104.904  17
   3   3 -10 337.058 267.806  20
  -3  -3  10 240.573 139.090   2
   3  -3  10 299.049 131.336   8
  -3   3 -10 221.716 85.3444  11
   3   3 -10 255.722 145.509  11
   3   3 -10 432.068 245.619  10
   3   3 -10 236.478 158.450   1
  -3   3 -10 236.503 156.598  15
  -3   3 -11-43.5486 91.2567  10
   3  -3  11-1.16829 32.2349   8
  -3   3 -11 2.99297 44.0083  19
  -3   3 -11-102.274 109.734  20
  -3   3 -11-23.9075 38.9968  11
   3  -3  11 25.1287 89.6125   2
  -3  -3  11 5.28360 23.8159  16
  -3   3 -11 145.648 193.219   7
   3   3 -11 13.7803 27.1251  18
   3   3 -11 104.075 185.500  20
  -3  -3  11-1.76000 12.2002  17
  -3   3 -11 72.9803 156.298  15
  -3  -3  11-39.2201 67.1771   2
   3  -3  11-104.322 105.932  14
  -3  -3  11 79.7668 159.585   6
  -3   3 -11 37.0308 75.6942  18
   3  -3  11 41.0082 78.7523  17
   3  -3  11 13.1297 54.6623  16
   3  -3  11-23.1764 35.6543   6
   3   3 -11 46.2991 131.224  10
  -3  -3  11 25.8355 43.3064   5
   3   3 -11 0.08730 34.5295  11
   3   3 -11 24.1295 14.6317   1
   3   3 -12 43.7064 32.9335  11
   3  -3  12 188.068 100.991   2
   3   3 -12 176.632 118.073  18
  -3   3 -12 4.64867 151.709   7
  -3  -3  12 100.014 111.864  16
   3   3 -12-20.5182 81.4065  20
  -3   3 -12-243.383 245.944  18
  -3  -3  12 62.1189 75.2642  17
  -3   3 -12 255.486 275.430  15
  -3   3 -12-65.8699 63.1926  11
   3   3 -12 231.760 180.170   9
  -3   3 -12 331.592 281.294   9
  -3   3 -12 132.114 105.565  19
  -3  -3  12 142.262 98.7314   5
   3  -3  12 156.992 193.549  16
   3  -3  12 191.372 114.390  17
  -3   3 -12 256.718 288.578  20
  -3  -3  12 144.359 124.732   2
   3   3 -12 82.8232 89.5313   1
   3  -3  12 326.587 268.938  14
   3  -3  12 174.403 100.637   8
  -3   3 -12 82.4934 229.995  10
   3   3 -12 103.076 215.190  10
   3  -3  12 271.154 212.849   6
   3   3 -13 151.924 203.592  20
  -3  -3  13 57.3108 102.122   5
   3  -3  13 794.179 443.439  16
   3   3 -13 140.948 275.464  10
   3   3 -13 63.8301 201.162   9
  -3  -3  13 67.9415 145.186   2
  -3   3 -13 806.139 400.012   9
  -3   3 -13 510.055 194.419  19
  -3  -3  13 75.1115 152.610  17
   3   3 -13-33.9485 57.9101   1
  -3   3 -13 1364.50 585.378   7
   3   3 -13-83.1389 23.5962  18
   3   3 -13 68.7515 125.916  11
  -3   3 -13 1027.31 493.561  15
  -3   3 -13 1526.09 541.408  20
  -3   3 -13 668.638 388.567  10
  -3   3 -13 391.357 223.595  11
  -3  -3  13 203.486 208.669  16
   3  -3  13-331.692 103.887  17
   3  -3  14 241.549 135.130   8
  -3  -3  14 104.354 72.7696  16
  -3  -3  14 54.7635 22.7401  17
  -3   3 -14 30.9639 117.553  10
  -3  -3  14 208.049 142.979   2
   3   3 -14-80.1253 370.897  20
  -3   3 -14-203.968 283.609  15
  -3  -3  14 184.735 101.105   5
  -3   3 -14 174.215 157.464   9
  -3   3 -14 38.2100 108.175  20
   3   3 -14 39.7876 83.9284  11
   3  -3  14 88.1692 93.8019   6
  -3   3 -14 41.1240 15.1676  11
  -3   3 -14 68.6688 57.5620  19
   3  -3  14 229.570 118.222   2
   3   3 -14 22.7293 31.4093   9
  -3   3 -14 18.8705 191.220   7
   3   3 -14 43.8564 43.2418  18
   3   3 -14-56.6091 56.7196  10
   3  -3  14 136.622 155.240  16
   3   3 -14-12.4994 101.461   1
   3   3 -15 17.2062 74.7094  10
  -3   3 -15 4.45383 12.9407  20
  -3   3 -15 1.29162 30.3582  11
   3  -3  15-12.5986 92.6146  16
   3   3 -15-19.7333 113.427   9
  -3  -3  15 56.5967 67.2303  17
  -3   3 -15-39.5027 63.9838   9
  -3   3 -15 7.93613 46.1683  19
   3  -3  15 83.3934 178.104   6
   3   3 -15 63.1413 151.107  11
   3   3 -15-77.3793 83.9880   1
  -3  -3  15-1.88684 57.7104   5
   3   3 -15 75.5730 110.555  18
  -3   3 -15 27.2803 138.200  10
  -3  -3  15-53.5468 100.618   2
  -3  -3  15 114.223 149.655  16
   3  -3  15 15.6752 35.2968   8
   3   3 -15 34.3536 138.360  20
  -3   3 -15-167.557 346.190   7
   3  -3  15-28.7753 59.0608   2
   3   3 -16 119.811 157.821  11
  -3   3 -16 102.538 182.462  10
  -3  -3  16 344.339 209.807  16
   3  -3  16 464.827 276.895  16
  -3  -3  16 369.218 221.952   2
   3  -3  16 479.197 187.329   8
  -3  -3  16 158.392 84.1115   8
   3  -3  16 573.520 229.428   2
   3   3 -16-303.040 278.520  10
  -3  -3  16 549.826 247.551  17
  -3   3 -16 212.087 152.143   9
  -3   3 -16 78.6014 55.8435  19
  -3   3 -16 41.8925 57.0095  20
   3   3 -16 219.969 159.745  18
  -3   3 -16-115.919 166.439  11
  -3  -3  16 396.402 161.249   5
   3   3 -16-255.451 424.469  20
   3   3 -16 196.095 146.677   1
   3  -3  16 407.947 326.432   6
   3   3 -16 164.120 178.813   9
   3  -3  17 60.0535 89.4025  16
   3   3 -17-213.694 880.807  20
  -3  -3  17 5.49182 24.2723   8
   3   3 -17-111.779 132.393  11
   3  -3  17-99.0005 167.853   6
   3  -3  17-16.2843 78.8434   8
  -3   3 -17-315.885 395.994  20
  -3  -3  17-51.2224 75.5772   5
  -3   3 -17-58.3475 90.9885   9
  -3  -3  17-150.987 162.722  16
   3  -3  17 16.9785 131.591   2
   3   3 -17-191.211 221.921   9
   3   3 -17-11.2685 42.7287  18
  -3  -3  17-35.8610 122.098   2
  -3   3 -17-13.8536 85.4827  10
  -3   3 -17-37.6177 58.3352  19
   3   3 -17 72.9990 117.190   1
   3   3 -17 289.107 428.718  10
  -3  -3  17 34.0593 76.3617  17
   3   3 -18 483.327 359.178  10
   3   3 -18 516.365 221.652   1
   3   3 -18 481.957 346.798   9
  -3  -3  18 1990.08 509.746  17
   3   3 -18 802.012 327.106  11
   3  -3  18 2147.92 679.780  16
  -3  -3  18 2109.24 369.157   5
   3  -3  18 1746.60 782.782   6
  -3  -3  18 1942.07 632.068  16
  -3   3 -18-87.0028 301.878  20
   3  -3  18 1825.75 484.275   8
  -3   3 -18 158.818 137.337  19
  -3   3 -18 409.883 219.763   9
  -3   3 -18 419.587 378.383  10
   3   3 -18 917.843 330.241  18
  -3  -3  18 1926.11 563.217   2
   3  -3  18 2163.68 520.136   2
   3   3 -19-158.357 214.852  10
   3  -3  19 17.1826 117.556   8
  -3  -3  19-20.9416 20.7280   5
   3   3 -19-57.3183 73.2407  11
   3   3 -19-74.5024 112.281   1
  -3   3 -19-395.008 608.230  20
   3  -3  19 211.273 260.574  16
  -3  -3  19-137.543 195.493  17
   3   3 -19 179.700 292.862   9
   3   3 -19-58.9037 125.449  18
  -3   3 -19-246.842 401.983   9
  -3  -3  19-75.2684 127.615   2
   3  -3  19 62.2933 165.654   6
  -3   3 -19-34.3550 26.6132  19
  -3  -3  19-182.925 215.603  16
  -3   3 -19-13.7647 93.3157  10
   3  -3  19 147.182 200.010   2
   3   3 -20 94.4212 314.455   9
  -3   3 -20 172.168 72.9917  19
  -3  -3  20 2843.13 634.156  17
   3  -3  20 3464.38 707.784   2
   3   3 -20 525.103 276.542   1
   3   3 -20 535.047 207.603  18
  -3   3 -20-1468.92 913.753  20
   3  -3  20 1207.24 489.616   6
  -3  -3  20 2909.32 765.920   2
  -3  -3  20 3147.67 863.203  16
   3   3 -20 605.361 281.736  11
   3  -3  20 3096.33 916.758  16
   3   3 -20-294.091 488.637  10
   3  -3  20 2879.12 624.101   8
  -3   3 -20-129.437 354.824  10
  -4   0   0 554.005 120.178  12
  -4   0   0 443.801 136.295   5
   4   0   0 649.246 125.003   6
  -4   0   0 476.994 139.471   4
   4   0   0 557.464 159.284   1
   4   0   0 559.973 136.176   8
   4   0   0 521.265 148.963  14
  -4   0   0 483.352 145.556  19
   4   0   0 570.671 125.446  18
   4   0   0 665.350 135.012  11
  -4   0   0 432.004 122.263  17
  -4   0   0 435.023 95.4246   2
  -4   0  -1 20.6684 38.9019  19
   4   0  -1-1.93615 9.07390   8
  -4   0   1 10.9546 33.4334  19
  -4   0   1 28.0231 36.9881   5
  -4   0   1-9.03493 15.5691  17
   4   0  -1-3.14144 15.7292   6
  -4   0  -1-6.26122 34.5831   4
  -4   0  -1-1.48539 20.9716  17
  -4   0   1 4.71407 33.2707   4
   4   0   1-5.61015 24.7634  14
   4   0   1-11.3474 28.7635   1
  -4   0  -1 11.2971 16.2207   2
   4   0  -1-10.7720 31.8863  14
   4   0  -1-6.52134 34.8928   1
   4   0  -1 13.7705 43.3012  11
   4   0  -1 4.97488 26.8534  18
   4   0   1 3.10373 31.8914   8
  -4   0   1-2.53089 4.97548   2
  -4   0  -1 27.1484 67.9030   5
   4   0   1-4.27997 22.8887  18
  -4   0   1 5.11298 21.2725  12
   4   0   1-8.48142 27.3235   6
  -4   0  -2 10.1018 27.1903  17
   4   0  -2 22.8159 30.7364   1
   4   0  -2 26.5620 19.5509  11
  -4   0  -2 13.9425 45.9162   4
  -4   0  -2 25.9862 56.6994  19
   4   0  -2 29.9677 35.9659  18
  -4   0   2 24.3523 40.3877  19
  -4   0  -2 1.23075 34.1902   5
   4   0   2 35.5374 38.4386  16
  -4   0   2 17.1003 35.3208  17
   4   0   2 18.5114 46.1230   1
  -4   0  -2 65.0976 83.5047   7
   4   0   2 17.2020 16.8194  18
  -4   0   2 17.9454 22.6091   4
   4   0  -2 33.3269 39.9566  14
  -4   0   2 38.9930 43.7741   5
  -4   0  -2 43.3098 53.7607  15
   4   0  -2 30.6045 28.7713   8
   4   0   2 14.4678 14.4392  14
   4   0  -2 44.8276 28.4398   6
   4   0   2 23.1459 39.3434   8
  -4   0   2 30.7701 31.7084   2
   4   0   2 25.5785 39.7560   6
  -4   0   3-7.18323 30.3392   2
  -4   0  -3 10.4631 8.22545   4
   4   0   3-18.6300 72.4097   1
  -4   0  -3 30.9741 58.6939   7
  -4   0  -3 13.2095 41.4398  15
  -4   0  -3-16.7846 32.1371   5
  -4   0   3-1.31706 15.5442   4
   4   0  -3 13.9717 27.9502  11
   4   0   3 7.40414 21.1163  16
   4   0   3-21.3902 40.3977  18
   4   0  -3 6.31795 25.3380   1
  -4   0   3-3.75846 20.0367  19
  -4   0  -3 32.7878 35.5502  19
   4   0  -3-7.04732 35.6592  18
   4   0  -3 6.78071 15.0139  14
  -4   0   3-10.1441 10.8732   5
   4   0   3-6.14612 9.21419   8
   4   0  -3-10.6318 20.7368   8
   4   0   3 5.77044 73.7647  14
   4   0   3 35.9221 72.3795   6
  -4   0   3 10.3981 31.3035  17
  -4   0  -3 7.16628 19.5685  17
   4   0  -4 1559.62 336.939  11
   4   0   4 1849.86 435.670  14
  -4   0  -4 716.497 284.448  19
   4   0  -4 1849.64 302.148   1
  -4   0   4 1958.17 286.911   5
   4   0   4 1879.76 420.871   8
   4   0  -4 1570.88 274.248   8
   0   4  -4 1561.80 447.796   3
   4   0  -4 1753.08 260.783  14
  -4   0   4 1879.69 255.494  19
   4   0   4 1274.05 418.726   1
   4   0  -4 1672.81 298.431  18
  -4   0  -4 622.076 222.571  15
  -4   0  -4 756.684 271.011   7
  -4   0  -4 604.645 255.438   4
  -4   0   4 1695.52 230.405   4
   4   0   4 1641.40 390.488   6
   4   0   4 1857.71 361.163  16
  -4   0   4 1799.08 284.588   2
  -4   0   4 1815.69 346.090  17
   0   4  -5 10.4170 49.5431   3
   4   0  -5-1.76785 17.5913  14
  -4   0   5-12.9492 43.0015   2
   0   4  -5-62.1178 118.840  13
  -4   0   5 2.07433 24.5448   5
   4   0   5 17.6353 103.540   6
   0   4  -5-24.5661 85.1269  12
  -4   0   5-39.8103 56.2931  17
   4   0  -5-15.2994 36.9630  18
   4   0  -5 5.96483 23.7998   1
  -4   0  -5-40.2045 132.025  19
  -4   0   5 1.57601 16.2941  19
   0  -4   5-21.1748 82.5126   6
   4   0  -5 13.9651 76.7161  11
   4   0   5 0.73193 96.4497  14
   4   0   5-55.0231 124.160   8
   4   0   5 6.78805 20.2181  16
  -4   0   6 681.415 253.859  17
   0   4  -6 767.279 348.158  13
  -4   0   6 732.711 192.934   5
   4   0   6 698.716 320.125  16
   4   0  -6 427.458 200.044  11
   0  -4   6 456.260 162.046   6
   4   0  -6 585.291 202.674   1
   0   4  -6 627.009 206.193   3
   0   4  -6 614.697 168.349  12
  -4   0   6 589.426 203.914   2
   4   0  -6 459.395 178.652  18
   4   0   6 499.592 292.422  14
   4   0  -6 528.150 156.608  14
   4   0   6 558.972 274.132   6
   4   0   6 499.112 276.120   8
   0  -4   7 26.9407 112.279  17
   0   4  -7 22.4442 59.9624  13
  -4   0   7-20.8374 52.1009   2
  -4   0   7 37.2826 79.8754  17
   4   0  -7-14.2353 46.1444  14
   0  -4   7 20.3770 54.4872  16
   4   0  -7-26.1630 89.5389  11
   0  -4   7 14.0938 71.0205   6
   0  -4   7-125.544 227.625   2
   0   4  -7-7.55468 31.4945  12
   0   4  -7 14.8133 58.3239  18
   4   0  -7 44.0634 70.5571  18
   4   0   7 155.733 207.365  16
   0   4  -7 9.37455 43.0772   3
   4   0  -7 22.4856 49.4396   1
   4   0   7 70.9391 201.008   8
   4   0   7-55.2837 141.865   6
   0   4  -8 3448.95 474.227   3
   4   0  -8 3207.28 551.482   1
   4   0   8 2659.22 703.054   8
   0  -4   8 2588.12 606.394   2
   4   0   8 3449.40 780.348  16
   0   4  -8 3357.95 374.625  12
  -4   0   8 4089.37 614.565   2
  -4   0   8 5055.75 723.780  17
   0  -4   8 3086.88 537.264  17
   0  -4   8 3648.20 480.876   6
   4   0  -8 2061.27 446.048  18
   4   0  -8 3327.74 433.881  14
   0   4  -8 3741.97 504.639  18
   4   0   8 2872.16 734.576   6
   0  -4   8 3199.77 512.930  16
   0   4  -8 3128.29 568.060  13
   4   0  -8 1465.58 421.635  11
   4   0  -9-72.3543 135.608  11
   0   4  -9-6.80453 32.8532   3
  -4   0   9 16.1439 46.6520   2
   0   4  -9 9.17805 47.9762  13
   4   0  -9-0.05398 23.2706  14
   4   0  -9-47.7349 114.838  18
   0  -4   9 0.01762 57.6874   6
   4   0   9 78.8271 227.787  16
  -4   0   9 8.66216 33.0228  17
   4   0   9-85.0079 200.079   8
   0  -4   9 47.9409 125.845   2
   0  -4   9 11.3612 65.3811  17
   0  -4   9-16.4229 39.2745  16
   4   0   9 73.3832 187.072   6
   0   4  -9-0.81377 16.6197   4
   0   4  -9 4.93063 30.0755  18
   0   4  -9-48.7676 61.0010  12
   4   0  -9 49.8869 110.381   1
  -4   0  10-32.7816 76.0364   2
   4   0 -10-0.03557 24.5757  11
   0   4 -10 64.7623 75.9813   3
   4   0 -10-40.9704 147.552  18
   0  -4  10 14.6030 34.7689  16
  -4   0  10 29.5900 56.0605  17
   0   4 -10 39.1250 42.4750  12
   4   0  10-207.138 281.934   8
   0  -4  10 114.091 88.7951  17
   0  -4  10 50.4095 25.4649  14
   0  -4  10 24.8502 42.4371   6
   0  -4  10 60.5149 66.1252   2
   4   0  10 146.535 192.530  16
   0  -4  10 82.8321 67.6337   8
   4   0 -10-39.2071 141.618   1
   4   0  10-75.1980 276.456   6
   0   4 -10 69.6589 108.590  13
   0   4 -10 66.8858 71.5435  18
   4   0 -11-60.1326 164.073   1
  -4   0  11 8.42498 68.3195  17
   0   4 -11 77.1951 176.738  13
   0  -4  11 46.6531 90.6471  16
   4   0  11 91.7759 226.637  16
   0  -4  11 43.7936 53.6024  17
  -4   0  11-16.6758 106.984   2
   0  -4  11-77.8262 102.490   2
   0  -4  11-15.8749 34.9706   8
   0   4 -11-3.26854 48.4610   3
   4   0 -11-144.167 201.607  11
   4   0  11-278.180 424.001   8
   4   0 -11-183.910 223.935  18
   0   4 -11 13.0395 64.7439  12
   4   0  11-199.362 362.759   6
   0  -4  11-58.0636 84.6758   6
   0   4 -11 14.5686 15.6855  18
   0   4 -11-15.8651 47.1107  11
   0  -4  12-16.0113 103.072  16
   4   0  12-204.747 238.969   8
   0   4 -12 86.7666 114.993  12
   0   4 -12 49.4914 58.1113  18
   0  -4  12 9.10984 15.2205   8
   0   4 -12-178.982 224.964  20
   0   4 -12 36.6034 48.1287  15
   4   0  12 166.347 333.857  16
   4   0 -12-288.089 323.034  11
   4   0  12-336.088 563.957   6
   0   4 -12 54.5533 73.7613  11
  -4   0  12 17.6177 33.8777   2
   0  -4  12-81.7909 111.608   6
   0   4 -12 67.7250 138.749   3
  -4   0  12-117.366 238.683  17
   0   4 -12 5.88832 130.274   7
   0  -4  12 40.0281 47.1666  17
   0  -4  12 42.4381 90.8729   2
  -4   0  13 55.7202 91.9680   2
   0   4 -13 1107.94 431.954   1
   0   4 -13 612.985 584.691   7
   4   0 -13-414.212 417.757  11
   4   0  13 46.0416 227.695   8
   0   4 -13 631.517 548.972  15
   4   0  13 100.994 265.119  16
   4   0  14-31.1883 186.491   8
   0  -4  14 122.639 197.891   6
  -4   0  14 70.4940 88.1590   2
   0  -4  14 58.6122 41.4485   8
   0   4 -14 84.0213 215.489  20
   0  -4  14 89.5331 83.0753  17
   0   4 -14 70.7494 92.5041  11
   0   4 -14 1.75477 75.4817  15
   0  -4  14 115.953 65.9463  16
   0   4 -14 58.5556 132.341   1
   4   0  14 177.297 260.907  16
   0   4 -14 28.8302 219.645   7
   0   4 -14 117.476 92.6807  18
   0   4 -14 193.028 98.1282  10
   0  -4  14 65.0640 100.473   2
   0   4 -15-11.1082 42.4164  18
   0   4 -15-191.538 316.126   7
   0   4 -15-62.4917 33.4027   1
   0   4 -15 158.638 253.632  10
   0  -4  15 27.5741 160.057   6
   0   4 -15 198.705 254.921   9
   0   4 -15-363.972 455.357  15
   0   4 -15 14.3700 17.7453  19
   0   4 -15 11.2786 69.0362  11
   0  -4  15 88.0323 90.7096  16
   0  -4  15 7.48724 29.1642   8
   0  -4  15 119.998 109.633  17
   0   4 -15 55.7132 32.1676  20
   0  -4  15 6.14701 43.4439   2
   4   0  15 232.360 305.718  16
   0   4 -16-33.1944 46.3351   1
   0  -4  16 105.250 258.334   6
   0   4 -16 67.7270 80.6675  11
   0  -4  16 78.5557 69.5762   8
   0   4 -16 187.538 220.587   9
   0   4 -16 271.797 396.579  20
   0  -4  16 22.8902 93.9285   2
   0   4 -16 279.436 260.844  10
   0   4 -16 55.9477 104.912  18
   0  -4  16 115.187 128.639  17
   0  -4  16 173.329 203.079  16
   0   4 -17 153.579 169.473  11
   0  -4  17 42.9446 82.9226   2
   0   4 -17 16.4724 34.5093  19
   0   4 -17 173.097 139.161  18
   0   4 -17-27.3410 117.549  20
   0   4 -17-50.0294 152.592   1
   0   4 -17 61.9761 144.341   9
   0  -4  17 26.9934 52.4701  17
   0  -4  17 17.3940 3.40157   8
   0  -4  17 29.9812 289.612   6
   0   4 -17 235.774 290.900  10
   0  -4  17 71.0133 127.538  16
   0   4 -18 477.563 422.062  20
   0   4 -18 785.627 397.618   9
   0   4 -18 293.836 356.837  10
   0  -4  18 1318.50 247.520   8
   0   4 -18 722.460 288.582  11
   0   4 -18 610.501 234.706  18
   0  -4  18 1083.45 467.478  16
   0  -4  18 1369.50 472.435   2
   0  -4  18 797.845 628.873   6
   0  -4  18 1601.03 391.379  17
   0  -4  19 391.596 155.283   8
   0   4 -19 410.465 381.544  10
   0   4 -19 520.766 533.955  20
   0  -4  19 313.051 239.346   2
   0  -4  19 603.350 422.207  16
   0   4 -19 410.144 277.922  11
   0   4 -19 382.360 205.445  18
   0  -4  19-3.71699 194.717   6
   0  -4  19 352.971 218.829  17
   0   4 -19 422.899 312.825   9
   0   4 -20 207.792 296.196  20
   0   4 -20 329.586 253.218  11
   0   4 -20 103.340 175.598  10
   0   4 -20 304.619 100.517   9
   0  -4  20 1800.64 466.313  17
   0  -4  20 1603.71 550.225   2
   0   4 -20 113.203 157.412  18
   0  -4  20 1945.24 687.565  16
   0  -4  20-567.957 631.699   6
  -4   1   0 1979.08 235.470   2
   4  -1   0 1709.07 228.749   8
   4   1   0 1798.87 425.725  14
   4  -1   0 2200.02 255.947   6
  -4  -1   0 1232.08 334.436   5
  -4  -1   0 1097.57 326.164   4
   4   1   0 2183.73 445.056   1
  -4   1   0 1887.78 274.441  12
   4  -1   0 2173.96 283.483   1
  -4  -1   0 1219.02 330.183  19
  -4   1   0 1456.99 320.241  17
  -4   1   0 1978.02 261.622  19
   4  -1   0 1774.12 328.975  18
   4   1   0 839.203 272.642   6
   4  -1   0 2020.41 279.648  14
   4   1   0 1997.39 368.231   8
  -4   1   0 1957.73 259.487   5
   4   1   0 2333.26 364.229  18
  -4  -1   0 1154.55 302.999  17
  -4   1   0 1888.40 250.421   4
  -4  -1   0 867.375 245.928   2
  -4   1   1 110.377 67.1967  19
   4  -1  -1 128.618 79.0308  14
   4  -1  -1 90.3458 43.9810   6
   4   1  -1 148.897 80.8061  13
   4   1  -1 121.828 74.2766  18
   4  -1   1 126.569 79.9383  18
   4   1   1 109.421 82.1244  18
  -4   1   1 99.0282 47.5251   4
   4  -1   1 111.965 65.8912   8
   4  -1   1 140.099 81.8567   6
   4   1  -1 134.536 98.1644   1
  -4   1  -1 102.912 39.8540   2
  -4   1   1 114.760 66.7141   5
  -4  -1  -1 31.9231 70.3011   5
   4  -1  -1 116.165 65.9734   8
  -4  -1   1 78.3606 67.0298  17
   4  -1  -1 158.295 88.6285   1
   4   1  -1 139.198 75.9056   8
  -4   1   1 113.050 106.999  17
   4   1  -1 60.7654 69.3658   6
   4  -1   1 120.728 74.9812  14
  -4  -1   1 90.8287 73.0212  19
   4  -1   1 139.911 80.3023   1
  -4   1  -1 143.893 79.3615   5
   4   1  -1 69.3746 71.8088  14
  -4   1  -1 118.777 90.0107  17
  -4   1  -1 134.131 78.1504   4
  -4   1  -1 133.126 82.8676  19
   4   1   1 166.121 125.900   8
  -4   1   1 45.1778 96.6027  12
  -4  -1  -1 104.258 108.571  19
  -4   1  -1 101.580 69.5873   3
   4   1   1 129.920 78.1410   1
  -4  -1  -1-27.8772 109.494   4
   4   1   1 105.220 87.1003  14
   4  -1  -1 115.680 77.6066  18
  -4  -1   1 72.2573 51.3873   2
  -4   1  -1 120.790 71.3953  12
  -4  -1   1 101.366 101.498   4
   4   1   1 91.3739 99.9444   6
  -4  -1   1 88.4328 90.7248   5
  -4  -1  -1 20.9478 76.8832  17
   4  -1  -2 131.487 72.1103  14
  -4   1  -2 83.5726 47.0884   3
   4  -1   2 119.384 66.0519  18
   4  -1   2 111.245 63.8487  14
   4   1  -2 124.498 97.4000   1
   4   1   2 90.4683 115.865   8
  -4   1  -2 96.7914 59.0608   5
   4   1  -2 130.532 61.9954  13
  -4   1  -2 116.771 66.4721  12
  -4  -1   2 90.4596 74.9860   4
  -4   1   2 94.1911 65.0039  19
   4  -1  -2 28.2679 94.1827  18
   4  -1   2 122.192 62.3525   1
   4  -1  -2 130.254 77.2223   8
  -4   1  -2 113.151 68.4186  19
   4  -1   2 146.333 85.9867  16
   4  -1   2 102.886 60.0418   8
  -4  -1   2 90.6075 56.2477   2
  -4  -1   2 90.8244 68.6956  17
  -4   1  -2 129.959 74.3881   4
   4   1  -2 131.796 68.4670   8
   4   1  -2 125.992 78.6247  18
   4   1   2 79.5710 31.9158  14
  -4   1  -2 80.9318 52.5447  17
   4   1   2 96.0829 113.364   1
   4   1  -2 178.095 111.676  14
   4   1   2 10.8946 125.326   6
  -4   1   2 118.931 112.283  17
  -4   1   2 113.898 60.4241   5
  -4  -1   2 78.5869 62.1943  19
   4  -1  -2 107.493 76.2863   1
   4  -1   2 132.328 68.2825   6
  -4  -1   2 107.188 71.9249   5
   4  -1  -3 238.820 101.477   8
   4   1  -3 305.248 87.9099   8
   4  -1  -3 440.579 170.696   1
  -4  -1   3 280.017 117.219   5
  -4   1   3 369.355 135.878  19
  -4   1  -3 309.829 111.774   5
   4  -1   3 387.979 122.879   8
   4   1   3 27.3454 146.783   6
   4  -1   3 403.835 118.121   1
   4  -1   3 516.222 142.033  16
   4  -1   3 473.139 135.499   6
  -4  -1   3 351.703 138.484  17
   4   1  -3 369.749 122.481  18
  -4   1   3 341.792 181.331  17
  -4   1  -3 345.876 130.144  19
  -4  -1   3 351.089 120.748  19
   4   1  -3 325.567 128.605   1
   4  -1   3 427.489 131.534  14
  -4   1  -3 321.869 126.571   4
   4   1  -3 436.757 164.754  20
   4  -1  -3 69.7495 121.367  18
  -4  -1   3 244.066 94.6156   2
  -4  -1   3 286.425 109.020   4
   4   1   3 118.292 118.770   8
   4  -1  -3 385.839 139.940  14
  -4  -1   3 302.232 67.6233  16
   4   1  -3 400.297 136.822  11
   4   1  -3 726.929 177.524  10
   4   1  -3 287.573 126.838  14
   4   1  -4 18.6004 39.2740  18
  -1   4  -4 2.14986 22.1409   3
  -4   1   4-29.9545 128.800  17
  -4   1  -4 18.2685 29.4229   5
   4   1  -4-94.4502 180.297  20
   4   1  -4 64.4525 108.173  10
   4   1  -4 88.6353 90.5877   9
   4  -1   4 33.8932 65.3326   1
  -4  -1   4 13.1801 11.1040   5
  -4   1  -4 19.0366 11.2807  19
   4  -1   4 2.82896 40.9559   6
   4  -1  -4-88.0332 211.676  18
   4  -1   4 24.2849 42.7920   8
  -4  -1   4 27.3638 22.7870  16
  -4   1  -4 0.71996 22.1654   4
   4  -1   4 11.8412 12.0845  16
   4   1   4-90.6082 262.265   6
  -4  -1   4 36.2240 37.9427   2
  -4   1  -4 28.4200 15.3553  10
   4   1  -4 19.2876 20.8788   8
  -4  -1   4-5.93459 8.95355  17
  -4  -1   4 32.1390 32.2088  19
   4  -1  -4-37.3331 106.246   1
   4   1  -4 13.5311 54.6786  11
  -4  -1   4 20.4330 28.7513   4
   4  -1  -4 31.9046 36.8923  14
  -4   1  -4 41.2127 64.6475  20
   4   1  -4 29.9202 50.8236  14
   4   1   4-81.7771 214.465   8
  -4   1  -4 22.8143 41.4303   9
   4   1  -4 0.97227 1.54827   1
   4  -1   4 39.4344 45.0872  14
   4  -1  -5 2337.83 498.880   1
  -4   1  -5 1735.06 332.108  20
  -1   4  -5 2667.31 503.046   3
   4  -1  -5 1605.85 322.925  14
   4  -1   5 2724.03 500.467   1
  -4  -1   5 2466.60 267.164  19
   4   1  -5 929.352 230.578  20
  -4   1   5 2307.56 538.767  17
   4   1  -5 2270.66 344.103   1
   4   1  -5 1978.07 301.979  14
   1  -4   5 1373.85 311.109   6
  -4  -1   5 2343.76 323.468   5
   4  -1   5 2848.04 423.814   6
  -4   1  -5 1516.83 314.734  19
  -4   1  -5 1700.74 362.371   4
   4  -1   5 2539.54 377.376   8
  -4  -1   5 1929.14 253.565  16
   1   4  -5 2998.31 765.826  13
   4   1   5-16.0436 281.836   6
  -4  -1   5 2228.41 357.191  17
  -4   1  -5 1970.60 400.339   7
   4   1  -5 2712.81 530.901  10
   4   1  -5 2627.94 392.241  11
  -4   1  -5 1941.13 357.257  15
   4  -1   5 2851.76 390.978  16
   4  -1   5 2467.74 388.531  14
  -4   1  -5 1673.92 375.933   5
  -4  -1   5 2071.24 302.775   2
  -1   4  -5 1623.53 591.270  13
  -1   4  -5 2626.42 388.753  12
   4   1  -5 2705.85 479.188   9
  -4   1  -5 1707.85 285.537   9
   4   1  -5 2142.30 326.507  18
  -4   1  -5 1758.34 314.428  10
   1   4  -5 2541.96 497.335   3
  -4  -1   5 2291.80 269.904   4
   4   1  -5 2333.41 251.770   8
   4   1  -6 687.721 195.635   1
   1   4  -6 647.831 209.537   3
  -4  -1   6 789.536 189.254   5
   4  -1   6 291.341 145.829   1
  -1   4  -6 698.927 227.024   3
  -4  -1   6 615.370 179.357   2
   4  -1   6 783.877 244.120   6
  -4   1   6 547.030 203.879  17
   1  -4   6 540.892 188.506   6
  -4  -1   6 646.770 203.381  17
  -1  -4   6 114.240 110.123  17
   1   4  -6 684.904 241.379  18
  -4  -1   6 531.262 167.977  16
  -4  -1   6 676.867 151.492  19
  -4   1  -6 593.038 219.821  15
  -4   1  -6 411.167 183.541  20
  -4   1  -6 521.648 200.859   9
   1  -4   6 421.363 160.274  16
   4   1  -6 586.826 322.722  10
  -1  -4   6 429.051 165.075   6
   4   1  -6 656.022 183.813  18
  -4   1  -6 460.859 215.075   7
   1   4  -6 802.126 215.463  12
  -4   1  -6 452.837 191.108  10
   4   1  -6 772.774 288.074   9
   1   4  -6 653.806 282.868  13
  -1   4  -6 833.022 393.178  13
   4   1  -6 725.365 220.981  11
  -4   1  -6 459.702 197.517  19
   4   1  -6 582.243 150.475  14
   4  -1   6 813.396 222.678  16
  -1   4  -6 650.408 177.080  12
   4  -1   6 733.286 227.954   8
   4  -1   6 815.420 245.939  14
  -4   1  -6 347.251 173.539   4
  -4  -1   6 704.525 145.037   4
  -1   4  -7 2014.91 527.318  13
  -1  -4   7 909.307 345.524   2
   4   1  -7 1610.28 310.094  18
   4  -1   7 2128.29 468.412   6
  -4  -1   7 1936.83 367.414  17
   4   1  -7 1456.91 428.041   9
  -1  -4   7 1667.19 303.521   6
   4  -1   7 1937.77 448.672  14
  -1  -4   7 1261.15 427.687  17
   4   1  -7 1736.03 255.723  14
  -4  -1   7 2131.53 321.704   5
  -4   1  -7 1025.81 336.218  20
  -4   1  -7 929.074 301.732  19
   4  -1   7 2032.84 416.902   8
   4   1  -7 1929.97 334.892   1
  -4  -1   7 1875.33 232.207   4
  -4   1  -7 1025.84 318.495  10
  -4   1  -7 379.335 187.406   4
  -1   4  -7 2144.74 446.395  18
   4   1  -7 1926.33 374.147  11
   1   4  -7 1963.09 445.499  13
   1   4  -7 2222.90 464.206  18
  -1  -4   7 1357.20 329.083  16
  -4   1  -7 622.281 242.424   9
   4   1  -7 1117.38 463.596  10
  -4  -1   7 1580.40 335.784  16
   1  -4   7 1144.37 386.204  17
  -4  -1   7 1744.33 322.344   2
   1   4  -7 2029.61 294.105  12
   4  -1   7 2302.49 237.948   2
   1  -4   7 1656.30 381.057  16
  -4  -1   7 2010.74 323.121  19
  -4   1  -7 1092.92 341.654  15
   1  -4   7 1749.85 342.759   6
  -1   4  -7 1737.03 281.459  12
   1   4  -7 1772.44 335.441   3
   1  -4   7 1856.55 370.204   8
   4  -1   7 2263.08 445.050  16
  -4   1  -7 1079.80 355.071   7
  -1   4  -7 1910.32 372.630   3
   4   1  -8 72.5248 39.8078  14
  -4  -1   8 100.018 76.5125  17
   1  -4   8 88.3722 111.073  17
   1   4  -8 76.9674 36.1446   3
  -1   4  -8 142.782 87.0392  12
   1   4  -8 146.586 104.811  18
  -4  -1   8 108.280 91.0399   2
   4  -1   8 73.5770 63.5987   8
   4   1  -8 127.898 97.4895  18
   4   1  -8 133.589 127.851  11
  -1   4  -8 63.0996 66.0052  13
   4   1  -8 70.7290 97.3086   9
  -4   1  -8 107.449 132.305  19
   4   1  -8 120.803 86.7698   1
   1   4  -8 82.4870 59.7408  12
  -4   1  -8 65.3324 103.791  10
  -1  -4   8 76.4288 115.621   2
   4  -1   8 152.225 171.050  14
  -1  -4   8 69.5771 41.0690  16
   1  -4   8 124.851 85.8732   8
  -4   1  -8-6.52540 139.119   7
   4  -1   8 146.453 138.227  16
  -1   4  -8 141.518 109.484  18
  -1  -4   8 97.5351 83.5613   6
  -4  -1   8 154.561 82.1784   5
   1  -4   8 66.6414 41.6672  14
  -4   1  -8 139.807 107.046  20
   4  -1   8 157.160 63.6533   2
  -4  -1   8 87.6089 91.4831  16
   1  -4   8-31.8781 158.950   2
   1  -4   8 146.305 93.4142   6
   4   1  -8 160.943 231.349  10
  -1   4  -8 127.300 56.6203   4
   4  -1   8 141.121 160.040   6
   1   4  -8 128.913 124.904  13
  -1   4  -8 139.725 102.303   3
  -1  -4   8 134.625 144.316  17
   1  -4   8 109.192 114.980  16
  -4   1  -8-114.979 170.222  15
   4   1  -9 578.965 223.276  11
   4   1  -9 318.749 175.073   9
   1  -4   9 639.235 157.947   8
  -4  -1   9 531.598 257.771  16
   1  -4   9 663.177 338.898   2
   1   4  -9 733.476 217.325  18
   4   1  -9 564.501 208.779  18
  -1   4  -9 677.965 170.489  18
  -4  -1   9 836.018 222.840   5
  -1   4  -9 494.940 228.353  13
   1  -4   9 686.549 206.818  17
   4  -1   9 694.153 285.401   8
  -4   1  -9 56.7373 96.9481  19
   4  -1   9 843.247 350.251  14
  -1   4  -9 652.102 182.057  12
  -1  -4   9 701.018 222.630  16
   4   1  -9 402.103 348.218  10
  -1  -4   9 588.215 220.722  17
  -4  -1   9 796.189 257.054   2
   4   1  -9 665.495 161.439  14
  -1   4  -9 725.424 221.756   3
   4  -1   9 952.004 357.416  16
   1  -4   9 753.012 228.006   6
  -4   1  -9-35.3524 147.792  15
   1  -4   9 803.707 137.006  14
  -4   1  -9 90.4111 170.038   7
   1  -4   9 723.216 250.973  16
   1   4  -9 687.118 205.564   3
  -4  -1   9 888.240 273.486  17
  -1  -4   9 638.449 213.681   6
   4   1  -9 638.290 209.272   1
   4  -1   9 792.041 355.441   6
   1   4  -9 632.248 239.149  13
   1   4  -9 658.812 160.532  12
   4  -1   9 1049.98 227.820   2
  -1  -4   9 586.542 253.471   2
  -4   1  -9 140.587 147.246  10
  -1   4  -9 859.471 146.846   4
  -4  -1  10 502.341 208.117   2
  -1   4 -10 395.605 185.131  13
   1  -4  10 575.236 281.675   2
   4  -1  10 378.355 199.320   6
   4   1 -10 214.899 143.041   9
   1   4 -10 6.18731 99.7678   1
  -4  -1  10 573.305 191.837   5
   4   1 -10 332.203 124.237  14
  -1   4 -10 419.000 98.4762  19
   4   1 -10 290.692 154.993  18
   4   1 -10-111.607 480.834  10
   1   4 -10 462.082 168.897  18
   1   4 -10 457.027 142.462  12
   1  -4  10 535.603 103.768  14
   1  -4  10 397.491 187.913  16
  -1   4 -10 371.793 116.935  18
  -4  -1  10 552.064 227.404  17
   1  -4  10 533.698 128.247   8
  -1   4 -10 396.904 187.243   3
   1   4 -10 396.615 207.180  13
  -1   4 -10 644.954 176.615   4
  -1  -4  10 377.170 170.443  16
   4  -1  10 505.359 268.195   8
   4   1 -10 308.445 174.264  11
  -1  -4  10 391.203 212.054   2
   4  -1  10 459.147 215.182  16
   4   1 -10 337.979 166.899   1
   1  -4  10 480.373 142.915  17
   1  -4  10 423.973 197.982   6
  -1  -4  10 433.236 194.016   6
  -4  -1  10 603.904 311.558  16
  -1  -4  10 442.902 187.452  17
  -4   1 -10-239.983 319.348  20
  -1   4 -10 504.375 161.877  12
  -4   1 -10-142.426 240.259  10
  -4   1 -10 47.8507 112.978  19
   4  -1  10 762.299 200.421   2
   1   4 -10 504.329 194.978   3
   4   1 -11 39.9764 41.6468  14
  -4  -1  11 46.2699 58.5512   2
   1  -4  11-45.9365 100.657   6
   4   1 -11 13.1998 122.174   9
  -1  -4  11 12.1889 29.3583  17
  -1   4 -11 69.8071 100.549   3
   1  -4  11 15.0737 76.4956   2
   1   4 -11 50.1272 59.7362  12
  -1   4 -11 197.801 165.820  13
  -1   4 -11 78.7731 93.7696  12
  -1   4 -11 49.2128 46.0041  11
   1  -4  11 24.0788 31.1722   8
  -4  -1  11 20.3173 68.5878   5
   4   1 -11 23.1589 72.7392  11
   4   1 -11 30.2432 56.5469   1
  -1   4 -11-129.404 153.002   4
  -4   1 -11-47.7923 216.234  19
   1  -4  11-9.46367 21.1719  17
   1   4 -11 15.9067 93.4761  15
   1   4 -11-17.5127 49.8771   1
  -1  -4  11 42.1410 76.1774   2
   4  -1  11 91.1250 101.311   6
   4   1 -11 6.36197 55.1189  18
  -4  -1  11 17.6565 24.3346  17
   4  -1  11 73.4136 193.003  16
   1  -4  11-23.0949 39.7012  16
   1   4 -11 48.8486 92.9827   3
   1  -4  11 50.1683 42.1471  14
  -4   1 -11-478.839 453.547  20
   4  -1  11-32.2569 101.492   8
   1   4 -11 33.1692 45.3735  18
   4  -1  11-72.2314 138.301   2
  -4  -1  11 142.417 202.619  16
  -1  -4  11 29.1619 77.2554  16
   1   4 -11 28.7810 104.483  13
  -1   4 -11 12.4893 27.4325  19
  -1  -4  11 36.2919 88.9231   6
  -1   4 -11 46.5218 50.9129  18
   1   4 -11 49.8755 73.4480  11
   1  -4  12 45.8081 68.1625  16
   4   1 -12 40.5303 35.9085  11
   1   4 -12 245.666 248.433   7
  -1   4 -12 145.369 132.631   3
  -1  -4  12 96.8781 133.787  16
  -1  -4  12 178.089 132.376   6
  -1  -4  12 34.5958 19.1711   8
   1   4 -12 97.3281 149.476   3
  -4  -1  12 209.187 247.225  16
  -1   4 -12 103.574 80.9811  11
  -1   4 -12 101.642 69.0872  18
   1  -4  12 55.0328 61.7611  17
  -4  -1  12-8.18918 129.870   5
  -4  -1  12 111.423 132.173  17
   1   4 -12 10.6261 25.7679   1
   1   4 -12 57.6906 91.0090  18
  -1   4 -12 229.624 131.916  12
   4   1 -12-617.609 590.052   9
   1   4 -12 208.683 179.812  11
   4  -1  12 8.53224 119.900   2
   1   4 -12 316.681 288.674  20
  -4  -1  12 67.1231 73.2011   2
   4  -1  12-76.3970 171.431   8
   1  -4  12 80.2455 49.9217   8
  -1   4 -12 26.7310 69.2971  20
   1  -4  12 215.850 221.460   6
  -1   4 -12 46.6857 40.7460  19
   1  -4  12 39.0713 28.3033  14
   1  -4  12 26.2854 31.1173   2
  -1   4 -12 62.1708 194.746   7
   4   1 -12 7.28469 11.9573  18
   1   4 -12 160.683 246.760  15
  -1  -4  12 95.9151 100.706  17
   1   4 -12 84.8611 107.845  12
   4  -1  12 108.123 127.311  16
  -1   4 -12 51.8405 98.5685  15
  -1  -4  12 94.0640 160.266   2
   4  -1  12 166.990 216.615   6
   4   1 -12 1.31666 93.3657   1
   4   1 -12-8.01754 39.9993  14
   1   4 -13 668.187 234.457  18
   4  -1  13-61.4219 106.964   6
   4   1 -13-53.1824 80.0632  11
   4   1 -13-43.2228 87.8320   1
  -4  -1  13 108.985 150.385  16
   1   4 -13 446.352 269.090  12
  -1   4 -13 1863.09 649.771  15
   4   1 -13-24.6281 76.8801  18
  -4  -1  13 33.7975 81.7073   2
   4   1 -13-31.8877 55.1728  14
  -1  -4  13 202.888 190.903  16
  -1  -4  13 207.017 271.930   2
  -1  -4  13 1282.03 643.401   6
   4  -1  13 54.8514 126.238   2
  -1  -4  13 507.808 224.791  17
   4  -1  13-83.8760 93.0351   8
   1   4 -13 1858.58 1011.86   7
   1   4 -13 471.500 566.569   1
   4  -1  13-90.8574 133.270  16
  -4  -1  13 10.4428 16.2249  17
   1  -4  13-187.954 462.216  14
   1   4 -14 106.383 153.542   1
   4   1 -14 124.208 128.211  11
   4  -1  14 756.300 445.287  16
   4   1 -14 222.317 108.965  14
   4   1 -14 141.879 107.299   1
   1  -4  14 568.983 189.803  17
  -1   4 -14 503.069 167.239  11
   4  -1  14 243.341 214.212   8
  -1   4 -14 481.284 257.747  10
   4  -1  14 118.257 158.163   6
  -1  -4  14 514.811 211.610  17
  -4  -1  14 534.002 268.145  17
   1   4 -14-13.5192 424.877   7
   1   4 -14 490.921 186.873  11
   1   4 -14 34.9200 345.312  15
  -1   4 -14 332.270 358.610  20
  -1  -4  14 587.001 273.531   2
  -1   4 -14 498.207 299.448  15
  -1   4 -14 407.618 137.594  18
   1   4 -14 376.830 293.582  10
   1   4 -14 387.097 157.314  18
   1  -4  14 456.161 224.001  16
   1  -4  14 637.262 270.424   2
  -1  -4  14 371.764 246.391   6
   1  -4  14 469.795 118.634   8
  -1   4 -14 446.802 351.111   7
  -1  -4  14 509.386 230.767  16
  -4  -1  14 523.733 264.657   2
  -4  -1  14 458.474 399.774  16
  -1   4 -14 429.040 107.498  19
   4  -1  14 903.234 290.534   2
   4   1 -14 81.3957 67.0291  18
   1   4 -14 309.845 203.091  20
   1  -4  14 604.940 283.383   6
   4  -1  15 31.8610 82.0373   2
   1   4 -15 207.946 235.897  20
   1  -4  15 85.2970 81.4928  17
  -1   4 -15 372.434 295.695   9
  -1   4 -15-27.8074 168.516  15
   1  -4  15 47.5324 84.6544  16
   4  -1  15 202.774 284.708   8
   4   1 -15 69.0246 75.4610  14
   4   1 -15-74.3847 174.135  11
  -1   4 -15 26.5112 43.8449  11
   1   4 -15-38.0817 84.1486   1
  -1  -4  15 68.6141 101.761  17
  -4  -1  15 64.5041 84.4219  17
  -1  -4  15 135.986 107.171  16
  -1  -4  15 9.05256 170.428   6
   1   4 -15 30.6333 32.2979  18
  -1   4 -15 63.0297 41.8373  19
   1   4 -15 142.582 159.343  10
  -1   4 -15 30.3957 58.5069  10
   4   1 -15 29.0450 58.7394   1
   4   1 -15-189.961 262.404  18
   1  -4  15 61.2051 105.792   2
  -1   4 -15 91.2885 148.518   7
  -1   4 -15 0.50935 100.220  20
   1   4 -15 394.638 305.882   9
  -4  -1  15 130.650 136.544   2
  -1   4 -15-16.5805 44.6840  18
  -1  -4  15 64.4395 30.2939   8
  -4  -1  15 65.8955 274.232  16
   4  -1  15-372.906 437.241   6
   1   4 -15-33.0648 40.0081  11
   1  -4  15 99.2157 71.4279   8
  -1  -4  15 38.4015 30.2617   2
   1  -4  15 154.748 208.756   6
   4  -1  15 30.2257 222.117  16
   4   1 -16 111.050 111.164   1
   1   4 -16 136.023 163.786   1
  -4  -1  16 568.349 297.186   2
   1   4 -16 326.941 213.342  11
  -1  -4  16 445.065 105.008   8
   4  -1  16 456.270 327.138   8
  -1   4 -16-339.883 591.259   7
   4  -1  16 495.200 366.838  16
   1  -4  16 528.057 151.699   8
  -1  -4  16 477.689 212.281  17
  -1   4 -16 502.368 308.202   9
  -4  -1  16 493.825 257.915  17
  -1   4 -16 265.576 94.7365  19
  -1   4 -16 394.796 311.036  10
   1   4 -16 434.465 264.499   9
   1  -4  16 591.790 282.690   2
   4  -1  16-533.361 485.392   6
   4  -1  16 643.036 332.138   2
   1  -4  16 534.952 207.226  17
  -1   4 -16 241.335 125.399  18
  -1   4 -16-150.372 430.134  15
  -1  -4  16 502.646 283.172   2
   1  -4  16 377.191 270.650  16
   1   4 -16 312.060 143.020  18
  -1  -4  16 483.588 273.860  16
   1   4 -16 520.967 378.061  20
  -1   4 -16 490.205 206.663  11
   4   1 -16-362.543 310.478  18
  -4  -1  16 440.142 441.959  16
  -1  -4  16 194.060 181.162   6
   1   4 -16 407.493 401.573  10
  -1   4 -16 216.879 310.172  20
   4   1 -16-14.8747 99.0829  11
   1  -4  16 636.562 364.044   6
  -1   4 -17 271.480 114.864  19
   1   4 -17 354.024 288.945   9
  -1   4 -17 909.770 638.523  20
   4   1 -17-427.768 258.460  11
   4   1 -17 62.0358 119.383   1
   1   4 -17 269.950 141.579  18
   4  -1  17 772.345 369.769   2
  -1   4 -17 534.155 407.648   9
  -4  -1  17 326.137 161.831  17
  -1  -4  17 495.532 265.678   2
   1  -4  17 906.542 453.761  16
   1  -4  17 724.074 285.076  17
   1  -4  17 606.883 195.852   8
  -1   4 -17 376.234 216.984  18
   1  -4  17 735.555 339.564   2
   1   4 -17 126.295 158.698   1
  -1  -4  17 212.947 381.385   6
  -4  -1  17 517.988 276.669   2
  -1  -4  17 412.697 266.670  16
  -1  -4  17 454.128 196.760  17
   4  -1  17 796.699 444.404  16
  -4  -1  17 758.109 521.321  16
  -1  -4  17 471.057 112.036   8
   1   4 -17 167.073 113.806  11
   1   4 -17 320.371 250.795  10
  -1   4 -17 373.756 228.352  11
   1  -4  17 453.954 369.873   6
   4  -1  17 445.515 317.635   8
  -1   4 -17 515.033 485.822  10
   1   4 -17 793.741 526.864  20
   1   4 -18 440.380 267.465  11
  -1   4 -18 337.805 364.590  10
   1   4 -18 595.891 408.355   9
   1  -4  18 733.847 542.584   6
  -1  -4  18 885.891 310.615  17
  -1   4 -18 706.431 298.723  11
  -1   4 -18 263.254 212.867  18
   1  -4  18 891.865 401.395   2
   1  -4  18 936.695 347.529  17
   1   4 -18 203.213 186.502   1
  -1   4 -18 670.310 582.687  20
  -1  -4  18 20.7822 340.028   6
   4  -1  18 348.274 310.429   8
   1   4 -18 316.002 423.593  20
   1   4 -18 561.226 234.031  18
   4  -1  18 959.893 405.525   2
  -1  -4  18 793.728 165.204   8
   1   4 -18 691.675 512.878  10
  -4  -1  18 643.465 306.494   2
  -1  -4  18 769.129 389.561  16
   4  -1  18 588.284 361.302  16
  -1   4 -18 606.933 378.477   9
  -1  -4  18 836.947 353.747   2
   1  -4  18 1035.72 483.010  16
  -4  -1  18 1105.59 652.957  16
   1  -4  18 770.936 231.254   8
   1   4 -19 694.963 344.977   9
   1  -4  19 1006.99 591.707   6
   1   4 -19 649.422 322.170  11
   1   4 -19 680.570 645.650  20
  -1   4 -19 285.620 422.511  20
   1  -4  19 2033.15 594.678   2
   1  -4  19 1868.83 344.776   8
  -1   4 -19 259.572 245.110  10
  -1  -4  19 1797.21 567.191   2
  -4  -1  19 2316.30 919.274  16
   4  -1  19 2795.39 757.048   2
   1  -4  19 2118.10 509.926  17
  -1  -4  19 2159.06 518.185  17
   1  -4  19 1925.28 646.608  16
  -1  -4  19 1997.19 650.048  16
   4  -1  19 1569.29 688.392  16
  -1   4 -19 764.053 325.230  11
  -1  -4  19-231.344 475.246   6
   1   4 -19 443.801 435.513  10
   1   4 -19 895.580 333.113  18
   4  -1  19 629.469 307.197   8
  -4  -1  19 1871.36 565.406   2
  -1   4 -19 589.909 347.483   9
   1   4 -20-257.550 553.698  20
   4  -1  20 185.745 214.954   8
  -1   4 -20-2.91011 262.648  10
  -1   4 -20 325.020 328.775  20
   1  -4  20 495.512 459.849  16
  -1   4 -20 180.361 323.888   9
   1  -4  20 296.320 336.995   2
  -1  -4  20 212.460 264.740   2
   1  -4  20-160.174 225.788   6
   1  -4  20 256.083 178.735   8
  -1   4 -20 242.924 243.116  11
   1  -4  20 71.9469 50.5275  17
   1   4 -20 281.482 186.784  11
   1   4 -20 285.205 302.319   9
   1   4 -20 307.574 286.332  10
  -1  -4  20 454.194 371.425  16
  -1  -4  20 230.266 180.847  17
   1   4 -20 260.152 196.529  18
   4  -1  20 311.326 258.557  16
   4  -2   0 173.260 90.4773   8
   4   2   0 175.720 204.900   1
   4  -2   0 196.814 101.314  14
   4  -2   0 164.203 69.7456   1
  -4   2   0 214.433 99.6523  19
  -4   2  -1 1227.37 222.566  19
   4   2  -1 1311.29 472.774   1
   4   2  -1 893.341 301.814   8
  -4   2   1 1456.56 285.095  19
   4   2  -1 1490.69 386.231  18
   4  -2   1 1331.90 251.954   1
   4  -2   1 1210.12 243.180   6
   4  -2  -1 1003.03 244.358  14
   4  -2  -1 1041.24 276.859   8
  -4   2  -1 1301.98 270.165  12
  -4  -2   1 258.143 206.871  17
   4  -2   1 1102.84 203.375   8
   4  -2   1 1297.93 243.301  14
  -4   2  -1 1329.76 228.365   5
  -4   2  -2 353.564 192.309   3
  -4  -2   2 233.277 178.611  17
  -4   2  -2 357.111 122.026  19
   4  -2   2 299.722 105.430   8
  -4  -2   2 89.2708 44.7956   5
  -4   2  -2 396.303 138.209  12
   4  -2   2 415.954 132.600   6
  -4   2  -2 345.152 119.069   4
  -4  -2   2 97.9208 65.2586   2
   4   2  -2 245.819 168.421   8
   4   2  -2 389.927 193.520  18
   4   2  -2 332.192 228.755   1
  -4  -2   2 159.497 121.092  19
   4  -2   2 382.028 124.550   1
  -4   2  -2 340.091 108.534   5
   4  -2   2 410.475 137.146  14
   4   2  -2 366.014 205.319  13
  -4   2  -3 1313.98 202.550   5
   4  -2   3 1249.82 210.286   8
   4   2  -3 1536.71 272.703   8
   4  -2   3 1412.33 206.391   1
  -4   2  -3 1414.23 231.763  19
   4   2  -3 1571.88 331.286  18
   4   2  -3 1411.80 381.963   1
   4   2  -3 1420.80 275.277  13
  -4   2  -3 1251.71 213.966   4
  -4  -2   3 1012.19 255.879   2
  -4  -2   3 1029.70 280.803  19
  -4  -2   3 463.219 187.736   4
  -4  -2   3 717.415 290.328   5
   4   2  -3 403.811 243.242  14
   4  -2   3 1348.78 233.612  14
  -4   2  -3 1366.28 293.846   3
  -4   2  -3 1341.21 238.892  12
   4  -2   3 1561.70 255.444   6
  -4  -2   3 968.318 284.348  17
   2   4  -4 1086.32 456.846  13
   4  -2   4 1309.39 249.603   6
  -4  -2   4 879.083 257.265  17
  -4   2  -4 975.801 178.556   5
  -4   2  -4 1131.38 228.127  12
   4  -2   4 974.356 191.527   8
  -4  -2   4 857.178 215.145   2
  -4   2  -4 1180.78 254.710   3
  -2   4  -4 1160.55 283.705  12
  -4  -2   4 788.864 204.516  19
  -4   2  -4 1221.18 225.677  19
  -2   4  -4 1213.68 429.459   3
  -4   2  -4 1091.46 214.096   4
   4   2  -4 1166.98 269.251  18
   4  -2   4 1483.57 326.856  16
  -4  -2   4 908.489 274.769   5
   4   2  -4 1192.90 185.722   8
   4  -2   4 1092.69 173.208   1
   4  -2   4 1181.66 219.773  14
   4   2  -4 1048.04 206.584   3
  -4   2  -4-27.0867 101.216  13
   4   2  -4 1044.21 296.124   1
   4   2  -4 1096.70 222.207  13
  -4  -2   4 627.276 219.169   4
   2  -4   4 503.980 193.464   6
   4   2  -4 558.982 296.362  14
  -4  -2   4 891.418 175.142  16
  -2   4  -5-7.94576 20.3628   3
  -4  -2   5 6.41168 43.0995  17
   2   4  -5-4.32808 82.6973  13
  -4  -2   5 7.06472 19.0867  16
   4   2  -5 65.1115 65.5156   1
  -2   4  -5 11.1989 32.1448  12
   2   4  -5-15.3947 93.9325   3
   4   2  -5-26.2577 73.8934  14
   4   2  -5 40.1521 58.1173  18
  -4   2  -5 22.2879 31.9743   5
  -4   2  -5 26.6616 57.4320  12
   4  -2   5 32.7704 18.0451  16
   4  -2   5 21.8028 43.6474   8
   4  -2   5 10.7439 60.8322   6
  -4   2  -5 24.5703 42.8750  19
   4  -2   5 12.5548 17.1389   1
  -4  -2   5 21.8751 26.9644   5
   4   2  -5 11.9714 17.1644   3
  -4  -2   5 35.8866 86.8048   4
  -4   2  -5-10.3514 13.1395   4
  -4   2  -5 17.5521 53.4292   3
   4   2  -5 24.2900 27.0376   8
  -4  -2   5 8.92487 15.3541  19
  -4  -2   5 30.2790 54.6022   2
  -4   2  -5-15.8003 66.6440  13
   2  -4   5-3.93749 30.1844   6
   4  -2   5 8.78809 35.5606  14
  -4  -2   6 2598.22 366.516   4
   2  -4   6 2505.52 410.958   8
  -4   2  -6 2846.43 378.895   5
   4  -2   6 3264.21 383.651   8
   2   4  -6 3374.96 506.355   3
   4  -2   6 3707.40 467.856   6
   4   2  -6 3345.39 245.578   8
  -4  -2   6 2763.43 320.170  16
  -4  -2   6 2866.11 429.662   5
  -4  -2   6 2535.99 386.220   2
   4   2  -6 3184.62 422.626  18
   4  -2   6 3964.38 432.120   1
   2   4  -6 3672.11 651.157  13
  -2  -4   6 1162.33 416.366  17
  -2   4  -6 3205.42 404.011  12
  -4   2  -6 2696.07 368.445  19
  -2   4  -6 3418.27 528.854   3
  -4  -2   6 3034.31 462.546  17
  -4   2  -6 2459.55 389.543  13
  -4   2  -6 2708.15 403.133   4
   4   2  -6 3607.16 493.465  11
   4   2  -6 2256.85 474.122  14
  -2  -4   6 918.099 334.300   2
   4   2  -6 4208.97 595.200  20
   4  -2   6 3367.68 395.542  14
   2   4  -6 3750.63 657.925  18
  -2   4  -6 3119.21 855.388  13
   4   2  -6 3283.93 291.286   3
  -2  -4   6 2067.74 342.847   6
   4  -2   6 4195.44 527.151  16
   2  -4   6 2753.44 434.467   6
  -4  -2   6 3275.38 303.198  19
   4   2  -6 2996.41 462.288   1
   2  -4   7 236.570 104.637  14
  -2   4  -7 284.668 146.600   3
   4   2  -7 227.646 118.118  18
   2   4  -7 225.035 135.044  13
  -2   4  -7 212.226 101.353  12
   2   4  -7 274.236 117.986  12
   4  -2   7 288.787 113.408  14
   4   2  -7 229.481 190.982  20
  -4   2  -7 195.593 101.879  19
  -4   2  -7 156.698 92.2289  11
  -4  -2   7 232.028 102.783  16
   4   2  -7 392.991 195.688  10
  -2  -4   7 148.662 51.8336  16
  -4  -2   7 239.795 83.0697  19
   2   4  -7 286.379 137.546   3
   4  -2   7 312.554 148.570  16
   4   2  -7 249.633 136.788   1
  -2  -4   7 187.410 180.891  17
   4  -2   7 247.980 115.282   8
   2  -4   7 291.961 143.497   6
  -4  -2   7 218.532 123.422  17
   4  -2   7 311.262 138.967   2
  -4   2  -7 165.995 120.543   4
  -4  -2   7 203.897 110.778   5
   4  -2   7 314.316 194.087   1
   4  -2   7 310.169 144.827   6
  -4  -2   7 235.678 98.8473   4
   2  -4   7 246.518 120.660   8
  -2   4  -7 286.918 215.491  13
   2  -4   7 249.710 139.908  16
  -2  -4   7 196.174 101.780   6
  -4  -2   7 219.901 121.483   2
   2   4  -7 213.520 130.773  18
  -4   2  -7 274.867 131.461  10
  -4   2  -7 242.814 161.692   5
  -2   4  -7 231.598 70.1906   4
   4   2  -7 136.728 50.4783  14
  -4   2  -7 209.331 111.961  20
   4   2  -7 317.339 162.498  11
   4   2  -7 356.569 86.5794   8
  -2  -4   7 186.229 176.755   2
   4  -2   8 2138.28 416.142   6
   2  -4   8 2102.07 379.857   6
  -4   2  -8 553.803 117.195  11
   2   4  -8 2060.12 411.274  18
  -2   4  -8 1940.45 488.965  13
  -4   2  -8 1758.13 314.453   9
   2  -4   8 1867.31 372.259  17
   4   2  -8 1624.91 337.871   1
   2   4  -8 49.9134 123.170   1
   2   4  -8 1726.16 315.103   3
  -4   2  -8 1259.52 293.784  19
  -2  -4   8 1431.17 406.565   2
   4  -2   8 2092.13 374.417  14
   4  -2   8 2470.60 316.261   2
  -2  -4   8 1478.22 333.263  16
   4   2  -8 1834.39 530.527  20
  -4   2  -8 1521.64 333.495  20
  -4   2  -8 1679.55 342.131  10
  -4  -2   8 1899.51 330.964   5
  -4   2  -8 1479.96 376.178  15
   4   2  -8 1651.30 318.977  18
   4  -2   8 2379.56 443.120  16
  -4   2  -8 1473.49 408.208   7
  -4  -2   8 1649.46 322.515   2
   2   4  -8 1693.32 394.980  13
   4   2  -8 1888.99 379.225  11
  -4  -2   8 1739.58 244.948   4
  -2  -4   8 1444.32 378.259  17
   4   2  -8 1236.29 309.172  14
   2  -4   8 1738.48 269.395   8
  -2  -4   8 1593.68 289.768   6
   2   4  -8 1915.86 270.067  12
  -2   4  -8 2006.64 323.956  18
  -4  -2   8 1771.21 243.361  19
  -2   4  -8 1596.09 350.105   3
  -4   2  -8 1199.97 358.123   4
  -2   4  -8 2325.21 363.388  19
   2  -4   8 1780.54 425.151  16
  -2   4  -8 1835.70 309.775  12
   4   2  -8 2221.18 539.570  10
   4  -2   8 2140.70 358.623   8
  -2   4  -8 1930.79 243.654   4
   2  -4   8 1941.87 268.560  14
   4   2  -8 2220.03 491.985   9
  -4  -2   8 1684.45 303.580  16
  -4  -2   8 1809.47 373.553  17
   4  -2   9 260.612 170.835   6
  -2   4  -9 266.886 122.462  12
   2   4  -9 363.229 201.277  13
  -4  -2   9 258.177 115.245   5
  -4   2  -9 231.439 122.131   9
   2   4  -9 326.647 112.908  12
   2   4  -9 263.950 125.412   3
  -2   4  -9 421.353 132.294  19
   4   2  -9 198.449 222.931  20
  -4   2  -9 202.844 197.963  20
   2   4  -9 132.994 218.541   1
  -2   4  -9 238.053 84.2579  18
   4   2  -9 209.411 135.424  11
  -4  -2   9 293.141 150.748   2
  -4   2  -9 213.409 140.466  15
   2  -4   9 253.306 97.5163   8
  -2   4  -9 249.796 136.614   3
  -2  -4   9 220.155 115.671   6
   4   2  -9 353.639 234.922   9
  -4   2  -9 240.953 124.285  10
   4  -2   9 278.080 143.268   8
   2  -4   9 249.128 82.2497  14
  -4  -2   9 250.558 145.433  17
   2   4  -9 298.568 164.782  18
  -4  -2   9 315.641 100.536   4
   4   2  -9 413.307 291.943  10
  -4   2  -9 74.8935 148.193   4
   2  -4   9 303.212 109.217  17
  -2  -4   9 199.250 151.558  17
  -4   2  -9 164.163 115.509  19
   4  -2   9 338.233 178.844  14
  -2  -4   9 207.145 136.730  16
  -2   4  -9 274.504 95.5982   4
   2  -4   9 278.425 152.528   6
   2  -4   9 296.917 176.948  16
   4  -2   9 401.886 126.789   2
  -2   4  -9 327.123 188.457  13
   4  -2   9 274.401 163.232  16
  -4  -2   9 265.803 135.930  16
  -4   2  -9 182.124 191.065   7
   2  -4   9-106.308 285.078   2
   4   2  -9 197.290 108.791  18
   4   2  -9 239.499 126.713   1
   4   2  -9 131.774 106.508  14
  -2  -4   9 244.214 168.335   2
   2  -4  10 610.918 296.177   2
  -4   2 -10 329.585 158.436  19
   2  -4  10 736.363 246.164   6
   2   4 -10 528.178 138.283  12
  -2   4 -10 509.645 163.443  12
   4   2 -10 467.118 181.726   1
   2   4 -10 550.648 184.559   3
  -2   4 -10 581.569 223.859   3
   2   4 -10 527.997 175.785  18
   4   2 -10 454.587 204.851  11
   4   2 -10 362.875 269.593  20
   4  -2  10 701.338 160.422   2
  -2   4 -10 538.794 228.221  13
  -4  -2  10 595.691 222.729  17
   2  -4  10 722.317 138.505  14
   2   4 -10 162.932 191.546   1
  -4  -2  10 621.557 184.474   5
  -2  -4  10 465.089 181.981  16
  -2  -4  10 463.890 188.863   6
   2  -4  10 632.221 149.244  17
  -2  -4  10 388.461 201.196   2
   2  -4  10 544.379 138.738   8
   2  -4  10 833.506 274.785  16
  -2   4 -10 666.290 156.134  19
  -2   4 -10 584.911 173.207   4
   4   2 -10 582.324 369.533  10
   2   4 -10 562.528 228.544  13
  -4   2 -10 432.959 240.553  20
  -4   2 -10 300.157 195.164  10
   4  -2  10 608.977 274.071  14
  -4  -2  10 509.387 199.999   2
   4   2 -10 412.523 170.614  18
  -4   2 -10 422.903 295.491   7
   4   2 -10 310.375 141.440  14
  -4  -2  10 525.894 199.332  16
  -4   2 -10 348.082 148.703   9
  -2   4 -10 543.789 128.276  18
  -4  -2  10 613.322 130.538   4
  -2  -4  10 556.662 225.816  17
  -4   2 -10 513.756 248.396  15
   4  -2  10 577.305 210.323   8
   4  -2  10 687.714 279.152  16
   4   2 -10 419.496 254.060   9
   4  -2  10 666.881 281.909   6
   4  -2  11 977.391 387.112   6
  -4   2 -11 547.448 254.673  20
  -2   4 -11 744.820 222.416  12
  -4   2 -11 354.324 190.450  10
  -2  -4  11 930.616 313.304   2
   4   2 -11 706.109 246.474   1
   2   4 -11 965.128 276.792  11
   2   4 -11 816.850 306.665  13
  -4  -2  11 916.685 157.408   4
   2  -4  11 1293.34 373.676  16
  -4  -2  11 990.905 235.341   5
   4  -2  11 1106.25 437.933  14
  -2   4 -11 963.781 329.133  13
  -2   4 -11 977.356 182.686  19
  -4   2 -11 351.991 152.954  19
   4   2 -11 640.454 247.615  11
   2   4 -11 887.704 189.397  12
   4  -2  11 1070.99 222.944   2
   4   2 -11 287.229 105.989  20
   2  -4  11 1068.79 196.855  17
   4   2 -11 537.456 181.432  14
   2   4 -11 442.399 310.910   1
  -4  -2  11 854.009 279.057   2
  -2   4 -11 883.615 198.879  11
   4   2 -11 714.509 226.562  18
   2   4 -11 1149.52 390.184  15
  -2   4 -11 902.732 284.862   4
  -4   2 -11 284.827 193.360  15
   2   4 -11 1196.96 433.029   7
  -2  -4  11 956.663 288.524  16
  -2  -4  11 1035.26 283.083  17
  -2  -4  11 765.399 317.888   6
   4  -2  11 1027.39 293.139   8
  -4   2 -11 453.327 197.975   9
   4   2 -11 857.190 432.069  10
   2  -4  11 1430.80 452.391   2
  -2   4 -11 967.339 298.772   3
  -4   2 -11 222.763 168.704   7
   2  -4  11 1272.70 353.974   6
   2  -4  11 1069.38 192.481  14
   4  -2  11 1020.86 357.182  16
   2   4 -11 831.092 227.237  18
  -2   4 -11 752.096 155.860  18
  -4  -2  11 1170.05 305.636  17
   2   4 -11 916.415 259.421   3
   4   2 -11 662.578 337.787   9
  -4  -2  11 811.570 286.025  16
   2  -4  11 919.389 179.891   8
  -4  -2  12 48.3074 85.0667  17
  -4   2 -12-207.150 130.834  10
  -4   2 -12-466.016 476.085   7
   2   4 -12 27.7774 114.859  18
   4   2 -12-313.821 356.967  20
   2   4 -12-286.254 374.008   7
  -4  -2  12-30.7635 4.67231   2
   2   4 -12-30.6459 156.444  11
  -4   2 -12-12.2013 85.4314  19
  -4   2 -12-112.345 171.912  20
   4   2 -12 0.95712 80.8906  18
   4   2 -12 49.2363 130.878  11
   4   2 -12-19.0799 15.8133  14
   2   4 -12 419.866 551.539  20
  -4   2 -12-421.202 401.965  15
   4   2 -12 72.2851 83.1349   1
   4   2 -12-86.0995 128.307   9
   2   4 -12 1.84638 115.397  12
  -2  -4  12 51.2339 240.809   2
  -4  -2  12 43.4159 81.6507   5
  -2  -4  12 54.6125 202.948  17
   2   4 -12 38.4667 149.047   3
  -4  -2  12 28.3251 110.759  16
  -4   2 -12 95.5576 182.084   9
   4  -2  12-67.8613 61.0271  16
  -2  -4  12 72.5135 206.449  16
   2   4 -12-128.204 372.610   1
   4  -2  12 11.7786 127.986   8
   2   4 -12-27.0135 385.623  15
   4   2 -12-220.363 201.578  10
   4  -2  12 14.7355 53.2221   2
   4  -2  12-91.1731 252.706  14
   4  -2  12 132.289 277.876   6
  -2  -4  12 197.682 538.481   6
  -4   2 -13 52.4685 131.710  19
   4  -2  13 509.361 269.212  16
  -4  -2  13 558.038 187.890   5
   4   2 -13 145.599 76.3182  14
   2   4 -13 460.648 165.485  12
  -4   2 -13-289.130 308.567   9
   2   4 -13 375.247 152.928  18
   2   4 -13 341.247 242.931   1
  -2   4 -13 1633.04 681.655   7
   2   4 -13 488.120 350.602  20
   4   2 -13-154.051 209.321   9
  -4  -2  13 561.239 229.637  17
   4  -2  13 689.804 205.029   2
  -2  -4  13 426.292 228.690   2
   2   4 -13 503.945 349.778  10
   4   2 -13 448.774 230.866  11
   2   4 -13 447.465 228.860  11
   2  -4  13 1398.86 456.276  16
   4   2 -13 304.737 162.454  18
  -4  -2  13 551.268 291.401  16
   4  -2  13 685.761 287.896   8
  -2   4 -13 2595.54 641.493  20
   2  -4  13 2115.61 565.986   6
  -4   2 -13 140.894 234.232  20
  -2  -4  13 521.771 190.701  17
   2   4 -13-135.129 430.427  15
  -4   2 -13 12.5594 188.512  10
   2   4 -13 23.3031 312.592   7
   4   2 -13 164.348 389.694  10
  -2   4 -13 1479.27 599.094  15
  -2  -4  13 389.240 403.730   6
   2  -4  13 1317.72 414.536  14
  -4  -2  13 475.030 253.113   2
  -2  -4  13 295.116 164.807  16
   4   2 -13 301.064 168.240   1
   4  -2  13 333.500 184.756   6
   4   2 -14-230.921 324.987   9
  -2   4 -14 5.21342 59.2531  10
  -4  -2  14 34.7356 36.2404  17
  -4   2 -14 27.9572 97.3760  19
  -4   2 -14-289.256 387.979   9
   2   4 -14-13.5324 120.290  10
  -4   2 -14-106.509 213.908  20
  -4   2 -14 126.301 188.660  10
   4   2 -14 31.2347 64.7395  11
  -2  -4  14 21.8025 31.2740  17
   2  -4  14 8.46413 115.435  16
   4  -2  14 60.2125 98.9075   8
   4  -2  14-20.4510 53.1284   2
   4  -2  14 89.5811 108.371  16
   2   4 -14 3.07559 32.7149  18
  -4  -2  14 108.068 127.581   2
  -2   4 -14-99.7900 132.018  15
  -2   4 -14 38.3953 59.9623  18
  -2   4 -14 31.4318 167.107  20
   2   4 -14-15.7483 65.5128  11
   4   2 -14 72.8314 91.7583  18
   4   2 -14 269.841 426.156  10
   2  -4  14 17.2038 107.571  14
   2  -4  14 73.1943 101.538   2
  -2   4 -14 60.2638 86.0013  11
  -2  -4  14-29.2395 68.2449   2
   2  -4  14-33.7421 73.5174   6
   2  -4  14 32.2307 22.4170   8
   2  -4  14-2.04046 42.3224  17
  -4  -2  14 24.8307 44.3978   5
  -2  -4  14-42.8001 109.832  16
  -2   4 -14-13.4347 21.0429  19
  -2  -4  14-4.41952 173.958   6
  -2   4 -14 18.1142 155.652   7
   4   2 -14 52.9680 58.7076  14
   2   4 -14 144.965 148.621   1
   2   4 -14-99.7196 115.496  20
   4   2 -14 16.5833 79.6511   1
   4  -2  14-80.8920 191.475   6
  -4  -2  14 68.6352 130.623  16
   2   4 -15 583.938 317.902   1
  -2   4 -15 580.432 201.735  11
   4   2 -15 451.320 211.389   1
   2  -4  15 996.517 361.387   2
  -2   4 -15 608.364 340.794   9
  -4  -2  15 989.610 257.774   5
   2  -4  15 851.479 402.332   6
   4   2 -15 191.909 240.327   9
   4   2 -15-293.867 309.850  10
  -2   4 -15 535.029 144.912  19
   4   2 -15 335.719 231.441  11
  -4   2 -15 123.130 183.854  19
  -2   4 -15 348.861 351.564  10
  -4   2 -15-110.483 256.808  20
   2   4 -15 833.031 393.771   9
  -2   4 -15 244.568 306.861  20
   4  -2  15 765.760 408.636   6
  -4  -2  15 892.322 347.694   2
   4  -2  15 609.095 269.271   8
   2  -4  15 968.229 255.315  17
   2  -4  15 996.812 355.180  16
   4   2 -15 199.507 100.080  14
  -2   4 -15 475.276 334.531  15
   2  -4  15 690.149 189.679   8
   2   4 -15 560.781 381.904  10
   4  -2  15 949.108 415.400  16
  -4  -2  15 967.131 353.822  17
   2   4 -15 534.617 200.446  18
  -2  -4  15 806.638 270.656  17
  -2  -4  15 261.802 371.904   6
   2   4 -15 546.020 221.908  11
   2   4 -15 496.843 416.584  20
  -4   2 -15 175.309 203.726  10
  -2   4 -15 458.572 173.218  18
  -2   4 -15 462.141 351.981   7
  -4  -2  15 732.411 375.998  16
  -2  -4  15 676.331 279.316   2
  -2  -4  15 567.407 163.247   5
  -2  -4  15 522.888 258.399  16
   4  -2  15 852.754 260.385   2
   4   2 -15 348.301 203.092  18
   4   2 -16 22.4497 12.7951  14
   4   2 -16-201.344 359.442   9
  -2   4 -16 215.596 278.271  10
   2   4 -16 340.182 300.169   9
   2   4 -16 69.4976 126.295   1
   2  -4  16 54.3495 135.871   2
  -2   4 -16-312.105 344.024  15
  -2   4 -16-29.8469 59.6310  11
   4  -2  16 146.371 124.988   8
   2   4 -16 111.559 137.231  11
   2   4 -16 289.771 286.301  10
   4   2 -16 193.270 192.121  11
   2  -4  16 41.1155 62.0899  17
  -2   4 -16-248.436 441.211   7
  -2  -4  16 73.5760 43.3939   8
  -2  -4  16 140.190 144.008  17
  -4  -2  16 22.2557 71.7203   5
   4   2 -16 84.3962 133.349  18
  -4  -2  16 133.942 178.995  16
  -2  -4  16 64.8391 120.733  16
   2   4 -16 260.426 392.402  20
   2   4 -16 52.3373 94.8946  18
   4   2 -16 162.306 149.028   1
  -4   2 -16-334.315 438.074  10
  -2   4 -16 157.024 91.4907  19
  -2   4 -16 45.3384 283.356  20
  -2  -4  16 48.3630 118.081   2
   2  -4  16 169.420 179.141  16
   4   2 -16-411.874 680.463  10
  -2  -4  16 78.3482 88.0239   5
  -4  -2  16 90.0693 150.620  17
   4  -2  16 6.26487 73.8455  16
  -2   4 -16 68.7321 150.942   9
  -2   4 -16 70.8644 65.5892  18
  -4   2 -16-32.8728 127.179  19
   2  -4  16 119.195 104.282   8
  -4  -2  16 172.949 201.674   2
   4  -2  16 123.059 236.570   6
   4  -2  16 139.508 143.578   2
   2  -4  16 60.1704 160.539   6
  -2  -4  16-119.739 348.783   6
   4  -2  17 1384.46 557.102  16
   4   2 -17 379.030 195.894  18
   2   4 -17 832.391 410.600   9
  -2   4 -17 677.043 416.854  10
  -2   4 -17 486.677 344.093  20
   4   2 -17 121.392 156.749  11
   2  -4  17 1127.52 278.084   8
   2  -4  17 1455.77 550.187  16
  -4   2 -17-181.582 242.501  19
  -2  -4  17 1139.54 344.604   5
  -4  -2  17 1241.53 531.745  16
   2   4 -17 938.385 339.003  11
   2   4 -17 142.331 363.241  20
  -2   4 -17 559.048 232.734  11
  -2  -4  17 866.509 139.685   8
   4  -2  17 1067.16 400.797   8
  -2  -4  17 1175.44 438.721   2
   4  -2  17 1511.27 429.193   2
   4   2 -17-263.304 416.962   9
  -2   4 -17 478.497 154.584  19
   4   2 -17 341.389 219.863   1
   2  -4  17 1287.35 359.263  17
   4  -2  17 1029.70 547.527   6
  -2  -4  17 1417.85 501.558  16
  -2  -4  17 1142.64 348.633  17
  -4  -2  17 1437.63 331.195   5
   2   4 -17 645.908 244.270  18
  -2   4 -17 248.077 78.3010  18
   2  -4  17 1105.08 402.408   2
  -4  -2  17 1224.61 406.197  17
   2   4 -17 642.825 505.250  10
  -2   4 -17 450.445 270.756   9
   2   4 -17 555.510 281.618   1
  -2  -4  17-442.501 505.523   6
  -4  -2  17 1188.59 431.974   2
   2  -4  17 1153.95 544.829   6
  -4   2 -18 131.462 196.841  19
   2  -4  18 1862.02 698.621   6
  -4  -2  18 2421.34 602.744  17
   2   4 -18 1036.18 535.701   9
   2  -4  18 2879.93 657.949   2
   2   4 -18 692.282 314.793   1
  -4  -2  18 2922.79 478.989   5
   2  -4  18 2595.55 542.342  17
  -2  -4  18 2642.40 531.108   5
  -2   4 -18 694.795 399.173   9
   2   4 -18 1207.45 598.979  10
   2   4 -18 771.015 752.110  20
   4  -2  18 2356.02 759.090  16
  -2  -4  18 1924.56 592.212  16
   2  -4  18 2228.91 413.263   8
   4   2 -18 509.094 323.190  11
  -2  -4  18 2180.67 494.421  17
   2   4 -18 1177.30 342.597  18
  -2   4 -18 908.183 447.989  10
   4   2 -18 308.185 164.205  18
  -4  -2  18 2562.78 672.210   2
   4   2 -18 502.011 258.043   1
   2  -4  18 2760.07 739.539  16
  -2   4 -18 960.354 309.093  11
  -4  -2  18 1971.14 730.389  16
   4  -2  18 1044.67 517.835   6
   4  -2  18 2055.16 578.950   8
  -2   4 -18 762.123 199.545  19
   4  -2  18 3014.99 603.468   2
  -2   4 -18 802.686 513.312  20
  -2  -4  18 2465.36 652.100   2
   2   4 -18 1451.66 432.082  11
  -2   4 -19 278.972 337.148   9
   4  -2  19 439.264 412.193  16
   2   4 -19 338.618 640.440  20
  -4  -2  19 780.631 246.637   5
  -2   4 -19 57.4617 345.589  20
  -4  -2  19 425.826 347.671  16
  -4   2 -19 51.2640 44.6162  19
  -2  -4  19 1242.02 479.988  17
   2   4 -19 576.132 447.381   9
   4  -2  19 533.052 334.425   8
   2   4 -19 89.7870 175.618   1
  -2   4 -19 494.312 286.424  11
  -2   4 -19-9.43316 202.853  10
   4  -2  19-255.015 634.748   6
  -2  -4  19 1535.82 697.979  16
   2  -4  19 452.793 50.1334  17
  -4  -2  19 443.044 234.474  17
   2  -4  19 777.937 285.658   8
   2   4 -19 330.507 256.204  18
  -2  -4  19 1367.41 577.616   2
   4   2 -19 120.867 99.3717   1
   2  -4  19 951.137 469.174   2
   4   2 -19 169.605 153.437  11
   4  -2  19 765.788 324.770   2
   4   2 -19-219.228 323.203  18
   2  -4  19 1013.72 551.633  16
  -4  -2  19 538.774 286.059   2
   2  -4  19 685.643 566.150   6
   2   4 -19 331.160 225.613  11
   2   4 -19 567.129 578.869  10
  -2   4 -20 337.826 162.631  11
   2   4 -20 595.545 419.682   9
   4  -2  20-73.9640 711.870   6
  -4  -2  20 2524.76 449.879   5
   4   2 -20 60.6401 114.783  11
   2  -4  20 1801.87 841.833   6
   4  -2  20 1418.55 490.123   8
  -2   4 -20 224.487 314.840  20
  -2   4 -20 228.044 165.531  10
   2   4 -20-315.884 686.052  20
  -4  -2  20 1857.69 511.313  17
  -4   2 -20-230.445 259.801  19
   2   4 -20 423.150 393.128  10
   2  -4  20 2328.12 444.223   8
  -4  -2  20 1961.09 781.001  16
   4  -2  20 2692.18 611.053   2
  -2  -4  20 2155.50 509.160  17
  -4  -2  20 2329.61 661.510   2
  -2  -4  20 2315.62 730.412  16
  -2  -4  20 2655.40 718.483   2
   2  -4  20 2792.32 769.719  16
   4   2 -20 299.645 234.527   1
   2   4 -20 873.540 310.368  18
   2  -4  20 2591.99 680.874   2
   2   4 -20 722.963 350.466  11
   4  -2  20 2349.40 818.953  16
  -2   4 -20 477.729 294.850   9
   4  -3   1-24.7279 118.312   8
  -4   3  -1 40.3954 30.3383  19
   4  -3   1 18.1152 71.1467  14
   4  -3   2 1186.45 272.284  14
  -4   3  -2 1482.46 330.563  12
   4  -3   2 1029.58 242.021   8
  -4   3  -2 1334.02 269.773  19
   4   3  -2 376.116 235.415   1
   4  -3   2 928.840 262.394   6
  -3   4  -3 83.0245 83.6523  12
   4   3  -3 204.619 191.558   1
   4   3  -3 238.988 219.194  13
   4  -3   3 214.627 114.683   6
   4   3  -3 131.289 108.142  18
  -4   3  -3 192.022 102.838  12
  -4  -3   3-27.5133 187.592   2
   4  -3   3 103.511 70.0423   8
  -4  -3   3 81.6577 111.516  17
  -4   3  -3 218.374 189.916   3
   4  -3   3 188.137 111.888  14
  -4   3  -3 193.156 106.011  19
   4  -3   4 663.721 171.612   8
  -4   3  -4 760.043 264.812   3
   4   3  -4 685.029 255.781   8
  -4  -3   4 209.814 141.770   2
  -4   3  -4 777.373 189.997  19
  -4  -3   4 368.730 230.899  17
   4  -3   4 847.848 179.406   1
   3   4  -4 659.459 306.647  13
   4  -3   4 756.886 220.272   6
  -4   3  -4 715.116 169.318   4
   3  -4   4 437.733 156.619   8
   4   3  -4 1037.01 333.969  18
  -4   3  -4 841.111 220.479  12
   4   3  -4 885.775 408.658   1
  -3   4  -4 887.524 245.087  12
   4   3  -4 881.825 281.407  13
   3  -4   4 417.586 183.602   6
  -4   3  -4 835.978 168.348   5
   4  -3   4 778.171 193.231  14
  -3   4  -4 798.665 348.804   3
  -4   3  -5 2623.05 332.174   4
   4  -3   5 2949.40 580.366  16
   4   3  -5 2843.02 450.364  13
   3  -4   5 2295.86 426.035  14
   4   3  -5 3375.73 543.059  18
   4  -3   5 2992.65 406.684   6
  -3   4  -5 2726.61 404.135  12
   4   3  -5 2310.15 437.369   3
   4  -3   5 2770.06 353.418  14
  -4   3  -5 2802.62 353.031  19
  -4   3  -5 2591.04 287.727   5
  -4  -3   5 1619.27 375.477   2
  -4   3  -5 2757.48 383.058  12
  -4  -3   5 1449.53 339.225  19
   4  -3   5 2954.62 292.626   1
   3  -4   5 2095.94 372.980   8
   3   4  -5 2522.33 551.129  18
   4  -3   5 2588.05 331.702   8
  -3   4  -5 3244.58 596.993   3
   3   4  -5 3451.59 691.127  13
  -4  -3   5 1710.51 436.409  17
  -4   3  -5 2801.18 464.670   3
   4   3  -5 2700.13 634.119   1
   3  -4   5 2108.33 400.992   6
  -4   3  -6 17.2694 49.7378  13
   3   4  -6 47.0968 70.7589  18
   3   4  -6-3.43884 18.4111  13
   3  -4   6 14.1146 70.1958   6
  -4   3  -6 30.0482 65.1569  12
   3  -4   6-7.03725 40.2397   8
   4  -3   6-3.68562 34.9917   6
  -3   4  -6 35.4938 90.4876   3
  -4  -3   6 1.91587 18.6180   2
   4   3  -6-12.4446 31.9724  13
  -4  -3   6 19.6166 30.4487  19
  -4   3  -6 0.07101 19.1981   5
  -3  -4   6-48.3568 135.671   2
  -3   4  -6 6.21647 44.9658  12
  -3   4  -6-149.127 316.368  13
  -3  -4   6 93.5545 133.616  17
   4  -3   6 22.9172 34.7929   1
   3   4  -6 4.71454 38.1893   3
  -4   3  -6 1.24693 43.8642   3
  -3   4  -6 7.32148 53.3857  19
  -4  -3   6-50.3256 110.497  17
   3  -4   6-4.02229 41.9523  14
   4   3  -6 31.0480 86.5865  18
   4   3  -6 63.8073 142.791   1
  -4  -3   6-2.85416 40.7647  16
   4   3  -6 25.9927 43.2373   8
   4  -3   6 28.2828 46.2451   8
  -4   3  -6 6.05631 53.9223   4
   4  -3   6 14.0470 70.9727  16
  -3  -4   6 18.2167 49.3225   6
   4  -3   6 32.7909 54.5637  14
  -4   3  -6 48.2591 73.8360  19
  -4  -3   6 9.20638 102.340   5
   4   3  -6 21.6324 48.9125   3
  -3   4  -7 3272.66 871.598  13
  -3  -4   7 2735.08 343.388   6
   4   3  -7 3369.79 618.751   1
  -3  -4   7 2199.99 412.731  16
   3  -4   7 3814.82 511.745   6
   3  -4   7 3760.45 667.632  16
  -4   3  -7 3038.42 429.071  12
  -3   4  -7 3505.33 446.690  12
   3   4  -7 3279.56 556.551  13
  -4   3  -7 3050.15 481.623   3
  -4   3  -7 3284.41 414.632   4
  -3  -4   7 2070.70 495.745   2
  -4   3  -7 2892.51 613.700  13
   4   3  -7 3537.97 228.227   8
   4  -3   7 3826.57 309.983   1
   4  -3   7 3225.52 382.566   8
   4  -3   7 4577.15 643.751  16
  -4  -3   7 3275.60 333.442  19
   4   3  -7 3416.19 370.809   3
  -4  -3   7 2972.86 519.996  17
  -3   4  -7 4384.05 490.981  19
  -4  -3   7 2574.71 562.859   5
   3  -4   7 3234.26 388.550   8
  -3   4  -7 3711.08 562.887   3
  -4  -3   7 2998.41 395.726  16
  -4  -3   7 2590.84 453.659   2
  -4   3  -7 3498.86 395.103  19
  -4   3  -7 3119.19 345.477   5
   4   3  -7 3879.95 533.000  18
   3   4  -7 4292.58 662.948  18
   4  -3   7 4140.84 522.420   6
  -3  -4   7 1981.66 532.965  17
   3   4  -7 3589.22 479.659   3
   3   4  -7 1091.65 473.834   1
   3  -4   7 3721.98 415.737  14
  -3   4  -7 3711.62 373.624   4
   4  -3   7 3607.14 393.917  14
   4   3  -7 3416.35 471.314  13
   3   4  -8 814.804 269.614  18
   3   4  -8 767.142 270.583  13
  -3  -4   8 677.390 175.531   6
  -4   3  -8 763.154 200.934   5
  -3  -4   8 566.529 264.501  17
  -3   4  -8 809.406 379.523  13
  -4   3  -8 607.376 219.140  13
  -4  -3   8 829.995 145.219  19
  -4   3  -8 733.790 199.194  19
  -4   3  -8 674.528 244.594   3
  -4  -3   8 716.129 200.103  16
   4  -3   8 893.537 209.196   1
   3  -4   8 828.354 221.437  17
  -4  -3   8 704.366 262.895   5
   3  -4   8 876.259 313.152  16
  -3   4  -8 878.994 186.975  18
  -3   4  -8 927.540 208.060  19
   4   3  -8 825.905 245.495  18
   4   3  -8 783.634 127.710  12
  -3   4  -8 808.331 259.436   3
   3   4  -8 792.042 218.313   3
   4  -3   8 874.084 251.501   6
  -4  -3   8 709.588 249.189  17
  -3  -4   8 567.403 248.435   2
  -4  -3   8 632.603 216.926   2
   4   3  -8 801.019 181.822   3
   3  -4   8 753.335 176.094   8
  -4   3  -8 757.088 128.979  11
  -4   3  -8 694.788 226.171  12
   3  -4   8 842.794 187.185  14
  -4   3  -8 645.629 208.042   4
   4   3  -8 788.252 296.614   1
   3   4  -8 443.490 237.925   1
  -4  -3   8-11.3117 82.7826   6
   3  -4   8 774.273 114.082   1
  -3  -4   8 614.857 213.151  16
   4  -3   8 1013.60 314.072  16
  -3  -4   8 527.468 147.300  19
  -3   4  -8 722.793 207.269  12
   3  -4   8 827.432 250.786   6
  -3   4  -8 856.639 185.767   4
   4  -3   8 867.702 205.445  14
   4   3  -8 1039.16 320.886  11
   3   4  -8 931.259 220.213  12
   4  -3   8 763.641 186.739   8
  -3   4  -8 792.765 131.222   5
   3   4  -9 1639.24 238.434  12
   4   3  -9 1597.09 277.358   3
  -4   3  -9 1043.04 325.265  13
   3   4  -9 1431.45 361.012  13
   4  -3   9 1889.10 428.695  16
  -4   3  -9 1310.19 261.231  19
   4   3  -9 1560.25 173.396  12
  -3   4  -9 1594.14 200.181   5
   4  -3   9 242.816 125.612   1
  -4   3  -9 1080.26 335.623   5
   4  -3   9 1684.50 294.216  14
  -4  -3   9 1384.25 371.377   5
  -4   3  -9 1410.63 202.541  11
   3   4  -9 1589.28 306.567   3
  -3   4  -9 1630.95 467.638  13
  -3  -4   9 1180.17 363.249   2
   3  -4   9 1722.48 361.697   6
   3  -4   9 1570.42 245.746  14
   4   3  -9 1774.32 397.590  11
  -3   4  -9 1323.33 339.622   3
   3  -4   9 1499.91 257.995   8
  -3  -4   9 1144.15 254.833   6
  -3   4  -9 1816.31 283.123  19
   4  -3   9 1094.55 298.457   2
   4  -3   9 1476.32 281.830   8
  -4   3  -9 1014.94 187.811  18
  -3   4  -9 1420.23 301.021  12
  -4   3  -9 1216.96 308.842  12
  -3   4  -9 1549.33 271.970   4
  -4   3  -9 1213.10 333.738   3
   3  -4   9 1742.43 238.644  17
  -3  -4   9 1295.27 372.028  17
  -4  -3   9 1448.21 354.204  17
   4   3  -9 1891.74 486.611  20
   4  -3   9 2040.67 245.982  17
  -4   3  -9 1240.24 328.378   4
  -3  -4   9 1231.92 301.530  16
   3   4  -9 1736.27 373.848  18
   3  -4   9 1682.81 439.465  16
  -4  -3   9 1498.83 193.181  19
  -3  -4   9 1170.91 146.998  19
  -4  -3   9 1387.15 286.723  16
   4  -3   9 2037.51 418.076   6
  -4  -3   9-78.7686 137.843   6
  -4  -3   9 1195.20 321.160   2
   4   3  -9 1511.19 328.041  18
   3   4  -9 1159.26 464.594   1
   4   3  -9 1261.98 358.714   1
  -3   4  -9 1389.19 179.877  18
  -4   3 -10 143.710 90.3490  10
   4  -3  10 18.2428 95.7028   6
   3  -4  10 279.323 195.510   6
   4  -3  10 18.7053 24.9884  16
  -4   3 -10 67.6707 68.9734  11
   3   4 -10 17.0945 38.7341   1
   4   3 -10 95.4644 60.6008  12
  -3   4 -10 17.4163 36.3450  12
  -3   4 -10 70.8639 52.3462  13
  -3   4 -10 75.0158 66.9619  19
   4   3 -10 163.287 110.786  11
   3   4 -10 147.974 180.868  15
   3   4 -10 106.105 88.2544  18
   3   4 -10 40.9078 49.1089   3
  -4  -3  10-14.7180 108.951   4
   4  -3  10 81.0399 45.1152  14
  -3  -4  10 64.8369 94.3062  17
  -3   4 -10 37.9473 39.8619   5
  -3   4 -10 64.5470 80.9959   3
  -3  -4  10 65.7448 111.203   2
  -4  -3  10-28.2882 134.097  19
  -3  -4  10 71.7109 82.0829  16
   4   3 -10 47.8689 91.5150   1
  -4   3 -10 34.1519 32.2609  19
   4   3 -10 199.129 213.395  10
   3  -4  10-242.404 321.177   2
   4  -3  10 99.0587 152.471   2
  -4   3 -10 13.4274 106.365   4
  -3   4 -10 70.5214 38.8249  18
   4   3 -10 101.793 105.350  18
  -4  -3  10 75.2232 85.8528  17
   3  -4  10 141.108 69.9840  17
   4   3 -10 42.0912 198.474  20
   3  -4  10 152.661 95.8304  14
  -3   4 -10 111.573 82.5631   4
   3   4 -10 146.161 165.023   7
   3  -4  10 98.7260 68.8692   8
  -4   3 -10 47.9649 68.1348  15
  -3  -4  10 59.0108 72.4954   6
   4  -3  10 76.2086 102.525  17
   3   4 -10 136.998 124.847  13
  -4  -3  10 16.8294 47.0196  16
   3   4 -10 108.955 64.6480  12
   3  -4  10 346.795 240.963  16
  -4  -3  10 51.7055 61.7124   2
  -4  -3  10 84.0109 13.5056   5
   4  -3  10 97.8752 79.4996   8
  -4   3 -10-45.2671 95.8238  20
  -4   3 -11 115.909 91.0312  11
   4   3 -11 175.433 97.9812  10
   4   3 -11 140.250 100.354  18
  -4  -3  11 184.339 132.457  17
   4   3 -11 185.311 115.684  11
  -4   3 -11 63.6107 172.558   7
   3   4 -11 130.293 100.805  13
   4   3 -11 47.7842 18.3963   1
  -4  -3  11 277.144 114.381   4
   3   4 -11 157.160 64.1536  12
   3   4 -11 198.880 121.336   3
   3   4 -11 160.595 102.293  15
  -3   4 -11 349.958 203.512   3
   3   4 -11 163.121 95.4601   7
   3  -4  11 43.2560 232.292   2
   3   4 -11 283.800 154.196  11
   3  -4  11 224.398 151.852   6
   4   3 -11 296.900 197.060  20
   3  -4  11 266.345 83.5366  17
  -3  -4  11 141.478 105.385  16
  -3  -4  11 106.943 52.8389   6
   4   3 -11 217.011 74.5436   9
  -4  -3  11 179.849 114.455   5
   3   4 -11 135.467 95.4504  18
  -4   3 -11 108.392 80.6486  19
  -4   3 -11 328.643 205.111   9
  -3   4 -11 288.099 225.546  13
  -3   4 -11 197.986 60.7333  18
  -3   4 -11 138.206 97.8925   4
  -4   3 -11 103.791 137.513   4
   4  -3  11 324.216 148.872   2
   3  -4  11 178.371 77.4805   8
   4  -3  11 208.356 141.831  14
   3  -4  11 203.252 167.339  16
  -3  -4  11 155.838 97.0972   2
  -3  -4  11 122.024 102.271  17
  -4   3 -11 360.529 230.596  15
  -3   4 -11 339.242 114.277  19
   4  -3  11 146.906 70.7087   8
   4  -3  11 268.893 138.039   6
  -3   4 -11 348.104 202.572  12
  -4  -3  11 177.908 110.082   2
  -3   4 -11 206.181 82.0006  11
   4  -3  11 284.740 165.608  16
  -4  -3  11 176.863 110.707  16
  -4   3 -11 203.636 106.245  20
   3   4 -11 129.674 177.927   1
   3  -4  11 192.682 89.2470  14
  -4   3 -11 103.759 141.447  10
  -4  -3  12 712.618 273.269  16
  -4   3 -12 1447.51 641.900   7
  -4  -3  12 769.328 326.926   2
   3   4 -12 786.942 185.163  12
   4   3 -12 384.923 193.643   1
   4  -3  12 1230.73 317.278   2
   3   4 -12 538.041 196.780   3
  -4  -3  12 951.180 297.774   5
   3   4 -12 1374.25 417.069  11
  -4   3 -12 1041.60 429.115  15
  -3  -4  12 2399.33 777.725   5
  -3  -4  12 908.434 400.962   2
   4   3 -12 1522.25 524.273  20
   4  -3  12 1616.46 503.164  14
   4   3 -12 1117.99 445.891  10
  -4  -3  12 756.714 208.247   4
   4   3 -12 944.634 407.759   9
   3   4 -12 998.734 492.961   1
   3   4 -12 1093.43 315.308  18
  -4  -3  12 932.251 310.020  17
  -3  -4  12 1040.13 341.130  16
   3   4 -12 1869.90 789.434  15
   4  -3  12 1970.02 511.170   6
  -3  -4  12 1169.76 380.359  17
   3   4 -12 2150.32 769.184   7
   4   3 -12 427.642 193.402  11
   4   3 -12 461.858 190.560  18
   4   3 -13 20.5408 47.5807  18
   3  -4  13-84.0012 165.026   6
  -4  -3  13 23.6906 19.9630  16
  -3   4 -13 169.935 191.690  13
  -3  -4  13-16.5079 39.2082   2
   3   4 -13 33.9842 46.1391  12
  -4   3 -13 3.96579 139.472   7
  -3   4 -13-30.8064 58.7086  19
  -3   4 -13 89.3374 38.4093  11
  -3  -4  13 3.04874 88.8433  17
   3   4 -13 130.775 151.891   3
  -3  -4  13 155.308 178.348   5
   4  -3  13-2.29761 50.1869   2
   3   4 -13 116.326 163.795  10
   4   3 -13 45.0867 80.9559  11
  -4   3 -13 79.7475 101.168  11
  -3   4 -13 19.2061 79.4055  10
   3   4 -13 83.2694 122.489  11
   4  -3  13 130.647 113.843   8
  -3   4 -13-87.7070 151.848  15
  -3   4 -13 73.9486 72.5350  18
   3  -4  13 42.9214 79.9814  14
  -4   3 -13 114.437 166.372  10
   4   3 -13 115.198 83.7549  20
   3  -4  13 64.1619 68.3209   8
   3  -4  13 67.0761 40.2660  17
   3  -4  13 39.5044 49.4979  16
  -3   4 -13 23.8709 67.5280  20
  -3  -4  13-16.1766 71.6870   6
   4   3 -13 375.743 291.473   9
  -4   3 -13 41.5408 56.6476  19
  -4  -3  13 3.22431 40.1235  17
   3   4 -13 17.1543 47.8798  18
  -4   3 -13 125.679 227.497  15
   4  -3  13 21.5624 85.0506  16
  -4   3 -13 90.9857 107.163   9
  -4  -3  13 14.3925 65.1799   2
  -3  -4  13-15.4564 60.4633  16
   3   4 -13 101.016 110.456   1
   3  -4  13 173.164 214.219   2
  -3   4 -13 3.19456 136.098   7
   4   3 -13 27.4966 51.7729   1
   3   4 -13 80.3716 53.6233  20
  -4  -3  13 2.05050 59.9748   5
  -4   3 -13 152.931 180.998  20
   4  -3  13 136.874 76.4206  14
   4   3 -13 249.351 273.284  10
  -4  -3  13 57.2024 52.8826   4
   4  -3  13 69.4242 152.704   6
  -3   4 -13 134.371 154.648  12
  -4   3 -14 227.864 192.907   9
   4   3 -14 366.314 294.819   9
   3   4 -14 559.685 189.742  12
  -3   4 -14 262.787 243.235   7
   4   3 -14 101.912 291.266  20
  -4   3 -14 278.505 146.716  19
  -3  -4  14-103.809 91.3485   6
  -3  -4  14 660.707 357.545   5
   4   3 -14 406.073 214.512  11
   3  -4  14 527.135 274.102   6
  -4   3 -14-281.248 245.144  11
  -4   3 -14 329.923 280.254  10
  -3   4 -14 246.550 195.088  10
   3   4 -14 312.673 294.355  10
   3   4 -14 622.914 395.040   9
   4   3 -14 339.802 176.164   1
   4  -3  14 314.082 150.628  14
  -3   4 -14 609.362 299.040   9
   4   3 -14 356.570 304.706  10
  -3   4 -14 314.978 139.907  18
  -3   4 -14 392.969 136.200  19
   3   4 -14 446.164 195.350  18
  -3   4 -14 218.814 213.352  15
   4  -3  14 655.202 331.303  16
  -4  -3  14 391.421 115.615   4
   4  -3  14 638.057 209.288   8
   3  -4  14 502.648 159.077   8
   3  -4  14 686.646 277.767   2
   3   4 -14 371.422 215.083  11
  -3  -4  14 379.488 211.817   2
   3  -4  14 530.982 290.834  16
  -3  -4  14 404.827 199.783  17
  -4  -3  14 485.217 199.117   5
   3  -4  14 614.362 177.936  17
   4  -3  14 604.763 217.457   2
   3   4 -14 452.950 272.645   1
   3  -4  14 574.547 289.181  14
  -3  -4  14 455.760 216.244  16
  -4   3 -14 103.758 169.407   7
  -4  -3  14 426.204 223.912   2
  -3   4 -14 294.817 285.154  20
  -4   3 -14 170.132 102.864  15
  -4  -3  14 564.826 303.190  16
   4   3 -14 304.283 179.112  18
  -4   3 -14 388.054 290.076  20
  -3   4 -14 453.021 180.881  11
  -4  -3  14 365.065 201.195  17
   4  -3  14 650.882 355.080   6
   3   4 -14 240.575 317.453  20
   4  -3  15 32.9499 95.5688   2
   3  -4  15 150.029 237.977  14
   3   4 -15 41.5641 96.4362   1
  -3   4 -15 84.6295 236.627  20
  -3   4 -15-10.0035 66.8613  18
   4   3 -15-34.3898 102.917  11
  -4   3 -15 11.1249 83.2847  19
  -4   3 -15-2.86455 116.103  20
   3  -4  15 9.89011 58.4260   8
   3   4 -15 112.055 281.008  10
   4   3 -15 128.515 192.425   9
  -4   3 -15-51.9526 131.433  10
   3   4 -15-68.3235 77.1569  18
   3  -4  15 3.49635 17.6528  16
   3   4 -15 159.711 194.214   9
  -3  -4  15 25.0749 247.231   6
  -3  -4  15-21.9459 79.3748   2
   3   4 -15-101.234 144.865  11
  -3   4 -15 23.7793 27.3596  19
   3  -4  15 26.5300 23.3086  17
  -3   4 -15 28.8958 73.1130  11
  -4   3 -15-59.2542 350.757   7
  -3   4 -15-24.9920 107.038  10
   4   3 -15-10.6848 36.9848  18
   4  -3  15 37.8310 171.541   6
   4   3 -15-208.430 333.370  10
  -4   3 -15-317.768 406.137  15
  -4  -3  15 6.37995 27.8335   4
  -3   4 -15-2.44436 27.8785  15
  -3  -4  15 51.2862 96.1373  17
   4  -3  15 35.9884 78.5341   8
   4   3 -15-88.9931 144.577   1
  -3   4 -15 116.873 182.233   9
  -4   3 -15-48.7484 140.867   9
   4  -3  15-105.674 146.333  16
  -3   4 -15 26.0419 124.731   7
  -4  -3  15-48.6577 86.5884   2
  -4  -3  15-38.8613 56.4695  17
   3   4 -15 46.0073 109.741  20
  -3  -4  15-29.2523 120.203   5
  -4  -3  15 30.5890 86.1465   5
  -4  -3  15-66.6746 98.4067  16
   3  -4  15 69.4590 98.2736   2
  -3  -4  15-60.7148 66.6287  16
   3  -4  15 108.572 152.151   6
   4   3 -15-15.6787 365.140  20
   4  -3  16 88.9535 119.633   2
  -3   4 -16 114.745 140.638   9
  -3   4 -16 26.1838 334.313  15
   4   3 -16 196.385 162.400   9
   3   4 -16 35.5294 83.4382  11
   3   4 -16 217.107 298.337  10
  -3  -4  16 329.872 197.678   5
   4   3 -16-419.703 740.758  20
   4   3 -16 82.2816 84.4083  11
  -4   3 -16 120.637 233.036  10
  -3   4 -16 34.0716 23.6385  11
   3   4 -16 108.391 431.966  20
   4  -3  16-43.5977 169.782  16
  -4  -3  16 104.158 78.2845  17
  -4  -3  16 201.289 131.674   5
   4  -3  16 128.022 90.7954   8
  -4  -3  16 192.647 193.113  16
  -3  -4  16 138.593 165.692   2
  -3   4 -16-163.387 274.715  18
   3   4 -16 100.596 63.4303  18
  -4   3 -16 67.5600 131.754   9
  -3   4 -16 209.055 231.229  10
  -3  -4  16 157.658 149.036  17
   3   4 -16-75.5013 24.2625   1
  -4  -3  16 80.1580 54.9186   4
  -4   3 -16 77.8309 135.050  19
   3  -4  16 169.683 96.6330   8
   3  -4  16 182.294 198.786   2
   4   3 -16-192.432 194.091  10
   3  -4  16 125.600 49.8652  17
  -3   4 -16 58.1622 162.271   7
  -3   4 -16 166.007 229.135  20
  -4  -3  16 118.330 82.2197   2
   3  -4  16 218.666 225.993  16
  -3  -4  16 106.693 105.147  16
   4   3 -16-61.8799 128.157   1
   4   3 -16 87.3155 109.938  18
   3   4 -16 227.729 254.632   9
   4  -3  16 219.084 278.519   6
  -3   4 -16 40.9288 62.9218  19
   3  -4  16 26.5673 156.703   6
  -3   4 -17 350.125 186.987   9
  -4   3 -17 273.667 215.450  20
   4   3 -17 584.711 295.538  11
  -3  -4  17 970.789 306.669  17
   3   4 -17 538.532 358.225   9
   3   4 -17 375.538 532.997  20
  -3   4 -17 454.965 359.668  20
  -3   4 -17 356.518 303.411  10
   3   4 -17 523.917 292.670   1
   3   4 -17 683.435 269.276  18
  -3  -4  17 1416.55 429.268   5
  -4   3 -17 201.060 147.697  19
   4   3 -17 593.462 254.249  18
   4  -3  17 1115.82 344.732   8
  -4  -3  17 1289.73 408.637  17
  -4  -3  17 1332.34 334.960   5
  -4   3 -17 220.831 135.543   9
   4   3 -17 296.410 169.304   1
  -4  -3  17 877.925 437.123  16
   3   4 -17 725.813 388.547  10
   4  -3  17 1263.98 362.575   2
   3  -4  17 1041.65 514.382   6
  -3   4 -17 581.013 236.196  11
   3  -4  17 1290.53 443.840   2
   4   3 -17 273.884 527.446  10
   3  -4  17 869.411 191.971  17
  -3  -4  17 974.328 397.664  16
   3  -4  17 1112.21 488.469  16
   4  -3  17 1441.28 580.438  16
  -4  -3  17 1097.96 439.849   2
  -3   4 -17-109.772 434.712  15
  -3   4 -17 301.890 129.100  19
  -3  -4  17 869.241 382.237   2
   4  -3  17 503.828 320.544   6
  -4   3 -17 350.007 296.750  10
  -3   4 -17-319.203 522.240   7
   3   4 -17 461.346 283.418  11
   4   3 -17 541.662 490.728   9
   3  -4  17 932.273 258.357   8
  -3   4 -18 177.174 185.846   9
  -3   4 -18-38.8728 182.677  20
   3   4 -18 224.509 514.736  20
   4  -3  18 595.979 362.383   6
   4   3 -18 219.216 138.451   1
  -3   4 -18 269.455 132.916  19
   3   4 -18 508.996 295.767  11
  -3  -4  18 1146.66 357.305   5
   4   3 -18 422.124 259.427  11
  -3   4 -18 268.128 183.256  11
   3   4 -18 290.192 185.863   1
   3  -4  18 838.549 266.483   8
  -4   3 -18-134.863 400.632   9
  -3  -4  18 905.671 404.117   2
  -3  -4  18 730.878 294.657  17
  -4   3 -18 44.3648 151.930  10
   3   4 -18 540.846 253.711  18
  -4  -3  18 890.072 346.312  17
  -4   3 -18-89.1880 142.338  19
  -4  -3  18 544.078 308.064  16
   4  -3  18 900.732 335.288   8
   4   3 -18 237.763 143.091  18
   3   4 -18 198.959 415.126  10
   4   3 -18-126.940 372.508  10
   3  -4  18 1029.98 447.500   2
  -4  -3  18 1038.96 286.292   5
  -4   3 -18-69.8763 366.322  20
   4  -3  18 1005.08 341.715   2
   3  -4  18 964.140 445.312  16
  -3  -4  18 684.601 313.727  16
   4  -3  18 1129.27 526.421  16
   3  -4  18 727.937 454.377   6
  -4  -3  18 708.839 380.778   2
   3   4 -18 664.561 424.322   9
  -3   4 -18 33.0167 35.9757  10
   4   3 -18 487.996 497.240   9
  -3   4 -19 466.151 169.533  11
  -3  -4  19 2621.69 702.938   2
   3  -4  19 2920.70 521.828   8
  -3  -4  19 2535.43 561.646  17
   3   4 -19 847.923 363.950   1
  -4   3 -19 119.811 124.978  19
   3  -4  19 3557.54 733.553   2
   4  -3  19 3280.28 639.833   2
   3   4 -19 1357.81 444.926  11
  -4  -3  19 2348.38 650.967   2
   4   3 -19 1160.60 448.956  11
   4   3 -19 1095.48 399.390  18
  -3   4 -19 974.600 415.467   9
  -4   3 -19-341.815 531.542  20
   4  -3  19 2486.31 584.813   8
   3  -4  19 2432.74 878.163   6
   3   4 -19 330.901 278.435  20
  -3   4 -19 867.195 380.622  10
   4   3 -19 57.6365 320.652  10
  -3   4 -19 500.411 475.237  20
   4   3 -19 633.124 385.542   9
  -4   3 -19 206.375 100.694  10
   3   4 -19 758.353 496.331   9
  -4  -3  19 2767.95 786.752  16
   3   4 -19 1156.96 579.222  10
   4  -3  19 2971.89 799.469  16
  -4  -3  19 2928.03 503.342   5
   4  -3  19 2510.82 839.949   6
   3  -4  19 2808.00 772.455  16
  -3  -4  19 2355.86 674.888  16
   3   4 -19 1388.30 376.488  18
  -4  -3  19 2732.99 626.235  17
   4   3 -19 580.467 267.795   1
   4  -4   3-33.6621 68.6426   6
  -4   4  -3-26.1705 73.4248  12
   4  -4   3-86.9952 199.827   8
   4   4  -4 124.851 42.8738  13
  -4   4  -4 127.012 211.086   3
  -4   4  -4 126.803 104.922  12
   4  -4   4 68.5841 54.2627   6
   4   4  -4-46.6468 171.563  18
   4  -4   4 76.6514 39.3471  14
  -4  -4   4 38.7049 73.9333  17
  -4   4  -4 123.297 77.3194  19
   4  -4   4 85.4919 65.6851   8
   4  -4   5 13.5829 14.9391  14
  -4  -4   5 46.8450 69.6774  17
   4   4  -5 31.7141 60.9471   1
   4   4  -5-0.59395 78.3764  13
   4  -4   5 18.8574 33.2834   8
   4   4  -5 2.93842 36.8943  18
  -4   4  -5 12.7995 20.7507   3
  -4   4  -5-15.2503 70.1935  12
   4  -4   5-19.6405 25.3076   6
  -4   4  -5-10.2601 41.5250  19
  -4   4  -6 2227.19 373.776  12
  -4   4  -6 2385.84 295.929   5
  -4  -4   6 1035.00 211.083   6
  -4   4  -6 2120.31 320.441   4
   4   4  -6 1814.94 455.442   3
   4   4  -6 2578.07 551.924  18
  -4  -4   6 750.721 286.824   2
   4  -4   6 1989.58 395.471   6
   4   4  -6 1525.09 590.914   1
  -4  -4   6 733.301 332.217  17
   4  -4   6 2102.46 347.386  14
   4   4  -6 2177.69 467.505  13
  -4   4  -6 2420.27 376.290  19
  -4   4  -6 2143.34 476.379   3
   4  -4   6 1988.28 324.435   8
  -4  -4   7 4.00520 2.31146  19
   4   4  -7 20.0511 32.3278   3
  -4   4  -7-23.6611 93.2945  13
   4   4  -7 17.6061 21.9857  13
  -4  -4   7 0.23293 15.4232   6
  -4   4  -7-7.56993 18.4999   5
  -4   4  -7 16.8670 75.5865   3
   4   4  -7 40.8642 124.564  18
   4  -4   7-6.94957 30.0518   1
   4  -4   7-12.9136 49.8923   6
  -4   4  -7 12.2732 64.5197  19
   4   4  -7 16.9810 120.453   1
   4  -4   7 5.01998 32.5895   8
  -4  -4   7-116.174 188.159  17
   4  -4   7-117.208 242.466  16
   4  -4   7 2.07409 31.4854  14
  -4   4  -7 10.7398 25.0306  12
  -4   4  -7-17.0283 39.9519   4
  -4  -4   7 55.3381 102.280   2
   4   4  -7-29.6073 60.7159   8
   4   4  -8 2486.12 456.544  13
  -4   4  -8 2372.15 394.949  12
  -4   4  -8 2636.25 365.687   4
   4   4  -8 2401.69 702.836   1
  -4   4  -8 2634.47 280.746   5
  -4   4  -8 2374.00 700.118  13
  -4  -4   8 1448.60 401.542   2
  -4   4  -8 2304.20 262.471  18
   4  -4   8 2599.47 234.532   1
  -4   4  -8 2818.59 380.549  19
   4   4  -8 2977.51 537.324  18
  -4  -4   8 1589.85 443.478  17
   4  -4   8 2618.66 341.121  17
  -4   4  -8 2211.19 447.764   3
   4  -4   8 2727.86 458.155   6
   4  -4   8 2637.98 353.960  14
   4  -4   8 2878.67 606.479  16
   4   4  -8 2582.65 399.924   3
   4  -4   8 2378.30 348.301   8
  -4  -4   8 1792.28 361.720  16
  -4  -4   8 1572.02 247.213   6
  -4  -4   9 25.8990 50.2751  19
  -4   4  -9 78.6675 123.709  13
  -4   4  -9-9.23993 18.2686  12
   4   4  -9 40.9051 68.8698   3
  -4   4  -9-16.3944 77.0278   3
   4  -4   9 18.0188 17.2912  14
   4   4  -9-71.4401 143.742  12
   4  -4   9 44.7942 76.9755  16
  -4   4  -9-6.56501 31.9440   5
  -4   4  -9-7.42369 14.6360  18
   4   4  -9 93.8823 165.762   1
  -4  -4   9 13.6620 124.076   2
  -4   4  -9 18.7650 50.1071   4
   4   4  -9 6.70416 60.2983  18
   4  -4   9-18.9197 46.9871   8
   4   4  -9 7.83015 40.3638  13
   4  -4   9 30.1616 41.0400   1
   4  -4   9 21.3057 27.8564  17
   4  -4   9-28.4557 84.8199   6
  -4  -4   9 16.8347 58.7457  16
  -4  -4   9 28.0397 80.1831   6
  -4   4  -9-31.7001 47.2655  19
  -4  -4   9-17.5210 72.5576  17
  -4  -4  10 934.456 259.189  16
   4   4 -10 1030.67 355.048   7
   4   4 -10 1000.77 284.221  13
  -4   4 -10 718.043 312.043  13
   4   4 -10 1106.72 189.990  12
  -4   4 -10 808.222 242.065  12
  -4   4 -10 861.590 285.099   3
  -4   4 -10 1099.80 245.231   5
  -4   4 -10 1008.78 165.653  11
   4  -4  10 1048.33 221.145   8
  -4   4 -10 902.377 252.498   4
  -4   4 -10 863.376 120.910  18
  -4   4 -10 1034.26 223.400  19
  -4  -4  10 848.863 136.236  19
   4  -4  10 1127.77 152.579  17
   4  -4  10 1107.43 368.009  16
  -4  -4  10 739.150 284.378  17
  -4  -4  10 306.225 172.369   6
   4  -4  10 1062.03 228.583  14
  -4  -4  10 697.945 274.791   2
   4  -4  10 1133.56 325.014   6
   4   4 -10 1186.76 305.851  15
   4   4 -10 1035.65 402.471   1
   4   4 -10 1023.35 247.281   3
   4   4 -10 1154.85 323.815  18
  -4  -4  11 542.788 172.475  19
   4  -4  11 1371.40 430.507  16
  -4   4 -11 694.082 191.933  11
  -4   4 -11 540.535 128.483  18
   4  -4  11 356.278 159.615  14
  -4  -4  11 1401.68 522.412   5
   4   4 -11 335.490 187.954   3
  -4  -4  11 615.700 245.826   2
  -4   4 -11 1325.85 417.474   4
   4   4 -11 358.261 132.952  12
   4  -4  11 402.794 195.344   2
   4   4 -11 253.766 224.194  18
  -4  -4  11 1689.10 681.954   6
   4   4 -11 816.679 387.558  11
   4  -4  11 1397.94 425.893   6
   4   4 -11 2632.51 775.182  20
  -4  -4  11 512.886 160.140  16
  -4   4 -12-7.65730 42.3524  19
   4   4 -12 98.0773 64.3097  12
  -4   4 -12-102.312 149.996  20
  -4   4 -12 14.5354 50.6748  12
   4   4 -12 149.482 183.849  10
   4  -4  12 44.7762 39.8384   8
  -4   4 -12 34.7744 92.0991  13
   4  -4  12 76.0234 39.6990   6
  -4  -4  12 134.285 207.824   5
   4   4 -12 42.0002 49.9602  18
  -4   4 -12 40.3716 16.0332   4
  -4   4 -12 76.0509 38.2818  18
  -4  -4  12 63.5412 102.576   2
  -4  -4  12 159.919 150.729  17
   4   4 -12-11.2413 105.639   1
   4  -4  12 17.7936 117.886   2
  -4   4 -12 79.7224 62.2542  11
   4  -4  12 94.3549 52.6251  17
   4  -4  12 170.155 174.233  16
   4   4 -12-149.164 297.859  20
  -4   4 -12 74.5247 107.899   3
  -4  -4  12 60.3786 82.1154  16
   4   4 -12 124.107 134.398  11
  -4   4 -12 66.8121 91.1029  15
   4   4 -12 116.217 141.912   3
   4  -4  12 142.877 87.7857  14
  -4  -4  12 105.254 152.913   6
  -4   4 -13 267.470 213.183  13
  -4   4 -13 61.1211 84.4492  10
  -4   4 -13 64.9950 122.057   3
   4   4 -13 43.7605 89.7270  11
  -4  -4  13-86.6848 71.5975   5
  -4   4 -13 7.28885 48.0951  11
   4   4 -13-74.8470 195.081  20
   4   4 -13 107.873 196.307   1
   4   4 -13-20.6906 15.6187  12
   4   4 -13 4.85399 68.9356  18
  -4   4 -13-11.6565 78.7566  18
   4   4 -13-9.80498 84.5569   3
  -4   4 -13-10.8071 30.3146  19
  -4  -4  13-8.16466 45.6390   2
   4  -4  13 57.3004 82.8029   8
  -4   4 -13 105.075 143.522  12
  -4  -4  13-7.14507 59.9661  16
   4  -4  13 144.691 180.923   2
  -4   4 -13 60.8760 100.359  20
   4  -4  13-5.78140 73.0563  16
   4   4 -13 138.280 158.846  10
  -4  -4  13-63.9246 111.261  17
  -4   4 -13-462.218 439.741   4
   4  -4  13 16.8196 74.5242  14
  -4   4 -13 11.5278 146.091  15
  -4   4 -13 94.0317 159.101   7
   4  -4  13-19.1842 37.5960  17
   4  -4  13-35.4341 107.259   6
  -4  -4  13-127.581 223.201   6
   4   4 -14 130.020 168.614   3
   4   4 -14 113.457 194.684  20
   4  -4  14 97.8260 130.949  16
   4   4 -14 237.733 239.814   1
   4   4 -14-15.9581 82.2170  18
  -4  -4  14 58.9809 172.837   5
  -4   4 -14 73.3910 79.4224  11
  -4   4 -14 77.9786 63.6376  19
  -4  -4  14-438.576 427.653   6
   4   4 -14 124.709 196.264  10
   4   4 -14 13.5803 82.5682  11
  -4  -4  14 116.306 142.431   2
  -4   4 -14 116.162 127.859  10
   4  -4  14 41.4379 146.984   6
   4   4 -14 401.293 333.795   9
  -4  -4  14 55.6581 26.3476  17
  -4  -4  14 41.3885 29.3484  16
   4  -4  14 64.2742 53.8571  17
   4  -4  14 15.6763 118.345  14
  -4   4 -14 44.0595 174.218  15
   4   4 -14 39.1068 52.5965  12
   4  -4  14 90.5271 83.0304   8
  -4   4 -14 78.6896 132.493   7
  -4   4 -14 140.032 185.601  13
  -4   4 -14 274.287 223.726   9
  -4   4 -14 67.3810 98.5281  20
   4  -4  14 53.8458 76.8861   2
  -4   4 -15 21.1909 106.443  10
  -4  -4  15-2.78442 120.231  16
  -4   4 -15 111.438 58.5479  20
   4  -4  15 130.140 220.509   6
   4   4 -15 162.193 148.414   1
  -4  -4  15 98.0624 147.073   5
  -4   4 -15 24.9122 57.5707  11
   4   4 -15-88.5663 224.375  20
   4   4 -15 103.026 246.116  10
  -4  -4  15 50.0133 61.0863  17
   4   4 -15 262.167 324.203   9
   4   4 -15 103.910 115.767  18
   4  -4  15 37.1756 21.6169  14
   4  -4  15 94.6793 93.3212   2
   4  -4  15-65.5913 69.2905   8
   4   4 -15 56.8930 94.8994  11
  -4   4 -15 59.2391 124.192   9
   4  -4  15 49.4075 63.4922  16
  -4  -4  15 37.1219 61.2125   2
  -4   4 -15-68.7739 154.416   7
  -4   4 -15-8.39172 32.4539  19
  -4   4 -15 188.704 207.261  15
   4   4 -15 64.9521 88.0984  12
  -4  -4  16 21.7871 48.6494   5
  -4   4 -16 162.039 234.241  10
  -4   4 -16 53.6396 71.2864  19
  -4  -4  16-1.73182 102.139   2
   4  -4  16 235.073 344.748  14
   4   4 -16 349.093 331.707   9
   4  -4  16 113.609 120.500   8
  -4  -4  16 66.6210 115.690  16
   4   4 -16 95.0621 173.882   1
   4   4 -16 74.3915 154.022  11
  -4   4 -16 161.906 149.741  11
  -4   4 -16 470.092 391.486  20
   4  -4  16 84.9803 203.437  16
   4   4 -16 220.137 357.582  10
   4  -4  16 164.339 158.677   2
  -4  -4  16 103.476 123.593  17
   4  -4  16 188.937 184.225   6
   4   4 -16 516.688 604.772  20
  -4   4 -16 156.056 227.858   7
  -4   4 -16 93.8092 172.743   9
  -4   4 -16 9.77824 80.5521  15
   4   4 -16 167.547 153.926  18
  -4  -4  17 82.6990 113.641  17
  -4  -4  17-99.4185 105.834  16
   4   4 -17 522.998 516.814  10
  -4   4 -17-25.0631 48.9326  19
   4   4 -17 82.1259 375.603  20
  -4   4 -17 100.335 175.503   9
   4   4 -17 210.126 222.890  11
  -4  -4  17 209.554 173.032   5
  -4   4 -17 58.4970 85.7818  11
  -4  -4  17 54.2618 129.520   2
  -4   4 -17 87.1187 165.606  10
   4  -4  17 102.043 95.9684   6
   4  -4  17-30.0004 31.3181   8
   4  -4  17-15.5406 60.1744   2
   4   4 -17-18.1335 59.9230  18
  -4   4 -17-71.7434 230.612  20
  -4   4 -17-210.360 400.521   7
   4   4 -17-11.9262 35.7722   1
   4  -4  17 68.7993 24.5297  16
   4   4 -17 215.292 306.590   9
  -4   4 -17-358.559 441.441  15
  -4   4 -18 402.354 170.220  19
   4  -4  18 2420.52 634.973   2
  -4   4 -18 617.924 310.403   9
  -4  -4  18 2456.25 616.850   5
   4  -4  18 1558.08 667.025   6
   4   4 -18 1578.69 503.282  11
  -4   4 -18 60.0114 86.2162  11
  -4   4 -18 267.031 340.791  20
   4   4 -18 848.194 598.045   9
   4   4 -18 1218.79 394.765  18
   4   4 -18-520.734 517.829  20
  -4  -4  18 2396.26 589.325  17
  -4  -4  18 1594.43 582.551  16
   4  -4  18 2687.73 750.420  16
   4   4 -18 768.441 586.760  10
   4   4 -18 613.281 335.754   1
  -4   4 -18 727.966 377.347  10
  -4  -4  18 1681.13 577.529   2
   4  -4  18 2051.52 443.111   8
   4  -4  19 1.23889 34.8317   8
  -4   4 -19-51.0276 211.882  10
  -4   4 -19-26.8974 66.3758   9
   4   4 -19-136.503 211.429   1
   4   4 -19-54.3214 47.9152  18
   4   4 -19-47.1308 119.095  11
  -4  -4  19-77.1126 137.491   5
  -4  -4  19 135.225 256.983  16
   4   4 -19-154.721 276.943   9
   4  -4  19-299.946 311.507   6
   4  -4  19 19.7230 138.850   2
   4   4 -19-764.813 583.012  10
  -4  -4  19-18.3745 149.591  17
  -4   4 -19 107.777 234.744  20
  -4  -4  19-36.6621 182.231   2
   4  -4  19-298.601 363.298  16
  -4   4 -19 17.4673 51.1196  19
  -5   0   0 1.89488 17.9150   3
   5   0   0 13.5578 23.5748   6
   5   0   0 0.49509 18.5806   1
   5   0   0-1.15581 21.9663   8
   5   0   0-7.23340 17.4334  14
   5   0   0 8.48081 40.1734  18
  -5   0   0 14.0631 47.5234   5
  -5   0   0 0.88744 6.05391   2
  -5   0   0 6.01135 5.89273   4
   5   0   0-2.09431 24.3058  11
  -5   0   0 39.1031 61.2916  19
  -5   0   0 2.87310 18.7212  12
  -5   0   0 17.7349 23.8674  17
  -5   0  -1 197.092 116.928   4
  -5   0  -1 202.490 107.725   5
   5   0   1 309.464 124.687   6
  -5   0  -1 187.555 111.222  19
   5   0  -1 273.962 104.485   8
   5   0  -1 289.041 125.002  14
   5   0  -1 368.623 133.986  11
  -5   0   1 204.221 74.6595   2
   5   0   1 287.912 126.510   8
   5   0   1 295.911 101.081  18
  -5   0  -1 228.978 87.8022   2
   5   0  -1 338.301 117.051  18
   5   0   1 292.730 129.612   1
  -5   0   1 205.780 99.7947  17
  -5   0   1 220.322 100.548   4
  -5   0   1 241.109 91.1077  12
   5   0  -1 288.091 84.8532   6
  -5   0  -1 179.636 76.2589  17
   5   0   1 376.240 104.090  11
   5   0  -1 245.850 107.042   1
  -5   0   1 211.971 101.843   5
   5   0   1 268.896 133.375  14
  -5   0   1 158.707 87.9913  19
   5   0   2-28.6249 59.7543   6
   5   0   2 12.6706 39.6215   1
  -5   0  -2 51.9036 92.4719   7
   5   0  -2-25.9694 49.5672   1
  -5   0   2 11.1198 23.3416  12
   5   0  -2-17.6557 38.6448  11
  -5   0  -2-19.9100 58.0934   5
   5   0  -2-9.65890 27.5366   8
   5   0   2-3.54967 15.5946  18
  -5   0   2-0.75735 22.8515  19
  -5   0  -2-22.7527 27.3443  17
  -5   0   2-3.11685 32.4680   5
   5   0  -2-13.1731 18.3158  18
   5   0   2-11.1895 33.9417   8
   5   0   2 15.4765 18.7305  14
  -5   0   2-0.24922 32.5236  17
  -5   0   2 10.4176 33.0601   2
  -5   0   2-15.9132 42.9528   4
  -5   0  -2 3.86148 48.9495  15
  -5   0  -2 6.74372 22.2858   4
   5   0  -2 9.08631 20.9716   6
  -5   0  -2-22.7166 57.5674  19
   5   0   2-3.92530 6.18792  16
   5   0  -2 2.86774 26.3957  14
  -5   0  -3 4.73430 14.4206  17
   5   0  -3-11.5283 19.6228   6
  -5   0  -3 32.0932 84.5283  15
   5   0   3-48.6668 86.1371   8
  -5   0  -3-2.92141 54.4365   5
   5   0  -3-38.9616 68.4142  11
   5   0  -3 1.73771 22.0733   8
   5   0  -3 13.6792 41.1311   1
  -5   0  -3 3.00597 57.6686  19
  -5   0   3-0.27108 24.3192  19
   5   0   3 6.35934 16.5764  18
   5   0  -3-4.06881 14.5233  18
  -5   0  -3 34.8574 48.4096   7
  -5   0   3 10.2454 0.97687  17
   5   0   3 90.6700 133.879   1
  -5   0   3 10.9174 49.5677   5
  -5   0   3 10.6072 46.9497   4
   5   0   3-13.5546 71.7747  14
   5   0   3 22.2152 57.4733  16
  -5   0   3-10.1642 29.3603   2
  -5   0  -3 20.3446 31.0937   4
   5   0   3 26.6280 44.0989   6
   5   0  -3 5.50752 27.1527  14
  -5   0   4 74.7453 76.4705   2
   5   0  -4 187.382 201.376  11
  -5   0  -4-40.4344 100.050   5
  -5   0  -4 13.0011 40.9528  15
   5   0   4 86.7323 136.067   6
  -5   0  -4 97.7206 126.895  19
   5   0   4 52.8850 76.6715  16
  -5   0  -4 47.8195 67.6381   4
   5   0  -4 98.1124 128.891  18
   5   0   4 62.7707 104.057   8
  -5   0  -4 75.5254 105.618  17
  -5   0   4 79.9831 71.8827  17
   5   0  -4 37.1413 81.9439  14
   5   0   4-43.5368 77.0777  18
   5   0   4 88.1979 150.097   1
   5   0  -4-6.36802 22.9913   8
  -5   0   4 93.4763 106.898   5
   5   0  -4 34.6641 98.2686   1
  -5   0  -4 8.81865 116.575   7
  -5   0   4 19.0463 42.7398  19
  -5   0   4 55.8889 71.3250   4
   5   0   4 87.8136 130.296  14
  -5   0   5 65.5331 66.4057   2
   5   0  -5 102.369 77.9214  14
   5   0  -5 76.4740 75.7088   1
   5   0   5 233.179 194.381  14
   5   0   5 88.8242 97.0413   8
  -5   0  -5 24.8311 36.7917   4
   5   0   5 125.325 175.587   1
  -5   0   5 98.8819 69.2206  19
  -5   0  -5 66.2247 142.052  19
  -5   0  -5-119.161 223.540   7
  -5   0   5 138.627 100.407   5
   5   0  -5 32.2581 73.1754   8
  -5   0   5 68.2969 32.3783   4
   5   0   5 81.0359 65.4223  16
  -5   0  -5-82.7684 175.868  15
   5   0  -5 70.0587 95.3341  18
  -5   0   5 96.0392 88.8817  17
   5   0  -5 125.973 136.939  11
   5   0   5 105.788 146.198   6
  -5   0   6 41.2183 87.6735  17
   5   0  -6 48.3358 65.2606  14
  -5   0  -6 71.1677 164.565  19
   0  -5   6-56.6887 137.066   6
  -5   0   6 37.6073 72.2250   2
   5   0   6 17.9962 47.0838  14
   5   0   6-1.30045 111.654   8
   0   5  -6-167.123 446.702  13
   5   0  -6 2.58614 57.9660  18
   5   0  -6-11.0399 73.7296   1
  -5   0   6 29.2993 71.6944   5
  -5   0   6 30.2774 3.48148  19
   5   0   6 67.3759 124.451  16
   5   0   6 27.1212 27.8521   6
   5   0  -6-2.53658 59.1800  11
   0   5  -6 26.9004 39.5782   3
   0  -5   7 2355.33 448.125   6
   5   0   7 3999.94 767.162   8
  -5   0   7 4747.10 706.678  17
   0   5  -7 4210.94 544.729  12
   5   0  -7 2231.33 516.586  11
   5   0   7 3254.43 704.226   6
   5   0  -7 3706.09 551.405   1
   5   0  -7 3016.21 523.266  18
  -5   0   7 4989.30 582.066   5
   5   0   7 3390.43 771.704  14
   5   0   7 4082.12 743.815  16
   0   5  -7 4336.02 651.520   3
  -5   0   7 4508.48 604.838   2
   0   5  -7 4544.23 992.545  13
   5   0  -7 3709.01 470.184  14
   5   0  -8-25.9291 26.4670  14
   0   5  -8-86.3910 142.156  13
  -5   0   8 33.9665 82.1254   2
   0   5  -8 24.2748 54.2302   3
   0  -5   8-1.09727 22.4584   6
   0  -5   8 88.6660 170.038  17
   5   0  -8-10.9036 23.3868  18
  -5   0   8 51.6662 106.292  17
   5   0  -8-2.61799 61.6244  11
  -5   0   8-25.0149 94.8621   5
   0   5  -8-103.119 169.283  18
  -5   0  -8-75.5147 194.568  19
   0   5  -8-6.75350 30.0595  12
   5   0   8 82.5561 124.355  16
   5   0  -8 15.5542 69.8981   1
   5   0   8 16.6655 44.9492   6
   0  -5   8-144.662 210.826  16
   5   0   8-65.4270 25.6637   8
  -5   0   9 900.714 332.003  17
   0   5  -9 719.454 191.511  12
   5   0   9 631.904 363.676   6
   0  -5   9 563.196 303.711  17
   0   5  -9 909.132 308.958  18
  -5   0   9 956.506 273.885   5
  -5   0   9 815.862 290.995   2
   5   0   9 665.998 349.830  16
   0   5  -9 770.809 250.530   3
   5   0  -9 397.072 218.763  18
   0   5  -9 835.698 365.625  13
   0  -5   9-21.4145 313.192   2
   0  -5   9 544.596 226.209  16
   5   0  -9 602.719 252.029   1
   5   0   9 756.153 378.848   8
   0  -5   9 747.284 240.000   6
   5   0  -9 606.905 199.798  14
   5   0  -9 201.100 169.869  11
  -5   0  10-81.1697 94.2254   2
   0  -5  10 56.5369 109.159   6
   0   5 -10 20.6868 44.7175  12
   0   5 -10-43.6453 47.8098  18
   5   0 -10 23.2370 41.1232  11
  -5   0  10-36.8690 246.662  16
   0  -5  10-236.674 273.286   2
   0  -5  10-41.4952 48.4928  17
   5   0 -10 14.1285 99.3687  18
   0   5 -10 29.3594 38.6786   3
  -5   0  10-31.1787 35.5627  17
   0   5 -10 75.2945 74.8444  13
   0   5 -10 4.58078 15.0196   4
   5   0  10 76.5468 126.498  16
   5   0  10 170.815 179.548   8
   5   0  10 64.7473 192.658   6
   5   0 -10 7.04262 71.6343  14
   5   0 -10-13.3986 81.0860   1
   0  -5  10 42.0977 80.5384  16
   5   0 -11-93.2551 214.916  11
   5   0 -11 62.3903 85.2576  14
  -5   0  11 24.1288 43.2200   2
   0  -5  11-57.9782 119.921   6
   0   5 -11 80.8506 137.891  13
   0   5 -11 112.676 94.9954  18
   0   5 -11-43.4232 70.5813   3
   0  -5  11-21.6096 42.2894  14
   0   5 -11-6.11388 29.9566  12
   5   0 -11-61.1957 110.661   1
   0  -5  11-38.5541 135.595   2
   5   0  11 48.4257 228.487   8
   0  -5  11-49.9065 18.0428  17
   5   0 -11-171.081 227.675  18
   5   0  11-115.456 249.767   6
   0   5 -11 22.4496 29.8786   4
  -5   0  11-29.3653 69.1536  17
   0  -5  11-72.6750 119.619  16
   5   0  11 6.22247 118.783  16
  -5   0  11 136.223 367.080  16
   0  -5  12 88.1557 81.6261  17
   0  -5  12 35.4464 127.694   6
   0  -5  12 15.0054 29.8249  14
   5   0 -12-235.577 343.198  11
  -5   0  12-0.94027 75.1960   2
   0  -5  12 156.899 159.845   2
   0   5 -12 231.010 192.871  12
   0   5 -12 197.495 151.217   3
   0   5 -12 40.8086 69.8253  18
   5   0 -12-348.056 310.394  18
   5   0  12 19.1811 102.067   8
   0  -5  12 174.685 158.668  16
   0   5 -12 168.981 287.830  13
   5   0 -12 51.1656 144.325   1
  -5   0  12-44.5945 64.1319  17
  -5   0  12 8.00400 349.270  16
   5   0  12-100.520 138.959  16
   5   0  12-426.425 457.641   6
   5   0  13 52.0309 453.549   6
   0  -5  13 936.992 336.590   6
   5   0  13 836.593 430.436  16
   0   5 -13 413.193 244.307  13
  -5   0  13 739.483 316.178   2
   0   5 -13 787.235 209.621  12
   5   0  13 399.678 273.888   8
   0   5 -13 808.036 240.324  11
   0   5 -13 749.147 249.148   3
   5   0 -13 367.488 242.724   1
   0   5 -13 836.735 210.816  18
   0  -5  13 901.742 262.990  17
  -5   0  13 926.799 324.478  17
   0  -5  13 1065.65 357.360  16
   0  -5  13 763.001 351.194   2
   0  -5  13 891.397 197.830   8
   5   0 -13-83.2044 319.848  11
   5   0  14-253.698 404.943   8
   0   5 -14 88.8537 275.878   7
   0   5 -14 114.585 153.508  13
  -5   0  14 16.2948 58.8137   2
   0  -5  14 43.9494 31.3939   8
   0   5 -14 34.8547 62.5559  18
   0   5 -14 12.5435 57.4984  12
   0   5 -14 84.3542 104.084   3
   0   5 -14 173.339 356.769  15
   0  -5  14 72.4747 101.623  17
   5   0 -14-346.862 447.955  11
   0   5 -14 26.9283 74.2022  11
   0  -5  14 190.639 230.149   6
   0  -5  14 99.2847 82.3061  16
   0   5 -14-30.7015 149.184  20
  -5   0  14-205.961 300.575  17
   5   0  14 20.4677 110.688  16
   0  -5  14-111.172 120.234   2
   0  -5  15 193.940 225.873   6
   5   0  15 73.2328 285.788  16
   0   5 -15 218.449 157.351  11
   0   5 -15-0.94944 70.5442  15
   0   5 -15 76.5804 202.269  10
   5   0  15-73.9432 220.931   8
   0   5 -15 135.630 182.892   3
   0   5 -15 90.6056 125.995  12
   0   5 -15 148.682 110.445  18
   0   5 -15 272.050 243.804  13
   0  -5  15 65.8117 118.693   2
   0   5 -15 189.583 204.138  20
   0  -5  15 164.490 102.189   8
   0  -5  15 181.810 165.736  16
   0   5 -15 81.7860 103.244   7
   0  -5  15 80.8772 85.7678  17
   5   0  16 285.251 329.858  16
   0  -5  16 48.5546 140.871   2
   0   5 -16 156.467 207.100   3
   0   5 -16-19.5907 57.0370  11
   0   5 -16 143.283 360.960  15
   0   5 -16 219.433 399.942   7
   0   5 -16-5.96985 38.8484  18
   0  -5  16 14.0272 44.6512  17
   5   0  16-173.963 327.696   8
   0   5 -16 76.3257 102.074  12
   0  -5  16-16.6774 25.1022   8
   0   5 -16 286.332 274.873  13
   0  -5  16 145.948 171.778  16
   0   5 -16 68.4278 218.758  20
   0   5 -16 166.811 271.617  10
   0  -5  16 97.4760 192.133   6
   0  -5  17 129.413 93.4132   8
   0   5 -17 139.665 260.035  20
   0   5 -17 304.581 259.487   3
   0   5 -17 280.230 186.699  11
   0   5 -17-50.4013 102.659  10
   0  -5  17 237.680 239.701  16
   0   5 -17 215.781 258.456   9
   0   5 -17 58.7569 114.934  12
   0  -5  17 47.4966 29.4153   2
   0   5 -17 96.0685 94.0994  18
   0  -5  17 145.630 133.505  17
   0   5 -17-221.541 353.211   7
   0   5 -17-169.662 332.404  15
   0  -5  17-132.854 53.4870   6
   0   5 -18 244.321 215.108  12
   0  -5  18 11.0859 47.9523  17
   0  -5  18 55.6248 135.201  16
   0  -5  18 91.4927 71.9650   8
   0   5 -18 266.616 253.694   3
   0  -5  18 141.884 177.840   2
   0   5 -18 598.277 394.072   9
   0   5 -18 504.766 504.740  20
   0   5 -18 29.1080 25.2114  18
   0   5 -18 128.203 116.180  11
   0  -5  18 139.213 252.372   6
   0   5 -18 29.4143 203.668  10
   0   5 -19 1319.60 404.513  11
   0   5 -19 951.219 348.984  12
   0   5 -19 940.770 313.263  18
   0   5 -19 693.345 462.527  20
   0   5 -19 707.534 570.955  10
   0  -5  19 1721.80 617.116  16
   0  -5  19 1717.48 452.627  17
   0  -5  19 1546.81 565.814   2
   0  -5  19 1406.30 813.822   6
   0   5 -19 1303.53 504.249   9
   5  -1   0-82.8312 218.950  11
   5   1   0 201.537 136.747   1
  -5  -1   0 57.4618 49.6697   5
   5   1   0 232.650 118.957   8
  -5  -1   0 185.097 136.064  19
   5  -1   0 209.681 92.3476   6
  -5   1   0 199.240 91.1190  12
   5   1   0 220.725 101.308  18
  -5   1   0 165.176 119.057  17
  -5  -1   0 106.350 80.1810   4
   5  -1   0 233.151 120.964  18
  -5  -1   0 96.9301 63.2245   2
  -5  -1   0 126.185 91.8667  17
   5   1   0 158.172 90.5670   6
   5  -1   0 184.216 82.6246   8
  -5   1   0 216.186 98.9338  19
  -5   1   0 229.440 102.314   4
   5  -1   0 224.292 98.4812   1
   5   1   0 182.281 137.498  14
  -5   1   0 177.751 68.4640   2
   5  -1   0 215.884 102.504  14
  -5   1   0 219.904 100.637   5
   5   1  -1 2734.95 375.248   8
   5  -1  -1 2322.98 300.364   8
   5   1  -1 2886.94 376.897  18
  -5   1   1 2041.62 437.874  17
  -5   1  -1 2358.66 319.488  12
  -5  -1   1 1808.72 359.162  19
  -5   1   1 2261.74 424.448  12
  -5  -1   1 1762.83 366.229   5
  -5  -1  -1 1214.31 327.744  17
  -5  -1   1 1721.39 328.093  17
  -5   1   1 2450.93 337.594   5
   5  -1  -1 2586.54 366.612   1
  -5   1  -1 2077.45 182.045   2
   5  -1   1 2495.07 328.983   1
   5   1  -1 2846.70 460.761   1
  -5  -1  -1 833.708 299.839   4
   5   1  -1 2868.50 389.638  13
  -5   1  -1 1800.19 338.456  17
   5   1   1 2891.75 495.160   8
  -5   1  -1 2399.25 336.302  19
   5   1   1 2919.98 461.845  18
   5  -1   1 2698.21 308.197   6
  -5   1   1 2542.56 330.729  19
  -5  -1   1 1708.31 359.658   4
   5  -1  -1 2352.46 426.618  18
   5  -1   1 2231.77 301.371   8
  -5   1  -1 2301.69 327.158   4
  -5   1   1 2336.67 312.656   4
  -5   1   1 2416.45 300.865   2
  -5  -1  -1 1060.96 335.160   5
   5  -1  -1 2563.60 365.645  14
   5  -1   1 2660.92 374.454  18
  -5  -1   1 1608.24 290.279   2
   5  -1   1 2568.93 351.193  14
  -5   1  -1 2184.01 312.038   5
   5   1   1 1940.80 456.416   6
  -5   1  -1 2163.08 428.907   3
   5   1   1 2680.23 576.537   1
   5   1   1 2233.37 533.761  14
   5  -1  -1 516.340 113.844  11
   5  -1  -1 2772.21 315.455   6
  -5  -1  -1 1285.33 371.306  19
   5   1  -1 2517.29 474.058  14
   5  -1  -2 64.7109 62.1651  14
   5  -1   2 33.4259 37.2120   6
   5   1  -2 69.8496 80.5976   1
  -5  -1  -2 8.22145 32.1414  17
  -5   1  -2 15.5893 36.2517  12
   5   1  -2 57.0265 43.9107  18
  -5   1   2 37.8611 31.3850   2
   5  -1  -2-26.7950 100.466   6
   5   1  -2 68.9278 50.0891  13
   5  -1  -2 38.2937 31.4093   1
  -5  -1   2-4.01774 48.2498  19
  -5  -1   2 45.3741 39.4391   7
  -5   1   2 45.3404 52.5600   5
   5  -1   2 39.2996 43.4956   8
  -5   1   2 36.5006 36.1089  19
   5  -1  -2-115.901 239.237  11
   5   1   2 22.1129 97.6039  18
  -5   1  -2 44.3049 37.6637  17
   5   1   2 21.3681 50.9822   8
   5  -1   2 14.6628 13.2277  18
   5  -1  -2-3.67015 58.1541  18
   5   1   2 110.374 109.760   1
  -5  -1   2 31.9991 24.1328  12
  -5  -1   2 44.2634 42.1440   2
  -5  -1  -2-95.2421 213.839   5
  -5  -1   2 54.7543 60.4492   5
  -5  -1   2 19.2529 40.9752   4
  -5   1   2 74.7333 81.0994  17
  -5   1  -2 40.3918 19.3456   2
  -5   1  -2 28.8483 20.6320   4
  -5   1  -2 31.3986 31.5183  19
   5  -1   2 62.1102 46.7397   1
  -5  -1   2 5.25340 38.9888  17
  -5   1  -2 21.1985 52.8563   5
   5  -1  -2 51.7571 47.5367   8
   5   1  -2 79.9146 72.7697   6
  -5   1   2 24.5374 10.4026   4
  -5  -1   2 15.3775 32.0764  15
  -5   1  -2 25.4311 24.8846   3
   5   1  -2 22.3418 22.6366   8
   5   1   2 25.3035 49.6310   6
   5   1   2 22.1306 46.2431  14
   5   1  -2-28.6695 65.8859  14
  -5  -1  -2 68.0775 60.1738  19
   5  -1   2 49.2157 33.7660  14
   5  -1   3 30.7394 54.8292   6
  -5   1  -3 64.9684 88.2090  12
   5  -1  -3 15.6638 25.8334  18
  -5   1   3-14.0723 95.2207   2
  -5   1  -3 18.6451 60.8164   3
   5   1  -3-6.44161 35.7611  11
  -5   1   3 20.4946 39.0758  19
   5   1  -3 25.7149 54.8612  10
   5  -1   3 26.3210 54.2532   1
  -5   1  -3 11.2023 23.2389  10
   5   1  -3 30.1571 54.1499  18
   5  -1  -3-150.853 285.358  11
  -5  -1   3 8.82075 27.8838   5
   5  -1  -3 21.2677 53.8083   8
  -5   1  -3 72.4656 86.2042  19
  -5  -1   3 12.7904 29.8739  19
  -5   1   3-9.78721 45.1647   5
   5   1  -3 14.3540 24.5864   8
   5   1   3-18.1850 37.8563   1
  -5  -1  -3 12.0954 151.595  19
  -5   1  -3 4.13249 27.5446  17
   5   1  -3 8.60896 19.7444  14
   5   1  -3-6.94087 19.5647   1
   5   1   3 171.364 201.244   6
  -5  -1   3-2.59082 10.6764  17
   5  -1  -3-3.69671 5.20352  14
   5  -1   3 24.1302 37.7165  16
   5  -1  -3 18.0898 57.1967   1
  -5   1  -3 11.6786 12.5442   4
  -5   1   3 50.3430 111.103  17
  -5   1  -3 30.9573 42.6556   5
  -5  -1   3-28.3632 57.4485   4
   5   1   3 46.4388 103.698   8
   5  -1   3 36.5628 56.2556   8
   5   1   3-35.9015 135.453  14
  -5  -1   3-5.62386 38.7037   2
   5  -1   3 46.2954 47.4056  18
   5  -1   3 9.04896 11.9716  14
  -5   1   4 1089.77 253.209  19
   5  -1   4 1066.86 246.236   8
  -5  -1   4 730.447 222.299  17
  -5  -1   4 783.936 120.805  16
  -5   1  -4 910.485 205.009  10
  -5   1   4 1063.09 255.016   5
  -5   1  -4 727.300 224.557   5
   5   1  -4 1522.46 329.900   9
  -5  -1   4 818.979 228.328   5
   5  -1  -4 839.360 198.791   8
   5   1  -4 1181.04 266.516  11
   5  -1   4 998.176 254.976   1
  -5  -1   4 666.312 185.004   2
   5  -1   4 1094.43 243.923   6
   5   1  -4 858.557 241.739   1
   5  -1   4 1202.97 155.940  18
  -5   1   4 1025.90 355.333  17
   5  -1  -4 783.863 250.880   1
  -5   1  -4 577.977 195.931  19
   5   1   4 774.227 380.204  14
  -5   1  -4 591.619 122.331  17
  -5  -1   4 754.130 192.420   4
  -5  -1   4 885.751 193.930  19
   5   1   4 629.531 288.628   6
   5  -1  -4 370.664 151.810  18
   5   1  -4 902.079 166.053   8
   5  -1  -4-147.426 305.040  11
  -5   1   4 883.978 263.910   2
   5   1   4 708.105 330.617   8
   5  -1  -4 825.486 224.614  14
   5   1  -4 1388.78 363.800  10
   5  -1   4 1190.43 243.374  16
   5   1  -4 845.678 216.302  18
  -5   1  -4 808.762 203.048  20
   5   1  -4 808.954 234.492  14
   5  -1   4 1031.19 254.520  14
  -5   1  -4 607.940 207.298   4
   5   1  -5 365.956 147.216  18
   5   1  -5 352.382 109.108   8
   5  -1   5 475.696 178.104   6
   5   1  -5 477.199 196.570   9
  -5   1  -5 271.977 129.231  10
   5  -1  -5 13.3599 180.277  18
  -5   1  -5 270.851 155.190  19
  -5   1  -5 304.340 148.321   5
  -5  -1   5 297.797 93.9604  16
  -5  -1   5 323.782 136.165   5
   5  -1   5 429.193 172.810   8
   5  -1  -5 314.377 153.288  14
   5   1  -5 578.070 256.662  10
  -5   1  -5 284.052 171.527   4
   5   1  -5 460.895 179.588  11
  -5  -1   5 283.371 139.701  17
  -1   5  -5 325.834 119.013   3
  -5   1   5 329.606 133.306  19
   5   1   5 46.0872 204.005   6
  -5  -1   5 362.146 117.321  19
  -5  -1   5 334.953 119.736   4
   5  -1   5 462.694 174.264  16
  -5  -1   5 258.046 121.059   2
  -5   1  -5 285.535 177.536   7
   5  -1   5 430.571 194.837   1
  -5   1   5 281.445 181.846  17
  -5   1  -5 332.851 155.270  15
   5  -1  -5 278.209 168.093   1
   5   1   5 249.284 227.834   8
   5  -1   5 380.812 166.979  14
   5   1  -5 327.073 148.515   1
  -5   1  -5 288.450 165.733  20
   5   1  -5 321.050 140.023  14
   5  -1   6 2139.46 407.248   8
  -1   5  -6 394.356 161.198  13
   1   5  -6 1778.91 612.546  13
  -5  -1   6 1578.26 252.498  16
   5   1   6 647.093 225.241   6
   5  -1  -6 1583.71 422.071   1
  -1  -5   6 139.836 133.940   6
   5  -1   6 1936.49 521.509   1
  -5  -1   6 1910.41 269.463  19
  -5   1  -6 944.982 335.193   5
   5   1  -6 1898.84 293.737   8
   5   1  -6 1776.65 334.074  18
  -5  -1   6 1678.17 314.607   2
  -5   1  -6 1083.85 304.870  19
  -5   1  -6 1072.99 308.307  10
  -5  -1   6 1738.52 366.333  17
  -5   1  -6 992.200 314.796   4
   5   1  -6 1944.30 488.096   9
   5   1   6 1164.52 425.816   8
   5   1  -6 1808.99 316.271  14
  -5   1   6 2111.04 533.652  17
   5  -1   6 2060.93 421.487  14
  -5   1  -6 1309.47 328.425  15
   1   5  -6 1820.51 469.178   3
  -1   5  -6 2156.50 412.799  12
  -5   1  -6 1104.65 305.256  20
   5   1  -6 1602.20 556.902  10
   1  -5   6 644.384 246.986   6
   5   1  -6 1742.28 349.085   1
  -5   1  -6 1369.97 399.069   7
   5  -1   6 2048.98 413.236   6
   5  -1  -6 448.478 97.2992  18
  -1   5  -6 2308.13 530.596   3
  -5  -1   6 1906.02 278.506   4
   5   1  -6 2039.01 399.896  11
   5  -1  -6 1692.40 347.271  14
  -5  -1   6 1822.15 324.688   5
   5  -1   6 2384.78 409.494  16
   5   1  -7 275.986 226.078  10
  -5  -1   7 317.753 121.918  19
   5  -1  -7 257.781 151.721  14
  -1   5  -7 335.758 285.300  13
   1   5  -7 224.371 155.631   3
   5   1  -7 301.457 156.113   1
   1  -5   7 196.747 140.703   6
  -1   5  -7 298.845 143.114  12
   5   1  -7 305.599 174.881  11
  -1  -5   7 156.039 126.687   6
  -5  -1   7 258.130 149.526  17
  -5   1  -7 17.1089 40.9254  10
  -5  -1   7 237.244 96.6208   4
  -5   1  -7 165.653 179.359  20
   5  -1  -7 204.476 146.956   1
  -5   1  -7 166.619 141.467  19
   5   1  -7 300.724 212.216   9
   5  -1   7 59.2794 31.1165   1
  -5   1  -7 138.812 135.211   7
  -5   1  -7 151.958 169.488   4
   5   1   7 0.83983 337.188   8
  -5  -1   7 324.825 142.686   5
   5  -1   7 342.341 175.992   8
  -5   1  -7 170.503 105.483  15
  -1   5  -7 326.836 174.839   3
   5   1  -7 213.649 101.852  14
   5  -1   7 361.339 214.040  14
  -5   1   7 100.468 119.298  17
   5  -1   7 285.478 140.961  16
   1   5  -7 351.436 245.521  13
   5  -1   7 330.651 182.816   6
  -5  -1   7 213.314 113.456  16
   5   1   7-175.504 439.779   6
  -5  -1   7 289.994 136.866   2
   5   1  -7 227.743 132.536  18
   1   5  -8 2555.59 625.861  13
  -5  -1   8 2671.11 409.205   5
  -1  -5   8 895.584 410.365  17
   5   1  -8 1865.52 385.611  18
   5   1  -8 2227.26 465.255  11
  -1   5  -8 2682.92 726.196  13
   5   1  -8 1655.49 533.075   9
   1   5  -8 2614.67 406.340  12
   5  -1   8 3133.76 295.973   2
   5   1  -8 2272.10 410.558   1
  -5  -1   8 2526.88 413.917  19
  -5   1  -8 760.845 296.226  19
   5   1  -8 877.423 395.126  10
  -5   1  -8 1003.16 344.370  15
   1   5  -8 2805.57 601.950  18
   1  -5   8 1422.79 411.076  16
  -5  -1   8 2231.72 399.886   2
  -1  -5   8 1596.63 353.824   6
  -5  -1   8 2520.27 316.014   4
   5  -1   8 2835.74 540.243   8
  -1   5  -8 2301.16 368.482  12
  -5  -1   8 2636.55 476.929  17
  -5   1  -8 551.725 225.707  10
  -5   1  -8 694.621 284.676  20
   5  -1   8 2829.56 539.210  16
  -5  -1   8 1927.94 379.961  16
   5   1  -8 2228.96 335.262  14
   1  -5   8 1756.50 385.301   6
  -5   1  -8 969.350 356.347   7
   5  -1   8 2547.87 551.960   6
  -5   1   8 2231.57 559.013  17
   1   5  -8 2238.33 435.335   3
   5  -1   8 2578.57 582.730  14
  -1   5  -8 2495.47 475.195   3
   5  -1  -8 1793.74 551.092   1
  -5   1  -9 93.8988 70.1635   7
   1  -5   9 801.005 259.401   6
  -1   5  -9 979.301 419.263  13
  -1  -5   9 169.302 124.900   2
  -1   5  -9 1128.94 305.276  18
  -1   5  -9 759.384 205.043  12
   1   5  -9 834.129 204.663  12
   1  -5   9 743.901 320.263  17
   5   1  -9 685.492 188.504  14
   5   1  -9 600.260 251.169  11
   5   1  -9 637.863 241.126  18
  -1   5  -9 806.374 261.576   3
  -5   1  -9 64.6004 126.526  20
   5  -1   9 1253.17 225.298   2
   1  -5   9 657.651 259.651  16
   1   5  -9 918.443 311.488  18
   5  -1   9 867.869 369.175  14
  -5  -1   9 831.556 183.237   4
   5   1  -9 20.5151 711.234  10
  -1  -5   9 603.541 214.714   6
  -5  -1   9 927.253 296.621  17
   5  -1   9 862.980 329.766   8
  -1  -5   9 562.161 217.838  16
   5  -1   9 988.442 358.149  16
  -5  -1   9 696.218 264.622  16
  -5   1  -9 4.20247 128.041  15
   1   5  -9 856.557 322.955  13
   1   5  -9 778.085 256.296   3
  -5   1  -9 237.479 146.137  19
   5   1  -9 699.208 244.956   1
   5  -1   9 891.602 362.279   6
  -5  -1   9 793.997 254.419   2
  -5   1  -9 18.1222 192.762  10
  -5  -1   9 945.834 251.833   5
   5   1  -9 704.689 395.652   9
  -1  -5   9 530.623 335.594  17
   5  -1  10 99.8208 71.9636  16
   1  -5  10 138.874 71.7459  14
  -1  -5  10 209.590 207.917  17
  -1   5 -10 59.0117 71.9108   3
  -1  -5  10 241.855 165.397   6
   1  -5  10 205.375 129.001   6
  -5  -1  10 84.1505 132.437  16
   5  -1  10 187.220 67.5703   2
  -1   5 -10 185.336 107.478  12
   1   5 -10 153.524 101.404  12
  -1   5 -10 138.608 91.9229  18
   5   1 -10 170.266 136.568  11
  -5   1 -10 30.7319 65.7603  19
   1  -5  10 121.365 59.6238  17
   5  -1  10 87.9020 174.787  14
  -1  -5  10 107.815 126.890   2
   1   5 -10 122.955 113.943  13
   1   5 -10 170.045 142.105  18
  -5  -1  10 80.2283 48.6822  17
   1   5 -10 155.941 126.978   3
   5   1 -10 125.663 113.242  18
   5  -1  10 93.4680 74.3651   8
   5  -1  10 100.251 98.0976   6
  -5   1 -10-227.337 468.193  20
   5   1 -10 164.948 94.5478  14
  -1  -5  10 110.614 77.2444  16
  -1   5 -10 155.671 58.1240   4
   1  -5  10 299.856 194.659  16
   5   1 -10-182.142 314.499   9
  -5  -1  10 194.735 115.468   5
  -1   5 -10 172.589 151.586  13
   1  -5  10-298.332 514.796   2
   5   1 -10 200.931 146.299   1
  -5  -1  10 75.4978 33.9393   2
  -5  -1  11 472.690 221.950   2
   5   1 -11 357.486 146.005  14
  -5   1 -11-89.3620 138.454  19
  -1   5 -11 469.792 128.236   4
  -1  -5  11 316.481 181.382   6
   1  -5  11 410.589 193.160   6
   1   5 -11 389.541 222.634  13
   1   5 -11 379.745 164.344   3
   5   1 -11 306.231 166.818   1
  -1  -5  11 461.823 232.436  17
  -1   5 -11 463.366 183.437   3
  -1   5 -11 449.699 235.555  13
   5  -1  11 738.299 202.724   2
  -1   5 -11 446.372 147.493  12
   1   5 -11 339.506 136.577  12
  -5  -1  11 615.725 216.136   5
   5   1 -11 271.480 227.478  11
   1  -5  11 342.340 101.702   8
   5  -1  11 636.187 318.456   8
  -5  -1  11 534.756 234.961  17
   1  -5  11 244.202 120.970  16
  -1   5 -11 429.680 142.953  18
   1   5 -11 486.766 184.726  18
  -1  -5  11 159.247 185.220   2
   5   1 -11-1061.71 556.889   9
   5  -1  11 453.478 238.599  16
   5   1 -11 239.802 117.109  18
   1  -5  11-32.2234 340.933   2
  -1  -5  11 405.303 179.880  16
  -5  -1  11 384.375 256.091  16
   5  -1  11 402.573 222.382   6
   1  -5  11 439.790 102.827  14
   1  -5  11 489.997 186.443  17
   1  -5  12 139.452 71.0076  14
   5   1 -12 43.0671 60.3137  14
  -1   5 -12 935.978 514.216  13
   1   5 -12 188.870 139.380  18
   1   5 -12 392.734 297.993  13
   1  -5  12 734.777 466.854   2
  -1   5 -12 568.804 306.169   4
   5  -1  12 33.2549 98.7046   2
   5   1 -12-33.9799 63.7957  18
   1   5 -12 144.131 115.955  12
  -5  -1  12 31.7037 61.9320   2
   5  -1  12 86.3878 78.7193  16
   1  -5  12 336.486 242.181  16
   5   1 -12-35.0045 94.6148   1
   5   1 -12-111.672 151.254  11
   5  -1  12-28.6865 64.6515   8
  -1   5 -12 654.975 214.880  18
  -5  -1  12 121.890 89.2480   5
   1  -5  12 343.735 250.957   6
  -5   1 -12-56.3000 178.255  19
  -1  -5  12 98.8627 181.606   2
   5  -1  12-102.109 172.805   6
  -1  -5  12 181.211 119.626  17
   1  -5  12 301.655 157.568  17
  -5  -1  12 83.7615 113.705  17
  -1  -5  12 7.84953 91.0239  16
  -5  -1  12 34.3224 141.592  16
   1   5 -12 120.871 181.827   3
  -1  -5  12 170.871 156.242   6
  -1   5 -12 530.103 377.707   3
   5   1 -13 406.962 154.860  14
  -5  -1  13 719.579 318.054   2
   1   5 -13 780.926 245.989  11
   1  -5  13 692.904 275.775   6
  -5   1 -13-104.949 257.549  19
   5  -1  13 744.791 356.966  16
  -1  -5  13 484.608 205.323   6
   1  -5  13 829.213 323.751  16
   1   5 -13 597.445 184.111  12
   1   5 -13 443.352 212.913   3
  -1   5 -13 514.162 226.598   3
  -1   5 -13 579.763 196.659  11
   5  -1  13 1160.79 312.349   2
   5   1 -13 210.762 163.972  11
  -1  -5  13 621.049 273.240  16
  -1   5 -13 625.098 196.235  12
   1  -5  13 674.328 179.083   8
  -5  -1  13 701.795 396.283  16
   1  -5  13 736.150 211.734  17
   1   5 -13 612.796 204.602  18
  -1   5 -13 594.433 162.760  18
  -1  -5  13 713.042 330.025   2
  -1  -5  13 696.322 259.106  17
  -5  -1  13 808.787 272.011   5
  -5  -1  13 725.110 280.229  17
   5   1 -13 414.811 202.826   1
  -1   5 -13 658.935 295.715  13
   1   5 -13 408.812 242.623  13
   1   5 -13 734.329 393.493  15
   1  -5  13 708.062 142.074  14
   5  -1  13 445.918 314.700   6
   5  -1  13 749.591 380.313   8
   5   1 -13 304.421 156.535  18
   1  -5  13 1011.79 453.087   2
  -1  -5  14 404.831 270.606   6
   1  -5  14 783.234 355.750   6
  -1  -5  14 624.084 268.590  16
   5  -1  14 1177.89 350.606   2
  -1   5 -14 581.175 208.270  12
  -1   5 -14 546.912 240.409   3
   1   5 -14 456.921 197.172  11
  -1   5 -14 463.626 375.401  20
   1   5 -14 445.073 320.718  20
  -5  -1  14 723.333 323.478   2
  -5   1 -14 55.0821 98.6431  19
   1   5 -14 588.234 207.397  18
   1  -5  14 906.858 414.994   2
  -5  -1  14 885.234 305.514   5
   1  -5  14 763.349 291.726  16
   1   5 -14 507.114 232.362   3
   1  -5  14 692.062 172.313   8
   5   1 -14 261.099 217.328  11
   1   5 -14 617.061 200.242  12
   5   1 -14 280.980 199.187  18
  -1   5 -14 290.736 245.834  13
   1   5 -14 616.113 353.184  15
   5  -1  14 596.466 282.689   8
   1   5 -14 300.642 231.391  13
  -1   5 -14 639.277 222.871  11
  -1  -5  14 590.459 317.457   2
   1   5 -14 766.886 473.580   7
   5  -1  14 881.819 410.783  16
  -5  -1  14 718.499 407.000  16
  -1   5 -14 671.772 371.597   7
  -1   5 -14 807.028 387.721  15
   1  -5  14 603.424 187.065  14
   1  -5  14 773.993 216.838  17
  -1  -5  14 637.360 227.384  17
  -1   5 -14 584.990 173.791  18
   5  -1  14 843.400 456.889   6
   5   1 -14 326.282 209.003   1
  -5  -1  14 777.659 325.122  17
   5   1 -14 261.863 131.279  14
   1  -5  15 497.723 304.306   6
   5   1 -15 178.831 152.989   1
  -5  -1  15 854.585 295.440   5
   1   5 -15 711.769 546.279   7
  -1  -5  15 553.337 283.279  16
  -1   5 -15 602.009 323.670  13
   1   5 -15 612.628 326.749  13
   1  -5  15 627.466 166.180   8
   5  -1  15 995.585 309.300   2
   1   5 -15 545.614 226.623  11
   1   5 -15 488.260 190.165  12
   1  -5  15 626.470 319.227  16
   1   5 -15 470.744 242.160   3
   1  -5  15 639.810 215.132  17
  -1   5 -15 481.125 389.025  10
   1   5 -15 443.919 327.854  15
   1   5 -15 827.669 452.441  10
  -1  -5  15 606.218 344.637   2
  -1  -5  15 568.220 222.531  17
  -1   5 -15 350.934 192.049   3
   5  -1  15 525.883 279.497   8
   1  -5  15 800.633 386.854   2
  -1   5 -15 445.312 156.200  18
   5   1 -15-25.2120 164.777  18
   1   5 -15 269.608 365.669  20
  -1   5 -15 468.863 186.840  11
   5   1 -15 241.820 131.700  14
  -5  -1  15 702.338 335.928  17
  -5  -1  15 627.921 307.839   2
  -1   5 -15 902.721 452.020  20
  -5   1 -15-211.727 360.587  19
  -1   5 -15 604.408 425.042   7
  -5  -1  15 488.492 390.932  16
  -1   5 -15 299.216 233.629  15
   5  -1  15 475.533 245.570   6
   1   5 -15 446.970 177.430  18
   1  -5  15 328.403 187.349  14
   5  -1  15 594.241 366.837  16
  -1   5 -15 403.048 185.881  12
   5   1 -15 258.472 230.545  11
  -1  -5  15 251.849 189.627   6
   5   1 -16-23.7252 38.8484  14
   1  -5  16 163.742 204.892  16
  -1   5 -16 445.104 329.237  13
  -1   5 -16 209.367 212.569   3
   1   5 -16 15.6705 74.2505  12
   1   5 -16 7.64464 164.044  10
   1   5 -16 184.423 184.084   3
   1   5 -16 114.920 134.695  11
  -1   5 -16 165.766 150.182  11
  -5  -1  16-107.380 198.933   5
   1   5 -16-328.965 281.284  20
  -5   1 -16-330.848 333.445  19
   1   5 -16-125.003 43.3701   1
  -5  -1  16 1.37418 78.1442  17
   5  -1  16 53.7921 36.7293   2
   1  -5  16 313.299 335.590   6
  -1   5 -16 223.644 209.945  20
   5   1 -16-23.8480 84.4272  11
   1   5 -16 11.5229 57.4892  18
  -5  -1  16 218.408 216.712   2
   1   5 -16 311.822 279.126  13
  -1   5 -16 15.4677 42.7206  18
   5  -1  16-62.5441 71.0028   8
   1  -5  16-52.5396 75.4591   2
   1   5 -16-65.0501 389.537  15
   1   5 -16-282.122 538.455   7
   5  -1  16-570.930 533.406   6
  -1  -5  16-4.57850 138.286   2
  -1  -5  16 42.8610 49.4023  17
   1  -5  16 78.7159 119.948  17
  -1   5 -16 254.617 321.618  10
  -1  -5  16 201.479 281.895   6
  -1   5 -16 228.541 325.013   7
  -1  -5  16-200.795 295.112   8
  -1  -5  16-29.6051 129.042  16
   5   1 -16 27.8930 78.2493   1
   5  -1  16 68.8336 129.727  16
  -1   5 -16 122.535 177.532  12
   1  -5  16 71.5494 61.7796   8
   5   1 -16-267.906 289.344  18
  -5  -1  16 176.169 329.483  16
  -1   5 -16 228.296 199.617  15
   5  -1  17 672.138 417.497   8
   5   1 -17-56.4356 209.978  11
   1  -5  17 697.635 181.907   8
   5   1 -17 138.072 96.4096  14
  -5  -1  17 661.523 320.476   2
   1   5 -17 43.5635 75.1483   1
   5   1 -17 37.2351 105.577   1
   1  -5  17 685.460 349.378  16
   5  -1  17 1254.80 437.995   2
  -1   5 -17 505.301 233.072  12
   1   5 -17 612.098 251.363  12
   1   5 -17 513.356 284.657   3
  -1   5 -17 483.543 312.916   3
  -1  -5  17 1013.08 251.594   8
  -1   5 -17 491.199 213.295  11
   1   5 -17 441.117 401.695  10
   1   5 -17 704.141 280.548  11
   1   5 -17 342.936 478.984  20
   1   5 -17 387.659 166.773  18
  -1  -5  17 668.237 338.035   2
  -1   5 -17 817.072 439.895   9
  -1  -5  17 692.840 266.588  17
  -1   5 -17 475.581 196.905  18
  -1   5 -17 280.751 352.490  15
   1  -5  17 879.707 381.482   2
  -5  -1  17 817.634 263.972   5
   1   5 -17 666.230 437.711   9
  -5  -1  17 527.792 268.419  17
  -1   5 -17 222.641 258.511  10
  -1  -5  17 776.652 359.117  16
   1   5 -17-472.459 801.221   7
  -1   5 -17 221.115 127.466   7
  -5   1 -17-355.576 415.898  19
   5  -1  17 684.491 420.676  16
  -5  -1  17 869.976 480.547  16
   5  -1  17-19.8324 447.446   6
  -1  -5  17 550.673 476.484   6
   1  -5  17 687.053 237.888  17
   1  -5  17 689.356 495.910   6
  -1   5 -17-36.3063 191.767  20
  -5   1 -18-252.745 410.142  19
   5  -1  18 1286.29 449.038   2
  -1   5 -18 480.698 433.679   9
  -1   5 -18 634.281 318.493  12
   1   5 -18 475.873 228.185  12
  -1   5 -18 766.433 661.729  20
   1   5 -18 602.748 333.591   3
  -1   5 -18 719.572 392.825   3
  -5  -1  18 564.539 330.722   2
   1  -5  18 656.743 359.639  16
   1   5 -18 836.767 323.748  11
  -1   5 -18 490.110 277.636  11
  -1  -5  18 712.134 284.036  17
   1   5 -18 315.397 374.211  10
   5  -1  18 407.507 282.667   8
  -1   5 -18-108.037 408.010  15
   1   5 -18 457.863 202.954  18
   1  -5  18 665.440 517.103   6
   1  -5  18 800.433 215.154   8
  -1   5 -18-93.9695 367.831   7
   5   1 -18-315.152 379.193  11
   1  -5  18 798.584 447.089   2
   1   5 -18 669.012 386.006   9
  -1   5 -18 393.012 219.020  18
   1  -5  18 870.600 285.039  17
  -5  -1  18 309.654 88.7107  17
  -1   5 -18 321.833 427.815  10
  -1  -5  18 701.159 375.306   2
  -1  -5  18 662.189 312.961  16
   5  -1  18 575.292 401.444  16
  -5  -1  18 571.571 437.569  16
   1   5 -18 197.758 302.552  20
   5   1 -18 239.021 212.408   1
  -1  -5  18 63.0045 225.054   6
  -5  -1  19 460.627 295.803   2
   1   5 -19 502.049 463.845  20
  -1   5 -19 549.827 374.728   9
   5  -1  19 957.181 399.137   2
  -1   5 -19 627.097 375.732  12
   1   5 -19 519.874 285.374  12
   1  -5  19 761.889 426.186   2
  -1  -5  19 852.236 330.470  17
   1   5 -19 817.079 304.820  11
  -1   5 -19 796.219 326.004  11
   5   1 -19-573.740 563.141  11
   1   5 -19 606.869 565.041  10
  -5   1 -19-202.890 429.461  19
   5  -1  19 192.613 247.543   8
   1   5 -19 664.253 293.956   9
  -1   5 -19 574.522 287.317  18
   1  -5  19 770.973 238.855   8
  -1  -5  19 798.695 467.836   2
   1   5 -19 602.024 271.210  18
  -1   5 -19 361.165 478.069  20
  -1   5 -19 451.818 539.628  10
   1  -5  19 845.200 409.602  16
  -1  -5  19 536.066 283.176  16
   5  -1  19 367.941 184.329  16
  -5  -1  19 324.227 343.125  16
   1  -5  19 936.694 336.173  17
  -1  -5  19 77.2026 422.466   6
   1  -5  19 429.499 397.148   6
  -5   2   0 3914.02 629.795  12
   5  -2   0 4194.81 494.175   1
   5   2   0 4305.31 894.508   1
  -5  -2   0 487.238 300.386  17
  -5   2   0 4315.43 466.399   5
   5  -2   0 3805.02 485.338   6
   5  -2   0 4000.56 469.463  14
   5   2   0 3662.30 683.464   8
   5  -2   0 3365.04 402.217   8
   5   2   0 4755.39 716.102  18
  -5   2   0 3936.06 440.723  19
   5   2  -1 135.865 123.698  14
   5  -2   1 469.410 155.921   1
   5   2  -1 448.963 225.892   1
  -5   2  -1 381.361 156.052  12
  -5   2   1 453.252 151.040  19
  -5   2  -1 414.716 149.142   5
  -5  -2   1-33.8096 192.437   5
   5  -2  -1 381.285 169.149   1
   5   2  -1 488.659 216.215   8
   5   2   1 239.804 178.009   1
   5  -2   1 372.524 128.527   8
  -5  -2   1 241.827 170.718  17
   5   2  -1 543.415 227.000  18
   5   2   1 270.516 155.752   8
   5  -2  -1 289.885 129.261   8
  -5  -2   1-56.3729 191.855   2
   5  -2   1 446.824 149.080  14
   5  -2  -1 444.182 165.013  14
   5  -2   1 452.438 152.962   6
  -5   2  -1 464.241 150.727  19
  -5   2  -1 374.299 131.582   4
   5   2  -2 1506.20 528.367  14
   5   2  -2 2354.86 494.852  13
  -5   2  -2 2198.87 341.838  12
   5  -2   2 2279.65 309.001   1
  -5  -2   2 1101.17 326.318  17
  -5   2  -2 1970.75 288.245   5
  -5  -2   2 1073.76 294.682   2
  -5  -2   2 966.644 353.243   5
   5  -2  -2 1882.07 402.716   1
  -5  -2   2 1105.96 347.233  19
  -5   2   2 2245.34 382.002  19
   5   2  -2 2605.71 457.441  18
   5  -2  -2 1455.57 375.411   8
   5   2  -2 2324.51 413.629   8
   5  -2   2 1745.16 272.710   8
  -5   2  -2 1976.61 304.335   4
   5   2   2 501.446 245.092   8
  -5  -2   2 473.670 177.257   4
   5   2  -2 2065.11 526.274   1
   5  -2   2 2327.91 332.120   6
  -5   2  -2 2120.65 314.446  19
   5  -2   2 2148.01 327.435  14
   5  -2  -2 1704.28 345.443  14
  -5   2  -2 2181.82 548.824   3
   5   2  -3 2914.72 407.220  13
  -5  -2   3 1554.12 401.279   5
   5   2  -3 3004.18 406.309   8
  -5   2  -3 2725.61 336.362   5
   5   2  -3 2787.59 547.526   1
  -5  -2   3 1761.49 348.961   2
  -5  -2   3 1790.50 377.548  19
   5  -2   3 2862.75 333.455   1
  -5   2  -3 2545.34 446.753   3
  -5  -2   3 1388.14 384.586   4
   5   2  -3 3302.06 489.014  18
   5  -2   3 2516.98 338.379   8
  -5   2  -3 2584.63 348.017   4
  -5  -2   3 1782.56 403.672  17
  -5   2  -3 2864.16 387.334  12
  -5   2  -3 2823.57 366.728  19
   5  -2   3 2987.43 379.868   6
  -5   2   3 3114.41 511.466  19
   5   2  -3 2148.97 592.247  14
   5  -2   3 3086.88 395.798  14
   5  -2  -3 2157.54 397.030  14
   5  -2  -3 2269.64 515.647   1
   5   2  -4 1065.93 200.000   8
   5   2  -4 901.883 208.188  13
  -5   2  -4 863.397 237.431   3
  -5   2  -4 881.651 199.036   5
  -5   2  -4 900.457 216.584  19
   5   2  -4 985.172 301.309   1
  -5  -2   4 668.016 243.117   5
   5  -2   4 953.030 193.711   1
   5  -2   4 890.612 204.252   8
  -5  -2   4 812.288 214.809  19
   5   2  -4 993.712 267.541  18
  -5  -2   4 667.364 223.681   4
  -5   2  -4 857.400 217.954   4
  -5   2  -4 788.127 207.638  12
  -5  -2   4 670.494 233.532  17
  -5  -2   4 598.683 194.234   2
   5  -2   4 1336.01 343.301  16
   5  -2   4 1091.37 237.865   6
   5  -2   4 1021.57 237.829  14
   5   2  -4 881.854 335.506  14
   5   2  -5 973.645 221.753  13
   2   5  -5 384.008 346.496  13
  -5   2  -5 868.682 228.998  12
  -2   5  -5 1125.32 308.192  12
  -5  -2   5 840.447 258.036   4
   2  -5   5 188.287 122.410   6
  -5   2  -5 923.056 216.458   5
  -5  -2   5 866.808 172.628  16
   5   2  -5 1035.32 291.406   1
   5  -2   5 1184.36 229.163   1
  -5   2  -5 877.933 222.970   4
   5   2  -5 1383.49 332.788  20
  -5  -2   5 779.685 214.361   2
  -5  -2   5 970.909 213.885  19
   5   2  -5 997.099 335.515  14
  -2   5  -5 1238.17 430.215   3
   5   2  -5 1145.49 181.193   8
  -5  -2   5 718.012 247.644  17
   5  -2   5 1044.16 227.037   8
   5   2  -5 1134.85 276.664  18
   5  -2   5 1522.32 343.466  16
   5   2  -5 1044.45 173.906   3
  -5  -2   5 809.156 253.729   5
  -5   2  -5 874.809 217.559  19
   5  -2   5 1126.42 246.475  14
  -5   2  -5 846.296 236.857   3
   5  -2   5 1257.38 268.910   6
  -2   5  -6 1565.65 451.421   3
  -5   2  -6 1070.15 247.422   5
  -5   2  -6 1073.44 274.583  12
  -2   5  -6 1590.35 345.908  12
  -5   2  -6 1099.82 279.818   4
   2  -5   6 628.222 257.020   6
  -5  -2   6 1153.69 302.265   5
   5   2  -6 1757.50 369.722  11
  -5  -2   6 1308.63 234.068  19
   5  -2   6 1718.93 307.988   1
   5   2  -6 1339.28 328.239   1
  -5  -2   6 1169.00 267.674   2
  -5   2  -6 1091.47 256.775  19
   5   2  -6 1914.61 442.818  20
   2   5  -6 1684.12 585.589  13
   5   2  -6 1492.75 323.416  18
  -5   2  -6 1159.57 284.401   3
  -5  -2   6 1052.85 256.403   4
  -5  -2   6 1179.74 314.652  17
  -5   2  -6 800.392 253.524  13
   5   2  -6 2202.76 486.615  10
  -5  -2   6 1190.63 205.906  16
   5  -2   6 2075.17 387.905  16
   5   2  -6 1415.89 191.350   8
   5  -2   6 1651.93 330.811   6
   5   2  -6 1318.77 382.259  14
   5  -2   6 1509.45 292.162  14
   5   2  -6 1354.10 176.795   3
   5  -2   6 1570.70 294.188   8
  -2   5  -7 2708.13 773.338  13
  -5   2  -7 1938.89 371.204  13
  -2   5  -7 3355.66 469.878  12
   5   2  -7 3410.78 329.856   8
   5   2  -7 4097.61 720.003  10
   5   2  -7 3763.82 552.318  11
   5   2  -7 3111.01 463.095  18
  -5  -2   7 2733.23 334.531  16
   5   2  -7 3132.52 498.995   1
  -5  -2   7 2652.10 423.512   2
  -5  -2   7 3242.63 344.477  19
  -5   2  -7 2604.55 396.352  10
  -2  -5   7 1196.09 321.756   6
   5  -2   7 3446.44 461.822   8
   5  -2   7 4172.38 577.078  16
  -5   2  -7 3061.08 367.980   9
  -5   2  -7 2296.75 390.938  19
  -5   2  -7 2285.40 439.675   4
   2   5  -7 2931.18 618.854  18
  -5  -2   7 2540.22 373.083   4
   2   5  -7 3398.24 598.759   3
  -5  -2   7 2875.05 494.851  17
   2   5  -7 3676.31 766.912  13
  -5   2  -7 2585.77 460.020   5
  -5   2  -7 2221.86 399.938  20
   5   2  -7 3676.72 733.171  20
  -5  -2   7 2866.33 452.625   5
   5  -2   7 3779.61 535.727   6
  -2  -5   7 291.146 244.491  17
  -2   5  -7 3482.80 617.302   3
   5  -2   7 3368.52 468.992  14
   5  -2   7 3970.89 620.416   1
   2  -5   7 2055.90 422.146   6
   5   2  -8 889.867 404.883  20
  -5   2  -8 579.991 250.821   4
   2  -5   8 438.961 99.8478   8
  -5   2  -8 644.778 228.787  19
  -2   5  -8 1031.74 244.621  12
  -5  -2   8 907.008 249.212   5
  -5   2  -8 341.891 118.721   5
   5   2  -8 867.227 281.509   1
  -5  -2   8 862.220 253.367   2
  -5   2  -8 690.400 246.616  20
  -5   2  -8 859.554 218.432   9
  -2  -5   8 96.8468 91.3606   2
   2   5  -8 1179.64 386.513  18
   5   2  -8 1393.94 401.542   9
  -5  -2   8 786.018 204.287  16
   5   2  -8 851.751 250.183  18
  -5  -2   8 772.820 261.942  17
  -5  -2   8 872.498 209.404   4
  -2  -5   8 680.327 215.108   6
   5  -2   8 565.207 258.629   1
  -2   5  -8 877.997 478.597  13
  -2   5  -8 1073.83 317.272   3
  -2  -5   8 326.289 230.206  17
   5   2  -8 1011.54 412.635  10
  -5  -2   8 915.458 188.428  19
   5  -2   8 1397.08 348.156  16
   5  -2   8 1007.16 262.077   8
  -5   2  -8 709.019 283.746   7
   5  -2   8 1093.54 318.831   6
   2   5  -8 879.830 341.687  13
   2  -5   8 886.093 273.753   6
   2   5  -8 946.831 280.505   3
  -5   2  -8 964.317 299.834  15
   5  -2   8 1090.46 285.998  14
   5   2  -8 634.751 250.434  14
   5   2  -8 1087.62 310.717  11
  -5   2  -8 873.855 265.145  10
  -5  -2   9 1044.69 255.965  16
   2   5  -9 1184.94 383.492  13
   5   2  -9 1054.91 313.978  11
  -5  -2   9 1078.95 276.816   5
  -5   2  -9 657.344 253.479  15
   2   5  -9 1281.33 290.085  12
   5  -2   9 1593.89 254.943   2
  -5  -2   9 898.537 259.464   2
  -5   2  -9 691.644 295.286  20
  -2   5  -9 1244.33 454.641  13
  -5   2  -9 824.296 286.502  10
  -2  -5   9 764.313 336.822  17
   5   2  -9 1298.63 473.905  10
   2  -5   9 956.428 260.113   8
   5   2  -9 850.239 267.325  14
   5   2  -9 1341.09 413.842   9
  -2  -5   9 509.155 271.040   2
   2  -5   9 1114.02 250.474  14
   5   2  -9 970.123 286.516   1
  -2   5  -9 1496.13 346.907  18
   2   5  -9 1470.67 411.477  18
   5   2  -9 837.646 255.300  18
   5  -2   9 1312.39 323.741   8
  -2  -5   9 689.543 248.947  16
  -5  -2   9 1117.40 219.080   4
  -2   5  -9 1308.27 210.841   4
   2  -5   9 1110.99 297.134   6
  -5   2  -9 524.092 225.126   4
  -5  -2   9 1059.46 304.029  17
   2  -5   9 914.800 312.384  17
  -2  -5   9 980.775 260.745   6
  -5   2  -9 656.730 302.497   7
   5  -2   9 1348.17 379.018   6
   5   2  -9 781.284 325.734  20
  -2   5  -9 1135.01 257.625  12
  -5  -2   9 1143.97 236.080  19
   2  -5   9 1015.62 313.403  16
   2   5  -9 1096.19 298.829   3
   5  -2   9 1332.16 352.601  14
  -2   5  -9 1192.74 324.986   3
  -5   2  -9 611.223 221.176  19
  -5   2  -9 909.182 263.317   9
   5  -2   9 1428.32 373.991  16
   5   2 -10 1444.53 471.330   9
   2   5 -10 1346.46 321.189   3
   2   5 -10 1492.98 271.872  12
  -2   5 -10 1362.84 486.917  13
   5   2 -10 1137.27 304.227  18
  -2   5 -10 1456.49 352.989   3
   2  -5  10 1562.30 334.128  17
  -5   2 -10 505.850 196.318  20
  -5  -2  10 1427.74 322.796   5
   5   2 -10 1257.76 355.153  11
  -2   5 -10 1274.14 133.184   5
  -5   2 -10 615.042 190.933   9
   5   2 -10 205.489 501.975  20
   5  -2  10 1910.23 266.576   2
  -5  -2  10 1235.95 337.514   2
   5   2 -10 988.504 307.775   1
  -5   2 -10 711.039 263.599  10
  -5   2 -10 671.486 247.053  19
   2   5 -10 1441.08 404.879  13
   5  -2  10 1658.18 377.250   8
  -2  -5  10 792.164 356.846   2
  -5   2 -10 670.868 267.347  15
   2   5 -10 1617.38 389.455  18
   2  -5  10 1304.52 401.415  16
  -5   2 -10 741.715 347.094   7
  -2  -5  10 1121.67 343.482  16
  -5  -2  10 1356.76 368.042  17
  -2  -5  10 1124.83 380.544  17
  -2   5 -10 1724.72 246.609   4
  -5  -2  10 1155.35 297.115  16
   5  -2  10 1609.55 416.291  16
   5   2 -10 1256.00 506.382  10
   5  -2  10 1465.89 391.345   6
   2  -5  10 1544.96 238.627  14
  -5  -2  10 1479.96 247.289   4
  -2  -5  10 986.856 268.320   6
   2  -5  10 1375.27 345.223   6
   5  -2  10 1542.36 408.586  14
   5   2 -10 888.895 264.791  14
  -2   5 -10 1583.02 286.635  18
  -2   5 -10 1467.69 299.592  12
  -2  -5  11 36.7940 226.340   2
   2  -5  11 69.8151 95.7567  14
   5  -2  11 65.8628 100.348   2
  -2   5 -11 904.190 584.951  13
  -2  -5  11 0.27685 47.0175   6
  -5   2 -11 394.266 498.302   9
   5   2 -11 129.680 129.048   1
   2   5 -11 144.585 228.981  13
   5   2 -11-1696.35 1390.03  20
   2  -5  11 120.026 188.209   8
   2   5 -11 133.646 153.914   3
  -2   5 -11 397.406 292.883   3
  -5  -2  11 59.2746 59.2077   4
  -2   5 -11 296.587 184.485  12
  -2  -5  11 145.207 194.321  17
  -2   5 -11 76.7800 84.0382  18
   2  -5  11 292.315 260.737   6
   2   5 -11 150.238 116.564  12
  -5   2 -11 205.750 470.679  10
   5   2 -11 155.233 211.119  11
   5   2 -11 117.750 420.205  10
  -5  -2  11-6.93454 36.2764   5
   5   2 -11 754.546 458.440   9
  -2  -5  11 135.816 165.193  16
  -5  -2  11 71.8015 127.923   2
   5   2 -11 102.446 105.137  18
   5  -2  11 24.3680 197.516   6
  -5   2 -11 116.287 496.346  20
   5  -2  11 105.691 223.513   8
  -5   2 -11-34.2178 107.568  19
   2  -5  11 84.1270 263.269  16
  -5  -2  11 104.185 170.516  17
  -2   5 -11 59.8130 98.1602   4
  -5   2 -11 2.76367 170.480   7
   5  -2  11 205.566 344.945  16
   2   5 -11 73.4930 117.627  18
  -5  -2  11 61.3650 102.204  16
   2  -5  11 140.673 182.216  17
   2  -5  11-1196.40 689.466   2
  -5   2 -11-108.729 85.9336  15
   5  -2  11 20.5843 245.951  14
   5   2 -11 122.920 129.219  14
  -5   2 -12 624.999 313.173  10
   2   5 -12 1432.47 406.872  13
  -2   5 -12 1867.16 370.295  12
   5   2 -12 1579.61 444.421  11
  -5  -2  12 2085.01 391.142   5
  -2   5 -12 2286.92 438.834  19
   5  -2  12 2392.29 524.535   8
  -2  -5  12 1578.55 480.756   2
   5  -2  12 2578.35 350.161   2
   5   2 -12 855.794 635.693  10
  -5  -2  12 1826.12 439.064   2
   5   2 -12 1375.11 362.331   1
   2   5 -12 1979.30 313.467  12
   2  -5  12 1004.69 341.346   2
  -2   5 -12 1319.15 435.026  13
   5   2 -12 1519.49 514.299   9
  -5   2 -12 229.530 127.445   9
   5   2 -12 1471.80 377.862  18
  -2  -5  12 1778.71 432.365  17
  -5  -2  12 2166.95 496.580  17
  -5   2 -12 505.456 220.351  19
   2  -5  12 2094.42 320.511  17
  -2  -5  12 1672.70 420.838  16
   5  -2  12 2682.32 622.903  16
  -5  -2  12 1748.94 428.495  16
  -5   2 -12 251.509 129.169   7
   2   5 -12 1931.46 395.289  18
  -5   2 -12 318.128 237.604  20
   5  -2  12 2187.17 571.264   6
  -2  -5  12 1165.15 389.865   6
  -5   2 -12 318.049 118.417  15
   2  -5  12 1864.27 507.328  16
   5  -2  12 1936.77 623.250  14
   2  -5  12 2238.05 480.537   6
   2  -5  12 2087.53 259.827  14
   2   5 -12 1803.27 378.061   3
  -2   5 -12 1678.81 399.241   3
  -2   5 -12 1833.58 261.996  18
  -2   5 -12 2064.86 392.583   4
  -5  -2  12 2233.96 293.416   4
   5   2 -12 980.141 255.662  14
   5   2 -13 149.910 127.896  18
   2  -5  13 126.069 56.1071   6
   2   5 -13 256.046 110.369  12
   2   5 -13 189.428 140.264  13
  -2   5 -13 251.295 125.139  12
  -2   5 -13 263.886 184.185   3
   2   5 -13 320.681 190.366  11
   2   5 -13-190.288 300.662   1
   2   5 -13 235.935 127.205   3
   5   2 -13-22.1674 153.506  10
  -5  -2  13 308.272 109.649   4
  -5   2 -13 95.3150 128.607  20
  -5  -2  13 257.153 134.120   5
  -5   2 -13 72.5962 128.810  19
   5  -2  13 480.156 263.647   8
   2   5 -13 317.911 161.835  18
   2   5 -13 472.059 364.540   7
   5   2 -13-141.901 224.860   9
   2  -5  13 327.228 299.806   2
  -5   2 -13-142.158 51.5457  10
   5  -2  13 342.422 132.669   2
  -2   5 -13 250.273 169.517  13
  -5  -2  13 287.127 197.241  17
   2   5 -13 363.960 236.963  15
  -2  -5  13 218.936 168.467   6
  -2  -5  13 215.528 155.853   2
   5   2 -13 209.883 166.746  11
  -2   5 -13 168.532 84.6266   4
   5   2 -13 260.721 170.794   1
   2  -5  13 355.571 178.631  16
  -2  -5  13 211.411 150.782  16
  -2  -5  13 242.206 164.771  17
   2  -5  13 258.694 118.620   8
  -2   5 -13 249.722 98.8030  18
  -5   2 -13-179.046 274.135   7
   5  -2  13 359.556 207.380  16
  -5  -2  13 274.321 198.826  16
  -2   5 -13 615.964 248.483  19
   2  -5  13 379.551 124.948  17
  -2   5 -13 246.378 130.157  11
  -5  -2  13 332.771 224.047   2
   5  -2  13 206.247 169.514   6
   5   2 -13 154.709 119.947  14
   2  -5  13 278.049 92.4479  14
   5  -2  14 1202.01 381.568   8
  -5  -2  14 1321.53 335.835   5
   2   5 -14 940.999 306.550   3
  -5  -2  14 1214.05 389.270  17
  -5   2 -14 116.070 58.5446  10
   2   5 -14 1007.97 240.182  12
  -2   5 -14 751.242 249.628  12
  -2   5 -14 692.833 287.011   3
  -2   5 -14 1013.36 257.369  11
   2   5 -14 720.809 335.210  11
   2   5 -14 1211.24 349.455  18
  -5  -2  14 1301.88 421.599  16
  -2   5 -14 745.067 361.930  20
   5   2 -14 657.599 268.825   1
   5   2 -14 411.233 175.183  14
  -5   2 -14-244.429 318.559  20
   2  -5  14 1342.41 515.845   2
   5   2 -14 59.4938 240.631  10
  -2   5 -14 1136.05 277.255  19
  -2   5 -14 900.269 205.740  18
   2  -5  14 1271.49 417.783   6
   5   2 -14 462.326 226.624  18
   5   2 -14 608.358 404.819   9
   2  -5  14 1096.84 256.978  14
  -5  -2  14 1012.76 386.578   2
   2   5 -14 1180.21 586.728  20
  -2  -5  14 1046.85 319.303  17
  -5  -2  14 1136.20 220.781   4
   2  -5  14 1150.32 232.086  17
   5   2 -14 653.945 328.447  11
   2   5 -14 1028.38 486.955  15
   2   5 -14 714.502 310.629  13
   2   5 -14 53.4338 197.366   1
   2  -5  14 1070.74 397.105  16
  -2  -5  14 966.462 332.899  16
   2   5 -14 987.633 479.475   7
   5  -2  14 1254.64 467.876  16
  -2  -5  14 733.513 291.064   6
  -2  -5  14 929.791 393.678   2
  -2   5 -14 870.706 391.613  15
  -5   2 -14 37.9172 146.609  19
   5  -2  14 894.878 390.625   6
   2  -5  14 1121.04 239.123   8
   5  -2  14 1509.71 314.568   2
  -2   5 -14 447.017 293.025  13
   2   5 -15 46.4584 37.4457  12
   2  -5  15 105.976 168.081   6
  -5   2 -15-182.709 408.991  10
   2   5 -15 93.2126 182.949  18
  -5   2 -15-10.1793 100.241  19
  -2   5 -15 68.6912 100.691  12
   2   5 -15 142.663 201.662  13
  -2   5 -15 304.429 333.930   7
   2   5 -15 246.148 365.763  10
  -2   5 -15 108.217 147.929   3
   5  -2  15 69.8595 141.877   8
   2   5 -15-112.466 53.0936  11
   2   5 -15-357.195 454.576  15
   5   2 -15 104.231 117.738  11
  -2   5 -15 134.461 242.923  20
   5   2 -15-492.119 447.096   9
  -2   5 -15 56.5936 139.021  10
  -5   2 -15-489.958 490.475  20
  -2   5 -15 144.934 252.986  15
   2  -5  15 221.769 235.768   2
  -5  -2  15 111.095 119.623   2
  -2   5 -15 64.5057 49.7306  19
  -2   5 -15 93.0419 199.373  13
   2  -5  15 202.473 201.278  16
  -2   5 -15 92.6263 77.2877  18
   5   2 -15 56.3247 88.2901  18
   2   5 -15 133.365 199.989   1
  -2  -5  15 53.5330 74.4254   2
  -2  -5  15 19.9263 53.9924  16
   2  -5  15 97.3467 56.7747   8
  -5  -2  15 74.9111 94.1441   5
   5   2 -15-544.414 825.860  10
  -5  -2  15 124.734 126.060  17
   2   5 -15-44.9389 322.686   7
   5  -2  15 11.1346 176.257  16
  -5  -2  15 137.041 202.024  16
   2  -5  15 84.2760 74.2222  17
   2   5 -15 83.9734 137.404   3
   5   2 -15 12.7147 34.7162   1
   5  -2  15 62.0448 23.8280   2
   5  -2  15-83.4278 221.143   6
   2  -5  15 63.0569 4.20120  14
  -2  -5  15 68.2030 108.546  17
   2   5 -15 184.337 142.569  20
  -2   5 -15 80.6973 43.4276  11
   5   2 -15 7.78984 73.8942  14
  -2  -5  15 95.5253 111.328   6
  -2   5 -16 990.878 256.137  18
   5   2 -16 398.646 343.052   9
   2   5 -16-5.12471 235.563   1
  -2   5 -16 1255.68 461.498  13
   2   5 -16 1016.73 267.506  12
  -2   5 -16 840.642 308.279  12
  -2   5 -16 725.409 319.261   3
  -2   5 -16 1057.25 296.743  11
  -2   5 -16 1086.18 241.811  19
  -2   5 -16 987.634 505.761  15
  -2   5 -16 803.906 355.839  10
   5   2 -16 536.152 307.005  11
  -5  -2  16 1590.39 494.530   2
  -5  -2  16 2061.04 416.683   5
   2   5 -16 821.981 580.228  20
   2   5 -16 1252.21 629.627  10
  -5  -2  16 1957.44 510.211  17
   5  -2  16 1884.31 401.968   2
   2  -5  16 1422.99 532.913   2
   2   5 -16 1041.34 304.525  18
  -2  -5  16 1451.78 372.213  17
  -5  -2  16 1470.28 512.900  16
  -2  -5  16 380.181 301.211   6
  -2  -5  16 1335.43 460.741   2
  -5   2 -16-1027.42 628.385  20
   2  -5  16 1604.14 329.975  17
   5  -2  16 1488.37 483.019   8
  -2   5 -16 1067.46 469.815  20
   2  -5  16 1608.27 533.465  16
   5   2 -16 300.984 149.686  14
   5   2 -16 864.097 344.574  18
   5  -2  16 1493.91 578.259   6
   2   5 -16-63.6102 464.009   7
   2  -5  16 1350.29 274.735   8
   5  -2  16 1776.22 630.866  16
  -2   5 -16 1148.68 559.781   7
   2   5 -16 1113.41 395.928  11
  -2  -5  16 1408.46 437.703  16
   2  -5  16 672.955 306.515  14
   2   5 -16 1183.59 395.486   3
   5   2 -16 567.227 279.692   1
   2  -5  16 1576.49 535.915   6
   5   2 -17 79.9243 187.495  18
   2   5 -17 316.220 337.532  10
  -2   5 -17 507.771 360.145  13
   2   5 -17 376.975 203.891  12
   2   5 -17 242.295 145.147  18
   2   5 -17 210.332 216.181   3
  -2   5 -17 389.737 284.433   3
  -5  -2  17 409.138 319.728  17
   2   5 -17 158.936 149.451  11
  -2   5 -17 383.397 172.657  11
   5  -2  17 351.030 242.053   8
   5   2 -17 210.461 288.001  11
  -2   5 -17 445.028 334.518  20
  -2   5 -17 208.478 208.116  10
  -2   5 -17 313.518 130.786  19
  -2   5 -17 116.968 227.890  15
   2  -5  17 376.245 152.768   8
   2  -5  17 353.198 141.699   2
  -5   2 -17 18.2071 42.8083  19
   2  -5  17 305.458 252.765  16
   2   5 -17 704.543 508.457  20
  -2  -5  17 399.885 245.959   2
  -2  -5  17-94.8946 106.588   6
   2  -5  17 426.776 421.883   6
  -2   5 -17 295.536 173.234  18
  -5  -2  17 325.831 328.704  16
  -5  -2  17 476.878 219.585   5
   2   5 -17 199.113 360.698   1
  -2  -5  17 423.730 194.922  17
  -2   5 -17 353.838 239.004  12
   2   5 -17 577.922 467.026   9
  -2  -5  17 374.309 237.340  16
  -2   5 -17 466.050 432.944   7
   5  -2  17 196.313 185.731  16
   2  -5  17 423.900 170.291  17
  -5  -2  17 614.874 369.780   2
   5  -2  17 88.0517 150.412   6
  -2   5 -17 396.818 307.991   9
   5  -2  17 396.577 186.298   2
   5   2 -17 192.281 187.524   1
   5   2 -18 296.695 270.676  11
   2   5 -18 660.533 309.303  11
  -2   5 -18 653.805 313.916  12
   2   5 -18 704.121 268.952  18
   2   5 -18 792.219 278.094  12
   2  -5  18 1270.34 285.288   8
  -2  -5  18 991.731 473.781   2
  -5  -2  18 1840.72 402.237   5
   2   5 -18 787.789 333.769   3
   2   5 -18 1039.17 720.571  20
  -2   5 -18 568.487 363.837   3
  -2   5 -18 699.292 262.477  18
  -5   2 -18 44.6914 159.432  19
   2   5 -18 702.794 487.634   9
  -2   5 -18 750.796 295.671  11
   5  -2  18 1554.53 426.406   2
  -2   5 -18 680.722 510.612  20
  -2   5 -18 857.516 490.536  10
  -2   5 -18 808.108 388.482   9
   2  -5  18 1437.77 369.689  17
   2   5 -18-371.155 347.286   1
   5   2 -18 54.6117 64.4399  18
  -2  -5  18 1294.42 398.025  17
   5   2 -18 239.058 210.504   1
   2  -5  18 1629.86 587.557   2
   5  -2  18 1220.62 460.935   8
  -5  -2  18 1564.91 484.629  17
   2   5 -18 1426.56 641.896  10
   2  -5  18 1272.15 506.700  16
  -2  -5  18 1175.95 461.331  16
  -2   5 -18-5.03030 449.174   7
   5  -2  18 1452.42 548.990  16
  -5  -2  18 1569.39 588.442  16
  -2   5 -18-250.935 482.118  15
   5  -2  18 1086.00 492.152   6
  -5  -2  18 1402.00 491.924   2
   2  -5  18 1002.83 533.133   6
  -2   5 -19-257.258 522.768  15
   5   2 -19 292.743 319.805  11
   2  -5  19 2117.94 472.866  17
   2   5 -19 1205.86 355.379  18
  -2   5 -19 768.273 371.831  12
  -5  -2  19 2508.23 493.371   5
  -2   5 -19-383.726 585.803   7
   2   5 -19 1029.84 416.964  11
  -2   5 -19 1083.06 359.792  11
  -2   5 -19 732.812 251.081  18
  -5  -2  19 2210.83 638.386   2
   5  -2  19 2301.98 521.023   2
  -2   5 -19 1174.01 492.294   9
   2   5 -19 1226.38 528.773   9
  -5   2 -19-72.4544 145.383  19
   2   5 -19 810.112 589.336  10
  -5  -2  19 2406.80 631.629  17
   2   5 -19 1264.98 365.055  12
   5  -2  19 783.017 304.723   6
  -2  -5  19 1952.58 647.083   2
  -2   5 -19 537.812 496.079  10
   5   2 -19 74.3394 224.140  18
  -2  -5  19 1921.05 477.101  17
   2  -5  19 1905.42 648.974   2
  -2  -5  19 1636.85 502.403  16
   5  -2  19 1779.76 560.167   8
   2  -5  19 2146.21 689.931  16
   5  -2  19 1918.03 709.772  16
  -5  -2  19 1987.10 680.815  16
   2   5 -19 1042.55 679.285  20
  -2  -5  19-169.167 269.192   6
   2  -5  19 1930.80 351.060   8
   2  -5  19 1420.78 700.125   6
  -2   5 -19 400.000 443.938  20
   5   2 -19 409.982 292.592   1
   5  -3   0-62.4915 147.965   8
  -5   3   0 6.19369 44.6526  19
   5  -3   0 43.0986 80.0496  14
  -5   3  -1 1679.10 418.263  12
   5   3  -1 748.327 386.627   1
  -5   3  -1 1506.04 311.067  19
   5  -3   1 1216.46 282.015   8
   5  -3   1 1180.71 290.461  14
   5  -3   1 1143.28 317.286   6
   5  -3   1 1161.87 284.326   1
   5   3  -2 46.8831 108.322   8
  -5   3  -2 286.758 151.301  12
   5   3  -2 190.256 136.023  18
   5  -3   2 249.900 143.333   6
   5  -3   2 263.221 122.357   8
  -5  -3   2 174.186 176.560  17
  -5   3  -2 271.574 128.810  19
   5  -3   2 249.054 117.843   1
   5  -3   2 256.363 149.972  14
   5   3  -2 164.317 216.672   1
  -5  -3   3-19.9665 211.185  19
   5   3  -3 2073.55 543.049  13
  -5   3  -3 2305.16 657.551   3
  -5  -3   3 485.673 181.118   2
   5   3  -3 1921.87 631.573   1
  -5   3  -3 2115.21 312.513   5
   5  -3   3 1717.81 293.354   8
   5   3  -3 2388.22 530.023  18
   5  -3   3 1982.39 314.962   1
   5  -3   3 2038.13 352.706   6
  -5  -3   3 584.134 311.482  17
  -5   3  -3 2101.51 331.637  19
   5  -3   3 2055.22 344.915  14
  -5   3  -3 2047.18 368.331  12
  -5   3  -3 2035.11 322.628   4
   5   3  -4 442.858 212.897  13
   5   3  -4 569.695 268.141  18
  -5   3  -4 424.734 227.237   3
   5  -3   4 372.118 150.071  14
  -5   3  -4 462.536 184.374  12
   5  -3   4 427.721 164.089   6
  -5   3  -4 440.939 150.715   5
  -5   3  -4 396.304 157.688  19
   5  -3   4 407.064 138.532   1
   5   3  -4 357.971 178.814   8
  -5  -3   4 198.313 207.489  19
   5  -3   4 388.795 138.769   8
  -5  -3   4 275.397 205.162  17
  -5  -3   4 277.284 189.003   2
   5   3  -4 459.293 274.375   1
  -5   3  -4 340.144 145.456   4
   5  -3   5 813.862 200.472   8
   5   3  -5 897.370 251.062  13
   3   5  -5 496.581 118.325  13
  -3   5  -5 943.122 278.141  12
  -5   3  -5 814.721 181.759   5
  -5  -3   5 228.635 198.562   5
  -5  -3   5 506.540 258.098  17
   5  -3   5 847.606 221.389   6
   5  -3   5 964.812 230.658  14
  -5   3  -5 898.788 217.468  19
   5  -3   5 896.949 176.998   1
  -5  -3   5 594.026 204.756  19
   5   3  -5 1172.85 340.882  18
  -5  -3   5 517.976 222.728   2
   5   3  -5 765.194 336.728   1
  -5   3  -5 762.609 219.528  12
  -5   3  -5 882.989 213.341   4
   5   3  -5 976.166 225.775   8
   3  -5   5 295.574 170.496   6
  -5   3  -5 848.256 280.922   3
  -3   5  -5 946.651 405.043   3
   3   5  -6 3462.98 785.278  13
   5   3  -6 2883.96 437.146  13
  -5   3  -6 2508.18 406.777  12
  -3   5  -6 3290.83 498.543  12
  -5  -3   6 1893.84 325.827  16
  -5  -3   6 1977.79 512.054   5
  -5   3  -6 2822.17 340.809   5
   5   3  -6 2719.59 598.132   1
  -5  -3   6 2022.66 411.273   2
   5  -3   6 2973.02 317.877   1
  -5  -3   6 2326.91 377.963  19
  -5   3  -6 2927.83 393.565  19
   5   3  -6 3540.33 562.638  18
  -5   3  -6 16.6756 187.398  13
   5   3  -6 3625.21 342.017   8
   5  -3   6 2647.78 370.007   8
  -5   3  -6 2757.93 394.387   4
  -5  -3   6 2061.38 484.831  17
   3   5  -6 2002.28 483.490  18
   5  -3   6 2874.22 387.986  14
   5  -3   6 3740.36 677.115  16
   5  -3   6 3309.05 465.488   6
   5   3  -6 3199.73 458.104   3
  -3   5  -6 3538.03 705.187   3
   3  -5   6 1799.07 418.398   6
  -5   3  -6 2542.62 472.214   3
   3  -5   7 985.746 317.178  14
  -5   3  -7 771.780 371.719  13
  -5   3  -7 980.228 261.371  12
  -3   5  -7 1306.23 295.025  12
   3  -5   7 752.783 240.063   8
  -3  -5   7 429.366 192.167   6
  -5   3  -7 1155.00 241.278   5
  -5   3  -7 1084.76 123.764  11
   5   3  -7 1069.83 378.481   1
  -5  -3   7 975.854 277.733   2
   5  -3   7 1375.12 231.047   1
  -5  -3   7 989.513 362.229   5
   5   3  -7 1152.46 281.636  13
  -5  -3   7 1183.57 230.485  19
  -5   3  -7 1205.54 258.484  19
   5   3  -7 1326.37 342.192  18
   5   3  -7 1410.84 181.387   8
   3   5  -7 1325.33 413.990  18
  -5  -3   7 947.111 221.963  16
   5  -3   7 1265.04 259.063   8
  -5  -3   7 825.288 287.742  17
  -3  -5   7 152.635 168.603  17
   5   3  -7 1356.91 243.191   3
   5  -3   7 1645.44 410.442  16
  -5   3  -7 1074.35 262.998   4
   3   5  -7 1363.08 392.231   3
   5  -3   7 1458.70 327.228   6
   3  -5   7 937.659 291.937   6
  -3   5  -7 1293.47 386.149   3
   3   5  -7 1394.17 456.810  13
   5  -3   7 1253.89 264.833  14
  -5   3  -7 1071.76 309.653   3
   3   5  -8 2920.72 597.362  13
   5   3  -8 2564.03 452.692  18
   5   3  -8 2653.02 441.171  13
  -3   5  -8 2016.02 700.647  13
  -5   3  -8 2095.67 394.661  12
  -3   5  -8 2769.34 418.847  12
  -3  -5   8 842.360 308.555   2
  -5  -3   8 2455.18 302.006  19
  -5  -3   8 2310.39 511.252   5
  -5   3  -8 2116.10 368.852   5
   5   3  -8 3112.79 564.257  11
  -5   3  -8 2412.63 228.544  11
   5  -3   8 3110.40 424.587   1
   3   5  -8 3087.31 621.676  18
  -5  -3   8 1930.14 403.918   2
  -5  -3   8 2141.68 460.360  17
  -3   5  -8 2693.34 530.303   3
   5   3  -8 2489.16 541.979   1
  -5   3  -8 2301.46 368.162  19
   5   3  -8 2982.92 265.821   8
   5  -3   8 2620.51 383.787   8
  -5   3  -8 2125.50 400.582   4
  -5   3  -8 1680.35 464.992  13
  -5  -3   8 1386.03 371.271   4
  -5  -3   8 2226.12 349.869  16
   5  -3   8 2588.23 387.147  14
   5  -3   8 3517.08 604.639  16
   5   3  -8 3443.80 636.205  20
   3  -5   8 2176.63 397.668   8
  -3  -5   8 942.178 435.976  17
   5  -3   8 2958.40 488.380   6
   3  -5   8 2230.51 434.807   6
  -3  -5   8 1563.20 309.878   6
   5   3  -8 2523.12 322.060   3
   3  -5   8 2531.36 424.973  14
   3   5  -8 2922.15 525.849   3
  -5   3  -8 1908.75 416.652   3
  -3   5  -8 2641.23 351.096   4
  -5  -3   9 1217.75 356.897  17
   3   5  -9 1413.42 408.591  13
  -3  -5   9 886.591 333.197  17
  -3   5  -9 1649.29 610.004  13
  -5   3  -9 976.466 325.197  13
  -5   3  -9 1167.77 320.112  12
  -5   3  -9 1185.94 277.069  20
  -3   5  -9 1622.05 332.312  12
   5   3  -9 1280.71 166.722  12
   3  -5   9 890.471 333.506  16
  -5  -3   9 1287.69 357.642   5
   5  -3   9 1561.82 432.830   1
   5   3  -9 1806.39 428.728  11
  -5   3  -9 1285.70 208.650  11
   5   3  -9 1424.37 389.162   1
  -5  -3   9 1291.08 336.197   2
  -5   3  -9 1166.61 336.016   5
  -5  -3   9 1204.60 271.993  16
   5   3  -9 2290.68 598.665  20
   5   3  -9 2060.21 572.111  10
  -5   3  -9 1035.52 307.207   4
   3  -5   9 1633.82 425.368  17
  -5  -3   9 1070.33 326.324   4
  -3   5  -9 1663.49 263.825   4
   5  -3   9 1723.17 328.291   8
  -3  -5   9 706.843 252.962  16
  -3  -5   9 917.067 376.762   2
   3   5  -9 1593.65 451.238  18
  -5  -3   9 1439.50 223.835  19
  -5   3  -9 1155.58 260.198  19
  -3   5  -9 2385.14 423.701  18
   3  -5   9 1337.83 301.313   8
   5  -3   9 2081.24 474.943  16
   5   3  -9 1547.58 367.424  18
   5  -3   9 1703.31 382.507   6
  -3  -5   9 1116.66 251.971   6
   3  -5   9 1583.09 367.614   6
   3   5  -9 1562.81 356.010   3
   5  -3   9 1526.17 315.830  14
  -3   5  -9 1650.85 395.148   3
   3  -5   9 1553.45 292.765  14
   5   3  -9 104.448 120.133  14
   5   3  -9 1614.12 265.992   3
  -5   3  -9 1064.43 337.261   3
  -3   5 -10 496.727 138.298  18
   5  -3  10 418.059 211.308   6
  -3   5 -10 508.634 336.280  13
   5   3 -10 274.093 162.259  20
   3   5 -10 422.060 193.586   3
  -3  -5  10 249.620 117.712   6
  -5   3 -10 229.702 103.472   4
   3   5 -10 461.936 259.242  13
  -5   3 -10 207.026 191.097  13
  -3   5 -10 417.312 200.338   3
   5   3 -10 305.237 154.094  18
  -5   3 -10 226.724 166.854  11
   3   5 -10 451.455 175.693  12
  -3   5 -10 456.774 97.2625   5
   5   3 -10 385.361 150.681   3
  -5   3 -10-80.9117 157.936   5
   3   5 -10 65.9175 23.1498   1
  -3   5 -10 503.843 180.114  12
   3  -5  10 471.253 149.005  17
  -5   3 -10 402.380 251.292  10
   5   3 -10 419.283 271.742  10
   5   3 -10 364.650 184.678   1
  -3  -5  10 234.202 76.3168  19
  -5   3 -10 287.620 197.214  19
  -5  -3  10 378.321 140.531  19
  -3  -5  10 192.062 182.691   2
  -5  -3  10 402.823 183.992  16
  -3   5 -10 542.290 181.873  19
   3  -5  10 476.311 150.294  14
  -5   3 -10 175.233 248.145  20
  -5  -3  10 297.193 160.242   4
  -3   5 -10 494.537 142.056   4
   5  -3  10 527.927 219.496  14
  -5  -3  10 409.224 234.451  17
  -3  -5  10 163.656 97.9269  16
  -5  -3  10 350.994 175.596   2
   5  -3  10 547.007 215.336   8
   3  -5  10 461.596 149.271   8
   5   3 -10 509.797 231.505  11
  -5  -3  10 305.853 232.300   5
   3  -5  10 289.177 140.968   6
   5  -3  10 487.697 223.585  16
  -5   3 -10 299.952 193.154  15
   5  -3  10-95.3529 230.768   2
   5   3 -10-65.1470 161.276  14
  -3  -5  10 117.146 115.097  17
   5   3 -10 376.152 82.1064  12
   3   5 -10 444.999 184.133  18
   3  -5  10 302.267 129.853  16
   5  -3  11 1276.66 394.477   6
  -5   3 -11 2345.70 595.743  20
  -3   5 -11 1787.04 327.096   4
   5   3 -11 1183.65 161.004  12
  -3   5 -11 1552.27 346.335  12
   3   5 -11 1833.45 334.827  12
  -5  -3  11 1374.42 396.347   5
  -3   5 -11 1304.98 200.922   5
  -5   3 -11 1970.74 508.235  10
  -5   3 -11 1189.53 445.641  11
   5  -3  11 1461.55 486.064   2
   5   3 -11 1191.09 343.066  11
  -5  -3  11 1201.25 334.932  16
  -3  -5  11 1291.17 395.131  16
   5  -3  11 1548.48 351.655   8
   5   3 -11 1347.22 579.693  20
   3  -5  11 1786.39 295.934   8
   5   3 -11 1217.90 325.673  18
  -5  -3  11 1393.55 391.625  17
   3   5 -11 412.561 439.048   1
   5  -3  11 1312.68 365.363  14
  -5   3 -11 588.764 358.918   4
   3  -5  11 1888.43 290.638  17
  -3  -5  11 1292.76 438.803  17
   5   3 -11 1877.27 531.908   9
  -3   5 -11 1921.69 644.673  13
  -3   5 -11 1700.14 349.899  19
   3   5 -11 1910.62 489.321  18
  -5  -3  11 848.908 216.701  19
  -3  -5  11 1101.71 435.704   2
   5   3 -11 889.311 311.911   1
  -5  -3  11 978.715 318.824   2
   3  -5  11 1687.03 492.685  16
   5  -3  11 1542.95 449.443  16
  -3  -5  11 958.746 329.783   6
  -5  -3  11 1243.65 322.538   4
  -5   3 -11 2326.83 588.817  15
   3  -5  11 1560.64 390.403   6
  -3   5 -11 1336.12 205.965  18
   3  -5  11 1582.22 259.365  14
   3   5 -11 1561.55 385.779   3
   5   3 -11-309.509 213.986  14
  -3   5 -11 1384.58 384.128   3
   5   3 -11 1352.50 521.389  10
   5  -3  12-47.5351 44.4346   6
  -3  -5  12 4.07101 74.5314   2
   3  -5  12 307.958 208.258   6
   3   5 -12 18.9097 17.1101  13
  -3  -5  12-29.6255 44.8822   6
   3   5 -12 55.1833 31.9145   3
  -3   5 -12 65.9653 110.317   3
  -3   5 -12 26.9286 54.7780  12
   3   5 -12 29.4589 51.9424  12
   5   3 -12 84.2818 116.658  11
  -3   5 -12 40.0019 43.4715  18
   5   3 -12 98.4668 123.911   1
  -5  -3  12 79.6692 96.5723   5
  -5  -3  12 115.757 109.751  16
   5   3 -12 20.7674 110.531  10
  -5   3 -12 145.432 154.363  10
  -5   3 -12 9.22461 2.93410  19
   3   5 -12 32.1950 89.7659  18
   5  -3  12 58.5244 70.5803   8
   5   3 -12 442.313 336.465   9
  -5   3 -12 25.3548 89.7842   7
  -3   5 -12-9.08108 12.9297  19
   5  -3  12 24.7470 92.5700   2
   5   3 -12 17.5096 64.5173  18
   3  -5  12 216.837 222.525  16
  -5   3 -12 78.1301 112.316   9
  -5  -3  12 40.6809 41.3345  17
  -3   5 -12 8.58939 54.9253   4
  -3  -5  12 55.8125 48.9010  17
   3  -5  12 95.3339 73.2576  17
  -3  -5  12 116.895 124.214  16
   3  -5  12 105.474 78.8198   8
  -5  -3  12 15.1825 45.5759   4
   3   5 -12-110.047 162.601   1
   5  -3  12-57.0165 111.062  16
   3   5 -12 31.1540 100.935   7
  -5   3 -12 26.5830 46.0847  15
   3   5 -12 33.0189 78.0717  15
  -5  -3  12-17.1380 36.7225   2
   5   3 -12-116.758 152.031  14
   5  -3  12 104.229 135.653  14
   5   3 -12 726.938 499.558  20
  -5   3 -12 600.365 348.058  20
  -3   5 -12 110.224 162.220  13
   3  -5  12 66.8230 77.6242  14
   5  -3  13 2388.16 588.979   6
   3   5 -13 1594.53 444.306  13
  -3  -5  13 1839.92 513.720   2
   3  -5  13 2155.93 347.461   8
  -3   5 -13 1589.75 515.184  13
  -3   5 -13 1507.85 353.766  12
   3   5 -13 2004.99 314.811  12
  -5  -3  13 1976.24 428.615   5
   3   5 -13 1973.16 499.345  11
   5   3 -13 1950.97 499.545  11
   5   3 -13 119.686 208.214  14
   5  -3  13 2617.04 503.511   2
  -5  -3  13 1929.83 331.348   4
   3   5 -13 509.997 418.488   1
   5   3 -13 1614.60 432.573   1
  -5  -3  13 1862.51 472.721   2
  -5   3 -13 1192.55 410.019  20
   5   3 -13 1248.77 625.229  20
  -5   3 -13 1116.55 406.636  10
   5   3 -13 1950.55 716.733  10
   3   5 -13 1955.00 409.002   3
   3  -5  13 2276.94 296.240  17
  -5   3 -13 905.336 270.216  19
  -5  -3  13 1846.30 419.935  16
   3   5 -13 2132.41 439.458  18
  -5   3 -13 1103.07 355.878   9
  -3   5 -13 1795.20 242.984  18
   5   3 -13 1792.72 413.171  18
   3  -5  13 2044.79 323.353  14
  -3  -5  13 1632.26 418.610  16
  -3  -5  13 1553.51 423.014  17
  -5  -3  13 2232.48 480.557  17
   3   5 -13 2690.36 756.032   7
   3  -5  13 2201.83 571.798  16
   3  -5  13 1032.17 416.224   2
  -3   5 -13 1321.82 398.901   3
   5  -3  13 2191.68 568.325  14
   5  -3  13 2420.49 454.428   8
   5  -3  13 2489.46 616.888  16
  -5   3 -13 1043.11 459.093   7
   3   5 -13 2446.80 684.909  15
   3  -5  13 2228.36 537.785   6
  -5   3 -13 692.625 295.861  15
  -3   5 -13 2013.56 494.493   4
   5   3 -13 1803.25 645.347   9
  -3  -5  13 739.860 322.664   6
   5  -3  14 309.967 169.775   2
   3  -5  14 371.088 240.781   6
  -3   5 -14 170.659 227.686  13
   5   3 -14 177.584 143.427  10
   3   5 -14 282.403 223.888  13
   5   3 -14 187.213 109.935  18
  -3   5 -14 153.251 103.171  12
   3   5 -14 220.650 109.749  12
  -3   5 -14 103.653 95.6974   3
   5  -3  14 254.056 225.834  16
   3   5 -14 164.520 136.746  11
   3   5 -14 71.5388 183.147  20
  -3   5 -14 410.527 162.872  11
  -5   3 -14 335.652 274.204  20
   5   3 -14 235.426 198.030  11
  -5  -3  14 263.136 115.921   4
  -3   5 -14 236.569 107.398  18
   3  -5  14 253.239 119.785  17
   5   3 -14-306.278 768.230  20
  -5  -3  14 280.757 180.242   5
   3   5 -14 181.288 146.448   3
   3   5 -14 292.466 182.771  18
  -5   3 -14 68.4641 74.4440  19
  -5   3 -14 135.047 112.474   9
   3   5 -14 99.4731 144.778   1
  -3  -5  14 129.394 116.313   2
  -3   5 -14 2.15252 267.871   4
   5  -3  14 355.258 210.488   8
   5   3 -14 123.387 98.1891   1
   5  -3  14 172.166 146.349   6
  -3  -5  14 284.849 200.441  17
  -5   3 -14 31.0628 91.6582  10
  -5  -3  14 309.751 184.658  17
   3  -5  14 246.738 120.683   8
  -3   5 -14 358.703 264.584  15
   3  -5  14 346.438 252.080  16
  -5  -3  14 284.181 178.194   2
   3   5 -14 95.5969 200.567   7
  -5   3 -14-13.6872 104.951   7
  -5  -3  14 182.294 158.195  16
  -3  -5  14 172.951 134.697  16
  -3   5 -14 70.8270 52.3745  20
   3   5 -14 79.4502 150.949  15
  -5   3 -14-52.5944 119.460  15
   5   3 -14 30.5942 58.7294   9
   3  -5  14 45.4244 57.7024   2
  -3   5 -14 279.987 117.511  19
   5   3 -14-139.402 180.527  14
   5  -3  14 280.602 280.953  14
   3  -5  14 265.270 143.816  14
  -3  -5  14 252.507 294.474   6
   3  -5  15 683.812 397.044   6
   5   3 -15 292.610 227.779  11
  -5  -3  15 438.303 250.478  16
  -3   5 -15 413.408 299.955  13
   3   5 -15 617.839 324.655  13
  -3   5 -15 372.527 190.542  12
   3   5 -15 447.530 171.386  12
   3   5 -15 511.172 239.778   3
  -3   5 -15 313.438 219.007   3
   3  -5  15 731.701 327.489  16
   3   5 -15 663.546 275.734  11
  -3   5 -15 475.127 156.670  11
   5  -3  15 764.615 262.370   2
  -3   5 -15 140.627 134.143  20
  -5   3 -15 239.233 176.412  19
   3  -5  15 641.586 407.163   2
  -5   3 -15 181.943 200.667   9
  -5   3 -15 98.5973 137.513  20
   5   3 -15-44.6532 193.450  10
   3   5 -15 571.596 243.387  18
   5   3 -15 545.268 350.716   9
   5   3 -15 430.907 216.159  18
   5   3 -15-216.980 884.679  20
  -3  -5  15 495.843 257.821   2
   5  -3  15 842.961 283.726   8
  -5  -3  15 656.869 251.966   5
  -5   3 -15 150.630 174.693  10
  -3  -5  15 463.123 231.917  17
   3  -5  15 615.057 193.236  17
   3  -5  15 556.000 184.373   8
  -5  -3  15 673.637 299.544  17
  -5  -3  15 499.066 149.832   4
   3   5 -15 898.424 478.348  10
   5   3 -15 362.761 222.059   1
   3   5 -15 188.150 232.848   1
  -3   5 -15 514.144 392.353   7
  -3  -5  15 495.165 258.752  16
  -5   3 -15-170.507 303.999   7
  -5  -3  15 427.850 218.499   2
   5  -3  15 885.541 435.443  16
  -3   5 -15 495.443 175.776  19
   5  -3  15 825.832 436.185   6
   3   5 -15 548.969 450.461  20
  -5   3 -15-102.063 234.130  15
   3  -5  15 650.897 274.405  14
  -3   5 -15 636.144 335.200  15
   5  -3  15 535.900 433.703  14
  -3   5 -15 620.802 339.907  10
   5   3 -15 13.2537 132.554  14
  -3  -5  15 159.926 322.079   6
  -3   5 -15 415.363 156.008  18
   3  -5  16-68.0234 165.062   6
  -5  -3  16 2.25607 34.0339   4
  -5  -3  16 29.5837 124.769  17
  -3   5 -16-123.566 147.215  13
   3   5 -16 198.306 221.970  13
  -3   5 -16-19.9584 61.1588  12
   3   5 -16 40.4052 86.5359  12
   3   5 -16 262.043 388.143   1
  -3   5 -16 162.750 189.658   3
   3   5 -16 21.6015 75.6986  11
  -5   3 -16 70.5216 115.973  19
  -3   5 -16-42.6224 68.5644  11
   3   5 -16 28.1045 178.062  20
   5   3 -16-74.1106 170.790  11
  -5  -3  16 129.236 138.790   5
  -3   5 -16 195.595 219.485  20
   3   5 -16-203.017 233.929  10
   3   5 -16 34.0436 135.662   3
   5   3 -16 301.085 488.541   9
  -5   3 -16 13.7799 92.3926  10
   5   3 -16 730.370 699.142  10
  -3  -5  16 72.4577 110.616  17
  -5   3 -16 81.4817 97.0918   9
  -3   5 -16-16.4073 36.7493  19
   5  -3  16 17.1832 164.354   6
   3  -5  16 235.916 286.006   2
  -3   5 -16 95.6834 144.320  10
   3   5 -16-5.37898 58.2095  18
   5  -3  16 54.8759 144.963   2
   5   3 -16 15.3835 94.3290  18
  -3  -5  16-75.7971 137.708   2
   5  -3  16 88.7817 129.202   8
   3  -5  16 152.847 209.550  16
   3  -5  16 55.3216 64.1448   8
   5   3 -16-100.786 78.7128   1
   3  -5  16 60.1378 65.5702  17
   5  -3  16 16.1212 171.467  16
  -5  -3  16 63.4448 73.5294   2
  -5  -3  16 139.735 179.713  16
  -3   5 -16 49.7618 245.391   7
  -3   5 -16 37.0537 68.7155  15
   3  -5  16 62.9033 133.399  14
  -3  -5  16 14.6698 176.791   6
  -5   3 -16-167.535 119.626  20
  -3   5 -16 20.2170 38.2300  18
  -3  -5  16 13.9714 66.8117  16
   3  -5  17 1431.80 569.040   2
  -5  -3  17 1254.00 403.919  17
  -3   5 -17 705.814 300.270  12
   3   5 -17 854.582 235.550  12
  -5  -3  17 1509.80 392.884   5
   3   5 -17 916.263 363.357   3
   3   5 -17 1171.00 464.333   9
   3   5 -17 1033.01 379.575  11
  -3   5 -17 750.875 378.477   9
   5  -3  17 1537.53 432.127   2
  -3   5 -17 971.826 276.672  11
   5   3 -17 596.465 310.981  11
   3   5 -17 966.411 726.573  20
   5  -3  17 1714.69 466.682   8
  -3   5 -17 455.868 321.479  10
   3   5 -17 1097.86 591.362  10
  -5   3 -17 200.583 186.584  19
  -3   5 -17 571.990 254.121  20
  -3  -5  17 1201.04 386.887  17
  -5  -3  17 1128.15 221.275   4
  -5   3 -17 60.5852 155.865  10
   3   5 -17 845.440 293.494  18
   5   3 -17 592.070 547.686   9
   5   3 -17 607.190 274.705  18
  -5   3 -17-32.3962 92.7226  20
  -3   5 -17 638.416 221.242  18
   3  -5  17 1278.08 330.940  17
  -3  -5  17 1004.78 446.653   2
  -3   5 -17 903.615 458.751  13
   5   3 -17 390.950 812.820  10
  -5   3 -17 51.4586 228.702   9
  -3   5 -17 746.117 210.435  19
   3  -5  17 1456.04 534.849  16
  -3  -5  17 1117.56 406.930  16
   5   3 -17 465.016 232.663   1
   5  -3  17 1628.00 602.850  16
  -5  -3  17 1292.75 473.672  16
  -3   5 -17 695.837 500.254   7
  -5  -3  17 1194.93 439.852   2
   3   5 -17 168.139 326.165   1
   3  -5  17 1090.06 275.595   8
  -3   5 -17 558.923 346.455  15
  -3   5 -17 731.367 397.172   3
   3  -5  17 537.251 356.015  14
  -3  -5  17 10.5807 106.905   6
   5  -3  17 1206.90 472.953   6
   3  -5  17 1340.60 555.328   6
  -5   3 -18-888.533 656.232  20
  -5   3 -18-227.817 235.817  10
  -3   5 -18 673.485 390.907  13
  -5  -3  18 1431.93 394.351   5
  -3   5 -18 665.275 396.458  10
  -3   5 -18 606.230 298.411  12
   3   5 -18 619.501 179.526  12
   3  -5  18 1352.23 560.788   2
   3   5 -18 700.680 312.734   3
  -3   5 -18 664.002 351.656   3
   3   5 -18 769.850 353.145  11
  -3   5 -18 717.161 274.130  11
   5   3 -18 839.729 440.433  11
  -3   5 -18 1110.17 595.898  20
   3   5 -18 900.957 800.268  20
  -3   5 -18 775.193 418.653   9
   5   3 -18 830.489 663.346   9
  -3  -5  18 1211.61 532.789   2
   3  -5  18 1163.76 312.030   8
   5  -3  18 1074.92 352.595   8
   5   3 -18 687.390 351.944  18
  -3   5 -18 404.425 134.650  18
   3   5 -18 1242.01 582.626   9
   3  -5  18 1425.10 377.875  17
   3   5 -18 369.570 476.396  10
   5   3 -18 269.254 273.393   1
  -3  -5  18 1272.91 374.175  17
   5  -3  18 1385.33 394.146   2
   5   3 -18 102.312 480.579  10
  -5  -3  18 1173.27 425.975  17
   3  -5  18 1019.06 432.057  16
  -3  -5  18 815.921 410.896  16
  -3   5 -18 359.035 124.353   7
   5  -3  18 1124.09 465.948  16
  -5  -3  18 804.447 436.028  16
   3   5 -18 579.161 232.267  18
  -5  -3  18 1087.95 446.220   2
   3   5 -18 501.641 292.833   1
  -3   5 -18 98.6522 235.120  15
   5  -3  18 574.066 348.361   6
   3  -5  18 1272.88 554.417   6
  -3  -5  18-10.3147 386.835   6
  -3   5 -19 615.823 453.755  13
  -3   5 -19 682.019 402.595  12
   3   5 -19 935.652 290.925  12
   5   3 -19-95.1158 363.302   9
  -5  -3  19 1655.99 444.240   5
  -5  -3  19 1306.43 456.653  17
   3   5 -19 864.590 396.849   3
  -3   5 -19 773.719 446.873   3
   3   5 -19 1046.98 399.363  11
   5  -3  19 1639.98 423.349   2
  -3   5 -19 593.257 247.837  11
   5   3 -19 394.042 281.603  11
  -3   5 -19 689.887 396.479  10
  -3   5 -19 434.629 462.767  20
   3   5 -19 166.632 391.326  20
  -5   3 -19-658.873 609.618  20
   3   5 -19 887.694 336.699  18
   3  -5  19 1210.74 511.322  16
  -3   5 -19 53.2875 304.468  18
   3  -5  19 1453.41 343.670   8
  -3   5 -19 721.667 455.365   9
   5   3 -19 456.133 265.167  18
   3  -5  19 1527.56 570.288   2
  -3  -5  19 1180.52 392.544  17
   3  -5  19 1463.28 397.682  17
  -5   3 -19 48.1185 90.5440  19
   5  -3  19 1354.62 433.865   8
  -3  -5  19 1082.69 455.278   2
  -5   3 -19-14.3530 345.162  10
   5   3 -19-1385.31 1216.65  10
  -3   5 -19-127.982 400.726   7
  -3  -5  19 1148.45 491.719  16
   5  -3  19 1563.20 660.464  16
  -5  -3  19 1228.97 485.061  16
  -5  -3  19 749.281 385.864   2
  -3   5 -19 141.023 266.268  15
   5   3 -19 213.815 164.810   1
   3   5 -19 211.250 220.750   1
  -3  -5  19-569.321 765.499   6
   5  -3  19 1080.06 582.197   6
   3  -5  19 949.702 589.540   6
   3   5 -19 525.415 497.984   9
   3   5 -19 1060.40 718.757  10
   5  -4   2 53.0027 155.523   6
  -5   4  -2 338.405 146.903  19
   5  -4   2 143.430 67.6708   8
   5  -4   3 168.096 131.102   6
  -5   4  -3 211.438 123.405  12
   5   4  -3 58.4779 126.347  18
   5  -4   3 248.113 150.864  14
  -5   4  -3 326.971 152.444  19
  -5  -4   3 33.9434 47.0445  17
   5  -4   3 161.479 102.494   8
   5  -4   4 248.457 142.512  14
  -5   4  -4 327.648 156.072  19
   5  -4   4 235.271 130.174   6
   4  -5   4 19.7821 87.8583   6
  -5   4  -4 326.778 166.738  12
  -4   5  -4 206.563 74.5398  12
   5   4  -4 209.679 197.847  18
   5   4  -4 69.6446 80.0912   1
   5   4  -4 160.558 125.283  13
  -5  -4   4 17.5391 86.4028  17
   5  -4   4 232.233 128.081   8
  -5   4  -4 326.708 237.117   3
  -5   4  -5 582.216 278.844   3
  -5  -4   5 102.062 163.747  17
   5  -4   5 472.119 179.424  14
   5   4  -5 489.943 253.561  13
   4  -5   5 94.9627 244.340   8
   5  -4   5 417.608 143.670   1
   5  -4   5 516.283 200.625   6
  -5   4  -5 509.650 186.356  12
  -4   5  -5 614.560 229.476  12
  -5   4  -5 548.663 193.592  19
  -5   4  -5 516.220 168.896   4
   5  -4   5 465.069 167.653   8
  -5   4  -5 475.050 142.942   5
   5   4  -5 589.160 261.796  18
   5   4  -5 190.727 109.093   8
   5   4  -5 427.282 349.453   1
  -5  -4   5 29.1083 141.473   2
   4   5  -5 171.915 267.119  13
   4  -5   5 313.876 176.177   6
  -4   5  -5 468.632 294.904   3
   5  -4   6 588.962 218.368   6
   4  -5   6 530.930 247.651  14
  -5   4  -6 583.335 259.723   3
   5   4  -6 604.440 248.512  13
  -4   5  -6 772.117 242.499  12
   4  -5   6 331.329 180.820   6
  -5  -4   6 184.443 58.4302   6
  -5   4  -6 658.918 172.329   5
  -5   4  -6 583.796 183.689   4
   4   5  -6 358.806 170.940  18
   4  -5   6 358.131 159.143   8
  -4   5  -6 661.788 323.524   3
   4   5  -6 472.936 251.620  13
   5   4  -6 648.505 292.652  18
   5  -4   6 510.622 170.284   8
   5   4  -6 558.769 204.385   8
  -4  -5   6 78.1209 111.307  17
   5  -4   6 555.196 146.327   1
   5   4  -6 442.463 310.169   1
  -5   4  -6 676.152 222.250  12
  -5   4  -6 714.806 211.693  19
   5  -4   6 628.485 197.457  14
  -5  -4   6 219.332 160.251   2
  -5  -4   6 317.533 202.861  17
   4   5  -7 2346.55 556.736  13
   5   4  -7 2113.52 433.395  13
  -5   4  -7 2174.33 395.357  12
  -4   5  -7 2445.16 370.165   4
  -4  -5   7 656.523 202.537   6
   5   4  -7 1900.62 609.724   1
  -5   4  -7 2161.52 296.452   5
   5   4  -7 2212.17 492.289   3
   5   4  -7 2478.22 521.721  18
   4  -5   7 1539.95 348.547   8
  -5  -4   7 1079.79 337.771   2
   5   4  -7 2177.72 308.584   8
   5  -4   7 2078.68 342.461   8
  -5  -4   7 1245.55 299.807  19
  -5   4  -7 2212.00 365.820  19
  -4   5  -7 2689.62 524.417  19
   4   5  -7 2131.87 557.230  18
  -5   4  -7 2098.55 480.512   3
  -5   4  -7 2048.40 342.113   4
  -5  -4   7 1168.31 437.004  17
   5  -4   7 2168.39 270.822   1
  -4   5  -7 2228.71 401.794  12
   5  -4   7 2298.84 553.406  16
  -4  -5   7 199.269 213.980   2
  -4  -5   7 363.544 262.020  17
   5  -4   7 2120.05 414.030   6
   4  -5   7 1546.83 385.911   6
  -4   5  -7 2141.72 533.949   3
   5  -4   7 2239.94 357.148  14
   4  -5   7 1952.17 401.428  14
   5  -4   8 208.555 103.295  14
  -5   4  -8 235.742 106.507  19
  -5   4  -8 75.5326 221.421  13
   5   4  -8 23.5539 34.2406   1
   5  -4   8 221.815 86.7979   1
   4   5  -8 258.327 197.414  13
   5  -4   8 153.908 70.8171   8
   5   4  -8 190.090 134.001  13
  -5   4  -8 201.895 113.948   3
   4  -5   8 203.089 125.975   6
  -4  -5   8 150.655 98.8909   6
  -4  -5   8 65.7653 88.8273  17
  -4   5  -8 304.541 143.202  12
  -4   5  -8 237.898 174.685   3
   4   5  -8 358.032 214.825  18
  -5   4  -8 209.592 100.385   4
  -4   5  -8 309.678 142.045  19
  -5   4  -8 198.905 94.3843   5
  -5  -4   8 239.213 120.196  19
   5  -4   8 206.431 140.211   6
  -4  -5   8 41.3589 95.0413   2
  -4   5  -8-505.775 496.921  13
  -4   5  -8 155.840 41.2118   5
  -5  -4   8 85.2560 88.7210   6
  -5  -4   8 149.207 159.567   2
  -5  -4   8 13.2174 92.8372  16
   5   4  -8 231.348 80.2033   8
   5   4  -8 246.151 116.576   3
   5   4  -8 253.436 170.081  18
   4  -5   8 251.618 131.575   8
  -5  -4   8 59.8826 117.494  17
  -4   5  -8 214.138 99.0374   4
  -5   4  -8 141.805 89.6143  12
   5  -4   8 150.054 89.1694  16
   4   5  -8 176.228 159.940   3
   4  -5   8 179.609 96.7863  14
  -5   4  -9 1254.00 314.741   4
   5   4  -9 1256.93 382.108  13
  -4   5  -9 780.732 465.793  13
  -5   4  -9 539.997 530.262  13
   5   4  -9 1033.98 552.878   1
  -4  -5   9 717.489 188.642   6
   5   4  -9 1438.62 403.733  18
  -5   4  -9 1027.42 291.710  12
  -4   5  -9 1487.98 328.002  12
   4   5  -9 1420.12 402.034  18
  -5   4  -9 1415.93 292.262  19
  -5   4  -9 1089.96 240.793   5
  -4   5  -9 1273.85 202.718   5
   5   4  -9 1153.72 151.149   8
  -5  -4   9 328.442 195.411   5
  -4   5  -9 1606.97 343.258  19
   5  -4   9 1613.58 472.606  16
  -5   4  -9 1157.00 372.240   3
   5  -4   9 1222.16 270.739   8
   4  -5   9 1094.35 306.568  17
   5  -4   9 1344.67 213.447   1
  -5  -4   9 729.898 273.938   2
  -5  -4   9-152.587 175.999   6
  -4  -5   9 392.606 146.246  19
   4   5  -9 292.238 303.769   1
  -4  -5   9 372.861 169.877   2
  -4   5  -9 1378.29 270.109   4
   4  -5   9 1243.22 275.762   8
  -4   5  -9 1920.79 343.681  18
  -5  -4   9 1079.41 218.706  19
  -4  -5   9 565.301 305.714  17
   4   5  -9 1335.59 385.768  13
  -5  -4   9 951.066 332.016  17
   4  -5   9 1042.73 296.300  16
  -5  -4   9 896.295 282.499  16
   5   4  -9 295.172 98.4252   7
   4  -5   9 1258.47 185.702   1
   5  -4   9 1503.29 355.975   6
   4  -5   9 1294.89 348.900   6
   4   5  -9 1296.51 323.345   3
   5   4  -9 1397.36 309.872   3
  -4   5  -9 1297.91 379.662   3
   5  -4   9 1312.81 279.550  14
   4  -5   9 1206.40 265.203  14
   4   5 -10 1167.99 359.984  13
  -4   5 -10 911.195 159.670  18
  -4   5 -10 381.834 28.1909  13
   4  -5  10 869.592 282.706   6
  -4   5 -10 836.304 293.529   3
  -4   5 -10 895.666 253.780  12
  -5   4 -10 954.723 346.135   5
  -5   4 -10 1334.70 206.591  11
  -5  -4  10 532.292 448.354   5
   5   4 -10 1038.21 358.262  18
   4  -5  10 713.979 115.185   1
   5   4 -10 947.902 529.978   1
  -5  -4  10 548.771 153.114  19
  -4   5 -10 926.928 247.129  19
  -4  -5  10 537.551 185.257   6
  -4   5 -10 879.808 220.680   4
  -4  -5  10 549.464 313.844   2
  -5  -4  10 687.048 256.909  16
   4   5 -10 895.807 309.456  18
   4   5 -10 487.378 390.891   1
   5  -4  10 935.720 138.219  17
  -5  -4  10 554.998 336.227  17
   4  -5  10 901.620 191.411  17
  -5  -4  10 489.156 228.348   2
  -4  -5  10 426.068 290.292  17
  -5   4 -10 2131.71 846.669  13
   4  -5  10 758.977 200.425   8
   5  -4  10 1320.64 464.825  16
  -4  -5  10 468.221 124.276  19
   4  -5  10 591.793 214.067  16
   5  -4  10 942.244 329.204   6
   4   5 -10 797.840 275.789   3
   5  -4  10 927.378 250.600  14
   4  -5  10 817.955 201.018  14
  -4   5 -10 735.620 147.746   5
   5  -4  10 830.606 305.685   1
  -5  -4  10 8.74646 171.073   6
  -4  -5  10 221.697 138.336  16
   4  -5  11 38.7610 71.3006  14
   5   4 -11 97.0460 139.531   1
   5  -4  11 18.9873 97.8143   6
   4  -5  11-12.5227 75.7560   6
   4   5 -11 11.9467 74.3629   3
   4   5 -11 54.0719 117.930  13
   5   4 -11 169.191 163.602  13
  -4   5 -11 85.6739 105.313   3
   5   4 -11 83.9551 88.1364   3
  -5   4 -11 17.1194 87.5821  12
  -4   5 -11-1.65027 46.1947  12
  -5   4 -11 50.0597 89.9898   3
  -4   5 -11 34.9842 47.4509   5
   5  -4  11-43.1891 75.6214  14
   5   4 -11 21.4490 27.2410  12
   4   5 -11-41.2697 103.082  12
   5   4 -11 17.9551 90.1695  11
  -5   4 -11 13.5786 20.2890  11
  -5  -4  11 44.8822 94.1091   5
   4  -5  11 119.270 132.141  16
  -5   4 -11-11.6812 98.2553   5
   5   4 -11-207.046 283.848  20
  -5  -4  11 67.5729 114.390   2
  -5   4 -11-7.28426 33.4283  19
  -5  -4  11 83.1091 71.9063  19
  -4   5 -11-11.2435 34.9565  19
   4  -5  11 41.7493 15.8256  17
  -4  -5  11 159.035 155.088   2
   5   4 -11-2.94477 77.0993  18
  -5  -4  11-7.56902 40.1981  17
  -5   4 -11-121.040 137.241  18
   4   5 -11-48.4514 33.1544   1
  -5   4 -11 66.8673 120.687   4
  -4  -5  11 31.3424 31.4716  19
   5  -4  11-3.38542 69.1148   1
  -5   4 -11 142.357 249.982  13
  -4  -5  11 127.248 145.514  17
  -4   5 -11-92.2225 168.696  13
   5  -4  11-20.2100 49.6393   8
   5  -4  11 8.80272 35.8591  17
   4  -5  11-2.39954 56.0915   8
  -4  -5  11 48.8212 135.846   6
  -5  -4  11 38.8527 57.6056  16
   5  -4  11 40.3889 105.714  16
  -4   5 -11-8.29583 21.6421  18
  -5  -4  11-232.901 226.872   6
  -4  -5  11 165.552 139.893  16
  -4   5 -11 8.11163 40.5287   4
   4   5 -11 55.8651 62.7643  18
   5  -4  12 480.222 223.434   6
   4  -5  12 485.245 252.778   6
   5   4 -12 417.490 265.526   1
   5   4 -12 585.610 412.864  20
   4   5 -12 335.464 195.389  13
   4   5 -12 360.911 166.324   3
   5   4 -12 498.434 125.274  12
   4   5 -12 530.143 162.242  12
  -5   4 -12 346.308 194.115  12
  -4   5 -12 463.526 212.387   3
  -4   5 -12 220.977 160.626  12
  -5  -4  12 384.119 176.146  16
  -5   4 -12 412.625 245.329   3
   4  -5  12 490.676 125.072  17
   4   5 -12 511.810 254.298  11
  -4   5 -12 408.585 125.166  11
   5   4 -12 557.575 252.849  11
  -4  -5  12 291.882 165.949  16
  -4   5 -12 638.751 257.719   5
  -5  -4  12 355.521 242.298   5
  -5   4 -12 446.189 144.736  11
  -4  -5  12 148.074 66.9434  19
   5   4 -12 860.959 461.802  10
  -5  -4  12 208.757 45.4790  19
  -5  -4  12 210.113 139.477   2
   4  -5  12 468.040 226.029  16
  -5   4 -12 6.21749 54.8340  20
   4   5 -12 660.606 329.687  15
  -4   5 -12 358.434 90.7593  18
  -5   4 -12 301.907 124.724  19
  -4  -5  12 348.963 233.285   2
  -5   4 -12 270.787 147.254   4
   5  -4  12 689.405 319.561  16
   5   4 -12 436.386 166.130   3
  -4  -5  12 236.838 165.921  17
  -5   4 -12 468.481 203.754  10
  -5  -4  12 445.825 217.131  17
   4   5 -12 79.7625 209.687   1
  -4   5 -12 478.719 212.865   4
   5   4 -12 500.261 229.604  18
   4  -5  12 511.081 173.138   8
   5  -4  12 212.148 121.715  17
  -4   5 -12 500.726 172.235  19
   4   5 -12 607.049 353.074   7
  -4   5 -12 355.802 282.014  13
  -5   4 -12 296.768 211.639  13
  -5   4 -12 383.800 253.337  15
   4   5 -12 450.907 226.886  18
   5  -4  12 389.862 151.760   8
   5  -4  12 521.179 197.471  14
   4  -5  12 553.490 172.896  14
  -4  -5  12-67.1167 170.008   6
   5  -4  13 562.868 270.607   6
  -4   5 -13 345.699 285.446  13
  -5   4 -13 194.829 167.531  13
   4   5 -13 381.915 216.511  13
   5   4 -13 398.450 232.381   1
   4   5 -13 402.368 174.876   3
  -5   4 -13 362.932 226.942  12
  -4   5 -13 286.057 166.535  12
  -4   5 -13 294.271 202.853   3
   4   5 -13 448.161 145.015  12
   5   4 -13 413.612 183.004   3
  -5   4 -13 582.035 316.049   3
  -4   5 -13 502.565 156.365  11
   5   4 -13 575.452 251.498  11
  -5  -4  13 579.659 380.908   5
  -5   4 -13 316.867 107.488  11
   5   4 -13 726.782 585.697  20
  -5   4 -13 215.859 97.2846  20
  -5   4 -13 359.832 227.523  10
   5   4 -13 382.960 308.898  10
   5  -4  13 13.5618 225.010   2
  -5   4 -13 377.589 210.764   9
   4   5 -13 306.747 277.277  20
  -4   5 -13 513.891 192.839  19
   5  -4  13 553.247 310.872  16
   4   5 -13 415.988 216.424  18
   5   4 -13 458.115 214.666  18
   4  -5  13 467.479 122.491  17
  -5   4 -13 199.804 157.810   4
  -4   5 -13 425.824 111.733  18
  -4  -5  13 357.168 197.643  17
  -5  -4  13 378.921 222.043   2
  -4   5 -13 355.560 207.570   4
   5  -4  13 412.713 159.071   8
  -5   4 -13 283.156 128.829  19
  -5  -4  13 402.247 237.157  17
   4  -5  13 527.282 180.208   8
   4   5 -13 413.530 284.842   1
   4  -5  13 631.645 300.548   6
  -4  -5  13 312.671 170.973  16
   4  -5  13 408.524 255.314  16
   5   4 -13 441.469 115.451  12
  -5  -4  13 440.913 212.429  16
   4   5 -13 15.6386 332.577   7
  -4  -5  13 310.103 243.013   2
  -5   4 -13 328.599 309.544   7
   4  -5  13 484.721 170.008  14
   4   5 -13 109.780 174.719  15
   4   5 -13 463.023 214.046  11
  -5   4 -13 274.977 234.773  15
   5  -4  13 468.118 216.904  14
  -4  -5  13 60.3867 84.7836   6
   5  -4  14 601.645 302.382   6
   5   4 -14 268.874 183.811  18
   4  -5  14 432.295 259.465   6
   4   5 -14 512.239 398.292  20
  -4   5 -14 235.015 258.075  13
  -5   4 -14 151.401 194.436  13
  -5   4 -14 229.587 251.485  12
   4   5 -14 383.090 190.165   3
  -4   5 -14 259.081 168.991  12
   5   4 -14 270.772 99.5457  12
  -5   4 -14 162.883 87.8420   7
   4   5 -14 316.070 124.020  12
  -4   5 -14 240.954 195.116   3
   5   4 -14 406.688 223.398   3
  -5   4 -14 270.332 243.729   3
   4   5 -14 413.774 235.451  11
  -4   5 -14 378.429 146.117  11
   5  -4  14 187.593 164.265   2
  -5  -4  14 485.749 301.480   5
  -5   4 -14 218.310 144.216  11
  -5   4 -14 76.1984 86.0332  20
   4   5 -14 217.329 215.245  13
   5   4 -14 388.646 497.043  20
  -5   4 -14 158.921 201.460  10
  -5   4 -14 154.518 116.415  19
  -4  -5  14 345.022 204.587  16
   5   4 -14 590.240 477.749   9
   5   4 -14 252.041 226.282   1
  -4  -5  14 244.261 167.612  17
   4  -5  14 396.046 173.634  14
   4   5 -14 409.379 213.075  18
  -4   5 -14 292.908 114.639  18
  -4   5 -14 129.456 209.377  20
  -4   5 -14 197.962 27.6671   4
  -4  -5  14 320.730 246.846   2
  -5  -4  14 351.439 216.475  17
  -5   4 -14 83.9313 83.4200  15
   5   4 -14 230.972 171.576  11
   5  -4  14 365.415 153.375   8
   5  -4  14 340.138 167.301  14
  -5  -4  14 202.257 163.139   2
   4  -5  14 361.612 129.507  17
   4  -5  14 307.736 135.424   8
  -4   5 -14 311.232 153.728  19
   4   5 -14 141.512 214.213   1
   4  -5  14 313.648 175.735  16
   5  -4  14 391.051 274.912  16
  -5  -4  14 497.360 233.629  16
   5   4 -14 547.841 455.318  10
  -4   5 -14 302.600 254.018  15
  -4  -5  14-138.501 267.528   6
  -5   4 -14 407.679 247.605   9
  -4   5 -15 166.378 186.790  15
   5  -4  15 140.807 245.830   2
   4  -5  15 192.644 155.058   6
  -4   5 -15 69.8208 116.546  13
   4   5 -15 152.871 175.558  13
  -5   4 -15 371.417 258.039  13
   4  -5  15-24.6820 46.2060  16
   5   4 -15 143.335 86.6084  12
   4  -5  15 119.737 112.982   2
  -4   5 -15 26.4548 79.4884  12
   4   5 -15 40.1164 85.4129   3
  -4   5 -15 66.5185 119.512   3
   5   4 -15 269.381 182.018   3
   5   4 -15 224.619 229.391   1
  -5   4 -15 43.4474 156.107  10
   4   5 -15 245.966 313.103  10
  -5   4 -15 243.947 274.724  20
   5   4 -15 56.9068 157.485  11
  -4   5 -15 45.8266 46.6851  11
  -4   5 -15 156.264 215.600  10
  -5  -4  15 223.293 207.098   5
  -5   4 -15 135.977 100.214  11
   5   4 -15 502.307 497.459  10
  -4   5 -15 106.547 219.304   7
  -4  -5  15 109.882 106.439  16
  -5   4 -15 54.2656 75.1162  19
   5   4 -15 91.1684 302.561  20
  -5  -4  15 70.3929 105.646  16
   4   5 -15 132.586 115.450  18
   5   4 -15 69.1502 92.9464  18
  -4   5 -15 18.5728 18.8134  18
   4   5 -15 335.414 405.880  20
   5   4 -15 484.860 409.651   9
  -4   5 -15 147.385 105.580  19
   5  -4  15 50.6964 66.5963   8
   4   5 -15 89.0980 181.383   1
   4   5 -15 74.4935 165.825  11
  -5  -4  15-16.3093 89.7927  17
   4  -5  15 117.169 96.4194   8
  -5   4 -15 112.644 153.436   9
  -5  -4  15 86.7769 119.601   2
   4  -5  15 94.6643 84.8515  17
  -4  -5  15 285.805 235.818   2
  -5   4 -15 168.639 276.681  15
  -4   5 -15 0.23000 104.764  20
   5  -4  15 162.572 165.533  16
  -4  -5  15 9.03140 27.7536  17
  -5   4 -15 83.8390 232.683   7
  -4  -5  15 84.3217 79.2003   6
   5  -4  15 255.148 241.209  14
   4  -5  15 80.5533 107.824  14
   4   5 -15 121.005 86.0536  12
   5  -4  15 68.6848 142.153   6
   4  -5  16 63.7090 177.796   6
  -5  -4  16 281.901 180.729  16
  -4   5 -16-199.194 199.266  13
   4   5 -16-44.4450 162.159   1
   4   5 -16 361.570 301.159  13
   4   5 -16 187.430 105.240  12
   5   4 -16 299.419 154.343  12
  -4   5 -16 215.369 183.013  12
  -4   5 -16 194.636 204.599   3
  -5   4 -16 113.108 239.844  20
   4   5 -16 299.625 220.594  11
   5   4 -16 13.7411 66.9688   1
   5   4 -16 323.697 244.398  11
  -4   5 -16 162.335 134.232  11
  -5  -4  16 291.191 174.675   5
   5   4 -16 302.946 265.877  10
  -4   5 -16-21.6271 162.642  20
   4   5 -16 571.357 530.926  20
  -4   5 -16 78.8518 99.9913  10
  -4   5 -16 563.220 343.161   9
  -4   5 -16 202.133 224.591   7
  -5   4 -16 140.996 234.230   7
   5   4 -16 259.301 275.478   9
  -5  -4  16 260.430 187.602  17
  -4   5 -16 233.926 127.912  19
  -4  -5  16 302.721 196.747  16
   5   4 -16 265.842 191.375  18
   5  -4  16 304.299 164.028   8
  -4   5 -16 202.626 111.958  18
   4  -5  16 278.817 148.797  17
   5  -4  16 368.179 261.127   2
  -5   4 -16-230.996 275.568  11
   4   5 -16 73.0670 89.4119  18
   4   5 -16 211.180 130.402   3
   4  -5  16 197.043 260.190   2
   4  -5  16 193.446 135.654   8
  -4  -5  16 301.081 262.578   2
   4   5 -16 34.7820 179.459  10
  -5   4 -16 216.448 258.491  10
   4   5 -16 721.279 470.074   9
   5  -4  16 247.126 235.246  16
   5  -4  16 276.824 219.469   6
  -5   4 -16 40.2628 81.4605  15
  -5   4 -16 158.649 188.249   9
  -4   5 -16 128.638 140.734  15
  -5   4 -16 105.238 118.617  19
  -4  -5  16 87.8508 269.601   6
   5  -4  16 486.165 336.906  14
  -5  -4  16 210.567 170.994   2
   4  -5  16 325.165 249.540  14
   5   4 -16 436.501 560.931  20
  -4  -5  16 223.671 202.341  17
   4  -5  16 536.010 354.020  16
  -4   5 -17 198.971 172.874  12
   5  -4  17 218.779 176.393  14
   4   5 -17 271.503 183.190  12
  -4   5 -17 207.749 341.629  20
   4   5 -17 403.358 279.392   3
  -4   5 -17 282.714 241.452   3
  -5   4 -17 91.4407 95.3501  19
   5   4 -17 64.4584 215.409   1
   5   4 -17 76.8762 531.510  10
  -5   4 -17 278.678 259.182  20
   4   5 -17 253.598 260.197  11
   4   5 -17 225.364 167.444  18
   5   4 -17 436.495 323.315  11
   4   5 -17 645.468 680.906   9
  -4   5 -17 115.569 61.1427  11
  -5  -4  17 193.665 184.962   5
   4   5 -17 385.638 876.090  20
   5   4 -17-729.624 201.143  20
   5   4 -17 240.329 431.796   9
  -4   5 -17 280.111 225.331   9
  -5   4 -17 103.497 123.293   9
   4  -5  17 298.564 278.059   2
   5   4 -17 396.088 278.591  18
   5  -4  17 525.038 306.043   2
  -4  -5  17 110.509 73.0549   2
  -4   5 -17 97.1973 142.315  13
   4  -5  17 271.314 173.780   6
   4  -5  17 382.289 166.593   8
  -5   4 -17-86.9172 203.847  10
   4   5 -17 206.354 680.116  10
  -4   5 -17 158.401 151.678  10
  -5  -4  17 318.065 231.331  17
   5  -4  17 368.060 158.558   8
  -4   5 -17-189.934 307.364  18
  -5  -4  17 202.457 204.776   2
   4  -5  17 399.009 275.927  16
  -4  -5  17 193.867 218.718  16
   4  -5  17 264.292 206.636  14
  -5   4 -17-43.2016 209.453   7
   5  -4  17 382.351 276.834  16
  -5  -4  17 250.404 234.736  16
   4   5 -17 68.2161 586.439   1
  -4   5 -17 271.207 304.016   7
  -4  -5  17 317.997 224.248  17
   4  -5  17 333.040 172.089  17
  -5   4 -17-332.238 434.968  15
  -4  -5  17-760.996 630.068   6
  -4   5 -17 191.174 127.119  19
   5  -4  17 576.073 390.683   6
  -4   5 -17 144.431 58.7883  15
   5   4 -18-683.972 723.927  10
   4  -5  18 284.998 160.960   8
  -4   5 -18 48.0719 82.1104  19
  -4   5 -18 135.831 206.425  12
  -4  -5  18 200.075 192.214   2
   4   5 -18 331.017 191.261  12
   4   5 -18 227.144 209.157   3
  -4   5 -18 344.528 316.320   3
   4   5 -18 443.778 300.483  11
   5   4 -18 193.908 168.895  11
   4   5 -18 582.781 638.959  20
  -4   5 -18 145.610 136.618  11
  -5  -4  18 125.833 86.7076   5
  -4   5 -18 724.322 490.125  20
  -5   4 -18 88.8217 79.7990  20
   5   4 -18 89.7442 192.753   1
  -5   4 -18-167.389 188.449  10
  -5   4 -18 78.9494 98.0992  19
   5  -4  18 383.768 286.942   2
  -4   5 -18 78.4264 21.2711   9
   4   5 -18 271.834 406.378  10
   5   4 -18-55.7492 191.848   9
  -5   4 -18-114.931 115.395   9
   4   5 -18 694.331 521.906   9
   4  -5  18 276.389 157.053   2
   4   5 -18 161.918 162.975  18
   5   4 -18 55.8071 99.8571  18
  -4   5 -18 225.703 285.240  10
   5  -4  18 195.583 146.217   8
   4  -5  18-26.2438 283.816  17
  -5  -4  18 259.406 160.853  17
  -5  -4  18 203.951 164.385   2
  -4   5 -18 171.281 242.469  13
  -5   4 -18-390.995 563.040   7
   4  -5  18 191.244 223.698  16
  -4  -5  18 325.053 259.560  16
   5  -4  18 497.397 349.600  16
  -5  -4  18 101.578 111.251  16
  -4   5 -18 23.9664 229.235   7
  -4   5 -18-158.234 289.165  15
   4  -5  18 305.313 297.011  14
   4   5 -18-220.839 124.765   1
  -5   4 -18-424.211 436.036  15
   5  -4  18 133.819 191.736   6
   4  -5  18 312.981 262.510   6
  -4  -5  18 200.684 151.904  17
  -5   5  -4 363.652 163.705  12
   5  -5   4 158.530 208.277   6
   5  -5   4 18.3269 286.939   8
   5  -5   5 21.3301 67.1758  14
   5  -5   5-28.1940 77.5336   6
  -5   5  -5-10.0801 34.5404  12
  -5  -5   5 120.140 226.175  17
   5   5  -5-83.7651 131.033  18
   5  -5   5-103.050 144.939   8
  -5   5  -5-145.229 242.498   3
   5  -5   6 411.761 198.158  14
   5   5  -6 471.725 263.255  13
   5  -5   6 316.780 190.121   6
  -5   5  -6 535.955 201.867  12
   5   5  -6 326.136 226.557  18
  -5   5  -6 472.717 187.091  19
   5  -5   6 368.407 182.433   8
  -5  -5   6 27.7495 61.6426  17
  -5   5  -6 449.023 175.089   4
  -5   5  -6 477.094 289.199   3
   5  -5   7-39.2014 53.8167  14
   5   5  -7-79.2587 113.581  13
   5  -5   7 23.1356 96.6928   6
  -5  -5   7-21.2959 73.0532   6
  -5   5  -7-15.8431 48.6439  12
   5   5  -7 61.5212 97.2728   1
  -5  -5   7-444.379 249.684   2
  -5   5  -7-26.0830 37.5959   4
  -5  -5   7-15.9325 80.0358  17
  -5   5  -7-16.3865 74.1516   5
   5   5  -7 37.2489 114.025  18
  -5   5  -7-18.1926 83.5887   3
  -5   5  -7-39.1908 73.6527  19
   5  -5   7-11.2236 33.4664   8
   5  -5   7-59.8390 114.996   1
   5   5  -8 1745.82 465.139  13
  -5   5  -8 1618.47 447.141   3
   5   5  -8 1814.03 512.730  18
  -5   5  -8 1704.64 371.222  12
   5  -5   8 1316.79 305.400   8
  -5   5  -8 1627.00 321.232   4
  -5   5  -8 1698.44 273.446   5
  -5  -5   8 920.273 449.214  17
  -5   5  -8 1852.80 378.827  19
  -5  -5   8 932.512 207.605   6
   5  -5   8 1493.36 249.668   1
  -5  -5   8 748.061 359.892  19
  -5  -5   8 583.005 280.474   2
   5   5  -8 1236.72 616.437   1
   5  -5   8 1493.64 359.533   6
   5  -5   8 1532.17 336.012  14
  -5   5  -9-58.2264 76.1039  18
  -5  -5   9-7.65402 45.8564   6
  -5   5  -9-52.8791 68.5889   3
   5  -5   9-51.4061 50.4151   6
  -5   5  -9-12.0865 35.3561   5
  -5   5  -9 25.1533 59.8564  12
   5   5  -9-25.5476 78.3982  13
   5  -5   9-486.738 510.127  16
  -5  -5   9-117.672 124.828   2
   5   5  -9-67.9041 101.626  18
   5   5  -9-22.7472 131.755   1
   5   5  -9-49.3820 54.1841   8
   5  -5   9-73.6459 74.0040  17
  -5  -5   9-132.245 200.555  17
   5  -5   9-29.1964 60.0408  14
  -5   5  -9 9.94468 46.9001   4
   5  -5   9-14.0512 20.7071   1
  -5   5  -9 32.0139 55.4076  19
   5  -5   9-35.7363 41.9609   8
   5   5  -9-44.3826 49.4083   3
  -5  -5   9-97.7743 92.1059  19
  -5   5 -10 89.7653 271.342  13
   5   5 -10 8.38395 91.5692  13
  -5   5 -10 51.2896 94.0498   3
   5  -5  10 11.5801 28.9953  14
   5   5 -10 40.1166 57.6512   3
  -5   5 -10 7.92884 31.7442  19
   5  -5  10 14.6228 59.7172   6
  -5  -5  10 76.6478 85.1392  19
  -5  -5  10 67.9612 108.235   6
  -5   5 -10 48.8998 55.4540   5
   5   5 -10 33.5679 30.2964   8
  -5  -5  10 51.6995 155.095   2
  -5   5 -10 38.4902 27.6919  18
   5   5 -10 123.964 140.786  18
  -5   5 -10 69.9735 101.131  12
  -5  -5  10-196.080 211.697  16
  -5  -5  10 97.0750 156.421  17
   5   5 -10 68.5897 210.461   1
   5  -5  10 87.7764 78.9085   8
   5  -5  10 76.6639 44.8007  17
  -5   5 -10 41.0954 57.7007   4
   5  -5  10-42.8510 237.563  16
   5  -5  10 25.4119 12.7846   1
   5   5 -11 52.9035 95.3286  13
   5   5 -11-34.2638 92.1125   3
   5  -5  11 4.16393 44.2952   6
  -5   5 -11 77.3305 288.294  13
  -5   5 -11 28.4550 36.4738  18
  -5   5 -11-77.4620 157.524   3
   5  -5  11 5.29042 12.8578   1
  -5   5 -11 27.5537 58.8307  12
  -5   5 -11-20.6216 54.2773   5
  -5  -5  11-45.9564 106.400  16
  -5  -5  11 49.8855 47.5239  19
  -5  -5  11 50.1911 121.356  17
  -5   5 -11 28.6633 72.0277  19
   5  -5  11-7.95623 97.9539  16
   5  -5  11 1.06539 37.5024  14
   5   5 -11 32.1938 66.9033  18
   5   5 -11 18.3634 141.240   1
   5  -5  11 15.1029 50.7881   8
   5  -5  11-7.43335 14.1112  17
  -5   5 -11-37.6275 64.0299   4
   5   5 -11 34.7702 103.511   7
  -5  -5  11 62.9934 146.354   2
   5   5 -11-116.170 42.0250  15
  -5  -5  11 8.77469 49.9548   6
  -5   5 -12 221.675 261.655  13
   5   5 -12 310.839 169.434   3
   5   5 -12 245.403 187.033  13
  -5   5 -12 249.530 175.315   3
  -5   5 -12 53.9734 67.2938  12
   5   5 -12-131.684 321.073  12
   5   5 -12 295.316 185.516  11
  -5   5 -12 178.528 81.9181  11
  -5   5 -12 271.142 148.610   5
  -5  -5  12 202.786 203.530   2
  -5   5 -12 200.279 105.297  19
   5  -5  12 254.536 114.272  14
   5   5 -12 269.279 173.158  18
  -5   5 -12 204.326 64.7270  18
   5  -5  12 305.442 186.004   6
   5   5 -12-231.493 411.896   7
  -5  -5  12 355.929 244.610  17
  -5  -5  12 152.869 70.0638  19
  -5   5 -12 217.569 156.380   4
   5  -5  12 314.420 90.9133  17
   5  -5  12 276.221 141.315   8
   5   5 -12 324.616 278.408   1
  -5  -5  12 291.483 150.870  16
   5  -5  12 305.472 210.343  16
   5  -5  12 35.3904 76.2192   1
  -5  -5  12 91.7036 178.545   6
   5  -5  13-18.4392 75.2652   6
  -5   5 -13-0.86758 161.964  13
   5   5 -13 53.9555 124.239  13
   5   5 -13 7.73990 57.8104   3
  -5   5 -13 1.66376 47.8479   3
  -5   5 -13-43.6509 109.355  12
   5   5 -13 22.9234 1.77561  12
   5   5 -13-82.5379 89.9943  11
  -5   5 -13-3.24283 47.6049  11
   5   5 -13 95.3683 90.9055  20
  -5   5 -13 63.2161 60.5717  19
   5  -5  13-66.1304 80.6427   8
   5  -5  13-7.57213 11.6059  17
   5   5 -13 66.7340 129.116  18
  -5  -5  13 36.7071 84.6785  17
  -5   5 -13 36.8928 12.9149  18
  -5  -5  13 164.019 220.510   2
  -5  -5  13-62.3651 108.738  19
   5  -5  13 80.5885 75.0941  16
  -5   5 -13 45.7159 100.441   4
  -5  -5  13 66.5460 76.9660  16
   5   5 -13 57.8432 189.312   1
  -5  -5  13 71.1192 126.367   6
   5  -5  13-48.7683 109.584  14
   5   5 -14 611.352 294.433  13
   5  -5  14 695.946 186.191  17
   5   5 -14 522.659 209.285   3
  -5   5 -14 221.191 166.073  12
  -5   5 -14 440.934 318.726   3
   5   5 -14 555.331 153.970  12
  -5  -5  14-82.7195 164.459   6
   5   5 -14 442.573 270.815  11
  -5   5 -14 620.876 171.702  11
   5   5 -14 631.398 467.910  20
   5   5 -14 839.905 553.540  10
   5  -5  14 809.897 377.534  16
  -5   5 -14 549.896 300.603  10
   5   5 -14 628.515 270.941  18
  -5   5 -14 312.482 121.491  18
  -5  -5  14 628.287 346.270   2
  -5   5 -14 351.300 194.220   4
  -5   5 -14 388.819 171.559  19
   5  -5  14 451.840 189.683   8
   5   5 -14 442.336 377.468   1
  -5  -5  14 447.607 218.342  16
  -5   5 -14 1101.10 449.225  20
  -5   5 -14 1056.20 592.220  13
  -5  -5  14 540.298 289.692  17
  -5   5 -14 565.832 306.306  15
   5  -5  15 36.0154 146.050   6
  -5   5 -15-8.69277 20.6490  13
   5   5 -15-1.62428 111.106  13
   5   5 -15 67.7194 93.2168   3
  -5   5 -15-48.3630 86.5121  12
   5   5 -15-2.38111 37.4925  12
  -5   5 -15 22.9138 176.466   3
  -5   5 -15 116.986 114.624  11
   5   5 -15 308.225 267.105   1
  -5   5 -15-175.235 199.606  20
   5   5 -15 95.4495 280.252  10
  -5  -5  15-32.5032 86.2000   2
  -5   5 -15-47.3481 64.8261  19
   5  -5  15 27.8140 68.3858   8
  -5   5 -15-414.399 522.113   4
  -5  -5  15 138.868 184.993  17
   5  -5  15 17.1940 53.0667  17
   5   5 -15 41.8908 61.5885  11
  -5  -5  15 40.6941 21.3323  16
   5  -5  15 117.300 202.650  16
   5   5 -15-23.8871 87.4869  18
  -5   5 -15 109.479 241.919   7
  -5   5 -15-147.587 46.9013  15
  -5   5 -15 140.262 134.784  10
   5   5 -15 455.656 595.178  20
   5  -5  15 107.165 133.843  14
   5   5 -16 134.783 241.154  13
  -5   5 -16 90.1275 178.054  12
   5   5 -16 175.113 171.906   3
   5   5 -16-63.3824 77.2009  12
  -5   5 -16-17.8094 85.1751   3
   5   5 -16-186.772 475.471  20
   5   5 -16 539.007 557.837   9
   5   5 -16-87.5922 206.302  10
   5   5 -16-48.2403 140.739  11
   5  -5  16-1.53794 35.0784   8
  -5   5 -16 34.1222 38.3176  11
  -5   5 -16 10.5870 98.5622  20
   5   5 -16 250.654 563.550   1
   5  -5  16-153.277 438.664   2
  -5   5 -16 5.52761 80.5695   9
   5  -5  16 132.283 122.313   6
   5   5 -16 52.7247 102.948  18
  -5   5 -16 24.3081 194.018  13
  -5   5 -16 22.1778 56.1850  19
  -5  -5  16-14.1023 151.014   2
  -5  -5  16 26.4755 68.1833  17
  -5  -5  16 79.8643 157.870  16
   5  -5  16-70.7849 181.703  16
  -5   5 -16 105.913 53.8487  10
  -5   5 -16-25.9096 230.303   7
  -5   5 -16-141.609 270.169  15
   5  -5  16 44.6611 128.994  14
  -5   5 -17 45.4640 42.3596  13
   5   5 -17 453.585 281.649  12
  -5   5 -17-66.7629 89.2577  12
  -5   5 -17 472.241 403.225   7
   5   5 -17 986.294 392.128   3
  -5   5 -17 242.698 179.222  10
  -5   5 -17 22.4891 188.389   3
   5   5 -17 3398.75 1094.86   1
   5   5 -17 1389.63 572.417  11
  -5   5 -17 217.303 170.064  11
   5   5 -17 4451.31 1508.76  10
  -5  -5  17 502.812 422.149  17
   5  -5  17-55.1877 321.102   2
   5   5 -17 3348.94 1142.26   9
   5   5 -17 603.333 443.924  13
   5   5 -17 731.435 384.875  18
   5  -5  17 24.3701 72.0248  16
  -5  -5  17 726.402 486.261   2
   5  -5  17 170.750 158.291   8
  -5   5 -17 339.702 278.664  20
  -5  -5  17 891.092 383.879  16
  -5   5 -17 125.607 121.595  19
  -5   5 -17 157.817 52.6199   9
  -5   5 -17 452.674 295.612  15
   5  -5  17 244.804 286.249  14
   5  -5  17 42.6181 119.685   6
   5   5 -18 442.987 273.978  18
   5  -5  18 410.250 480.791   2
  -5   5 -18 113.783 35.1817   7
  -5   5 -18 393.013 286.489  12
   5  -5  18 252.974 204.613   6
   5   5 -18 529.208 318.913   3
   5   5 -18 790.772 421.234  11
  -5  -5  18 214.218 286.293   5
  -5   5 -18 315.242 176.433  19
  -5   5 -18 143.179 89.1507  11
   5   5 -18 858.469 652.170   9
   5   5 -18 831.303 731.633  10
  -5   5 -18 210.922 323.208  15
  -5   5 -18 247.615 280.790   9
  -5   5 -18 460.489 422.012  10
  -5  -5  18 492.682 325.938  17
   5  -5  18 760.834 432.885  16
  -5  -5  18 337.804 230.669  16
   5  -5  18 430.804 424.039  14
   5  -5  18 526.563 237.371   8
  -5  -5  18 318.036 273.817   2
  -6   0   0 112.573 76.4789   3
  -6   0   0 152.309 63.3594  12
   6   0   0 352.337 130.026  11
  -6   0   0 173.416 129.095   4
  -6   0   0 181.869 106.080  19
   6   0   0 269.989 144.928   1
  -6   0   0 194.323 121.997   5
  -6   0   0 165.860 77.3673   2
   6   0   0 264.956 124.073   8
  -6   0   0 192.376 111.623  17
   6   0   0 314.134 124.517  18
   6   0   0 285.803 115.110   6
   6   0   0 231.410 132.641  14
   6   0   1 10.6265 25.0426   6
   6   0  -1-15.5709 31.5058   6
  -6   0  -1-11.2795 37.4452   2
   6   0   1 16.3873 48.1513  14
  -6   0  -1 69.3667 90.1438  12
  -6   0  -1 4.30878 40.2421   3
  -6   0   1 26.9010 61.9551  12
   6   0   1-3.01385 17.2411  11
  -6   0   1-0.12129 23.2751  17
   6   0  -1 20.7098 45.3050  11
   6   0   1-20.9676 44.5720   1
  -6   0   1 5.30154 21.5872   5
   6   0   1 10.7972 17.0640  18
  -6   0  -1 11.7660 23.1931   5
   6   0  -1-7.37555 28.0266  18
  -6   0   1-0.28956 35.0925  19
  -6   0  -1-19.7352 20.3407  19
   6   0  -1 4.34769 34.4338   8
  -6   0  -1-38.7104 79.2434   4
   6   0  -1 16.4298 15.6471   1
  -6   0   1 14.4679 11.9722   4
   6   0   1-20.9265 54.8336   8
  -6   0   1-7.24888 26.2491   2
  -6   0  -1 6.82471 2.98435  17
  -6   0  -1 47.5541 88.0815  15
   6   0  -1-38.5697 72.2461  14
   6   0  -2 243.993 81.8109   6
   6   0  -2 221.682 100.394   8
   6   0   2 298.259 167.244   1
  -6   0   2 237.982 151.342  12
   6   0  -2 347.028 178.778  11
  -6   0  -2 214.706 133.591   5
  -6   0   2 221.145 120.337  19
  -6   0   2 260.988 125.300   5
  -6   0  -2 234.966 134.821  19
   6   0   2 307.055 150.252   6
   6   0   2 371.880 118.151  18
   6   0   2 307.119 139.762   8
  -6   0   2 190.015 107.795   4
  -6   0  -2 173.558 124.496   4
  -6   0  -2 185.787 97.3005  17
  -6   0   2 188.907 109.579  17
   6   0   2 356.471 111.569  16
   6   0  -2 233.977 116.860  18
  -6   0   2 156.808 71.0408   2
  -6   0  -2 227.006 151.234   7
  -6   0  -2 242.169 114.573  15
   6   0   2 287.114 156.427  14
   6   0  -2 218.570 123.386   1
   6   0  -2 253.942 144.253  14
  -6   0  -3 3.22816 55.1103   4
   6   0  -3 17.2894 31.7764   6
   6   0  -3 23.0159 39.6406   1
   6   0  -3 5.63439 40.4458   8
   6   0  -3 54.1032 98.0742  11
  -6   0  -3 7.90770 35.0019   5
  -6   0  -3-28.1619 58.3586  19
   6   0  -3 19.8626 49.1998  18
   6   0   3-6.53888 37.1068  18
   6   0   3-3.36404 48.3634   8
  -6   0  -3-22.1365 38.2185  17
  -6   0   3 38.2696 73.0911  17
  -6   0  -3 73.1650 96.9843   7
  -6   0   3 32.9938 48.1734   4
   6   0   3 17.2076 50.7329  16
  -6   0  -3-16.8218 27.3396  15
  -6   0   3 34.6925 39.8652   5
  -6   0   3 8.85282 31.8617   2
  -6   0   3 32.5297 64.7920  19
   6   0   3-6.36412 46.0449  14
   6   0   3-46.9618 87.0195   1
   6   0  -3 36.9218 46.2527  14
   6   0   3 24.5736 41.9027   6
  -6   0   4-7.41949 52.5857   5
   6   0  -4 24.6622 47.6723   1
   6   0  -4 24.6729 20.8538   6
  -6   0  -4 13.6078 82.9869   5
   6   0  -4-66.2046 134.025  11
   6   0   4-1.73646 20.4533  16
   6   0   4 45.7693 86.2312   1
  -6   0  -4 20.7306 33.8297  17
   6   0   4-25.3017 39.5854  18
   6   0  -4 50.7985 89.8545  18
  -6   0  -4 82.1015 116.901   4
  -6   0   4-5.01095 27.6902  19
   6   0  -4-27.0443 42.3270   8
   6   0   4 21.0832 50.7741   8
  -6   0  -4 27.4113 25.5641   7
  -6   0   4 25.9635 60.6153   4
  -6   0   4 25.1539 50.2230  16
  -6   0  -4-20.4283 68.0045  15
  -6   0   4-18.0051 31.5257   2
  -6   0  -4 19.8842 73.7959  19
   6   0   4 13.6530 8.25079  14
   6   0   4-28.9957 42.4525   6
   6   0  -4-4.41464 36.5118  14
  -6   0   4 20.5988 55.8002  17
   6   0  -5 63.1900 63.4453  14
   6   0  -5 70.1403 104.572   1
   6   0  -5-4.60215 49.3142  18
   6   0   5 10.1759 19.6914   8
   6   0  -5-14.0783 93.8142  11
   6   0   5-22.3086 80.2145  16
  -6   0  -5-91.1013 126.028  19
  -6   0   5 63.6515 95.4382  19
  -6   0   5 110.940 109.856   5
  -6   0  -5 36.9523 89.7784  17
   6   0   5 5.12180 41.2412  18
  -6   0  -5-89.5544 171.055   4
  -6   0   5 124.300 110.043   2
   6   0   5 117.232 140.611   1
  -6   0   5 80.0148 123.273  17
   6   0  -5 234.011 138.630   8
  -6   0  -5-92.5051 202.212   7
  -6   0   5 68.3344 77.7052   4
  -6   0   5-21.3864 119.728  16
  -6   0  -5-178.583 218.469  15
   6   0   5 26.9979 106.654  14
   6   0   5 18.0014 36.3201   6
  -6   0   6 718.465 223.358   5
   6   0  -6 601.713 269.363  11
  -6   0  -6 258.490 234.741  19
  -6   0   6 691.230 200.465  19
  -6   0   6 538.503 205.112   2
   6   0   6 404.314 261.449   1
   6   0   6 734.615 278.659  16
  -6   0   6 655.254 186.096   4
   6   0   6 788.643 313.927   8
   6   0  -6 501.333 132.261   8
  -6   0   6 710.810 270.082  17
  -6   0   6 241.985 144.836  16
   6   0  -6 550.424 193.850  14
   6   0   6 699.543 319.602  14
   6   0  -6 597.124 222.258   1
   6   0   6 777.074 316.874   6
   6   0  -6 657.764 250.656  18
   6   0  -7 12.0115 42.9019  14
   0  -6   7-138.905 125.988   6
   6   0  -7 13.4498 10.8058   1
   6   0  -7 45.0699 107.017  11
  -6   0   7 22.3895 61.5070   5
   6   0  -7 24.0692 51.1100  18
  -6   0   7-60.3177 86.9170   4
   6   0   7 70.5579 50.7651   8
   0   6  -7-331.772 630.281  13
  -6   0   7-1.50277 43.9773  19
  -6   0   7-50.5023 80.1582  17
  -6   0  -7-15.8963 161.534  19
   6   0   7-9.19114 96.1503  16
  -6   0   7-51.3748 137.124  16
  -6   0   7 10.3035 44.5061   2
   6   0   7-38.5902 159.259  14
   6   0   7-148.308 178.196   6
   0   6  -7-57.3176 111.786   3
  -6   0   8 465.751 203.488   2
   0   6  -8 174.093 137.089  13
   0  -6   8 126.778 104.085   6
  -6   0  -8 77.4514 161.911  19
   6   0  -8 178.404 178.711  11
  -6   0   8 556.027 216.549   5
   6   0  -8 306.169 201.417  18
   6   0  -8 401.387 183.414  14
  -6   0   8 487.181 234.642  17
   6   0  -8 453.458 219.387   1
   6   0   8 525.134 293.195  16
  -6   0   8 276.763 244.657  16
   6   0   8 383.919 238.465  14
   6   0   8 583.469 323.474   8
   6   0   8 415.903 292.108   6
   0   6  -8 550.368 251.180   3
   6   0  -9-18.8527 77.3121  14
   0   6  -9-17.3638 29.9266   3
   0   6  -9 178.686 231.575  13
   0  -6   9 17.0222 37.0926   6
   0   6  -9-1.36856 32.7619  12
  -6   0   9 49.8676 99.4385   2
  -6   0   9-1.74478 53.2996   5
   0   6  -9-12.1402 180.985  18
   6   0  -9 43.4297 29.0250  18
   6   0   9-35.3408 105.398   8
  -6   0   9 17.5337 61.1275  17
  -6   0  -9-21.3992 217.908  19
   6   0  -9 15.5172 72.7617   1
   6   0   9 42.8161 81.2018   6
   6   0   9 70.2476 113.659  16
  -6   0   9 183.294 178.101  16
   6   0  -9 59.3196 152.024  11
   0  -6   9-34.2552 57.3688  17
   6   0 -10 84.3862 92.2058  14
   0   6 -10 112.414 69.8014   3
   0  -6  10 32.6177 117.940  17
   0   6 -10 199.676 76.9126  13
  -6   0  10 101.012 129.193   2
   6   0 -10 150.498 213.096  11
   0   6 -10 100.742 71.4644  12
   0   6 -10 81.9803 127.633  18
   6   0  10 82.2486 102.369   8
   0  -6  10-14.8713 22.9509   6
  -6   0  10 11.8417 68.3629  17
  -6   0 -10 137.590 169.421  19
   6   0  10 51.5175 82.9711  16
  -6   0  10 317.351 353.798  16
   6   0  10 47.6036 124.802   6
   6   0 -10 116.162 129.962   1
  -6   0  10 81.5846 34.2521   5
  -6   0  11-101.516 170.207   5
   0   6 -11 59.4489 58.9065   3
  -6   0  11 60.0158 128.876   2
   0   6 -11-72.8081 64.4999  18
   0  -6  11-51.2361 98.4812   6
   6   0 -11 79.7909 105.439   1
   0   6 -11-6.68205 7.29486  12
   6   0 -11-3.79185 111.301  11
  -6   0 -11-123.527 381.540  19
   6   0  11 173.278 216.222  16
   6   0 -11-16.7394 60.2232  14
   6   0 -11-110.342 174.221  18
   0  -6  11-124.214 123.891  17
   6   0  11 43.0380 136.782   6
   0   6 -11 47.1598 59.4341  13
  -6   0  11 13.6031 81.5855  17
   0  -6  11-290.075 295.597  16
   6   0  11 55.8356 155.353   8
  -6   0  11-5.25952 218.661  16
   0  -6  12 1434.64 386.740   6
   0   6 -12 1837.99 338.002  12
  -6   0  12 3156.91 621.796   5
   6   0 -12 1136.31 407.613   1
   0   6 -12 1758.05 542.633  13
  -6   0  12 2060.49 525.970   2
   0   6 -12 2051.19 447.142  18
   0  -6  12 81.3792 237.122   2
   6   0 -12 289.145 160.129  18
   6   0  12 1532.25 552.303   8
  -6   0  12 2373.44 614.083  17
   0  -6  12 1407.47 427.579  16
   0   6 -12 2251.94 254.468   4
   6   0  12 1942.55 605.816  16
   0  -6  12 1430.65 409.053  17
  -6   0  12 1370.73 640.714  16
   6   0  12 1231.81 462.852   6
   0   6 -12 1945.83 449.968   3
   6   0 -12 971.927 312.082  14
   6   0 -12 151.246 96.4335  11
   6   0 -13-53.4979 79.5902  14
   0  -6  13-56.7113 126.528   6
  -6   0  13 20.2691 86.3616   2
   0   6 -13-103.134 137.951  13
   0   6 -13-62.6338 120.217   3
   6   0 -13-194.528 320.711  18
   0   6 -13 14.8760 34.5013  12
   0   6 -13 26.3145 55.7926   4
   6   0 -13-190.428 292.869  11
  -6   0  13-82.1900 304.477   5
   6   0 -13 21.1535 97.3675   1
   0   6 -13-4.60771 59.1132  18
   6   0  13 21.8055 33.9517   8
   0  -6  13-16.3001 40.7212  17
  -6   0  13-25.0756 126.754  17
   0  -6  13-107.883 106.118  16
   0  -6  13 4.88903 15.2448  14
   6   0  13 170.918 258.593  16
  -6   0  13 461.368 431.730  16
   6   0  13-153.941 401.583   6
   0  -6  13-286.522 340.441   2
   0  -6  14 512.668 284.166   6
  -6   0  14 660.709 306.375   2
   0   6 -14 517.293 325.140  13
   0   6 -14 495.124 220.934   3
   0   6 -14 508.720 181.694  12
   6   0 -14-374.046 381.004  11
   6   0 -14 127.630 165.309   1
   0  -6  14 164.850 184.880   2
   0   6 -14 593.949 209.556  18
   6   0  14 527.594 475.980   8
   0  -6  14 491.392 221.935  17
  -6   0  14 470.203 227.388  17
   0  -6  14 564.441 268.219  16
   6   0  14 553.663 303.960  16
   6   0  14-98.7029 550.063   6
   0  -6  14 425.187 103.062  14
   0   6 -15 207.337 176.594  13
   0   6 -15 71.9611 109.316   3
   0   6 -15 83.7133 96.2286  12
   0   6 -15-61.4721 107.051  11
  -6   0  15 72.2955 129.808   2
   0   6 -15 2.21907 42.9623  18
   6   0  15 273.989 367.948   8
   0  -6  15 145.542 210.788   2
   0  -6  15 13.4732 64.4367  17
   0  -6  15-76.2192 121.752  16
   0  -6  15 14.5837 43.1491   6
   6   0  15 2.00887 113.955  16
   0   6 -15 22.3313 107.925  15
   0  -6  15-13.0543 9.01292  14
   0  -6  16-11.1204 25.7041   6
   0   6 -16 339.890 286.283  13
   0   6 -16 93.0558 107.077   3
   0   6 -16 74.4415 80.9963  12
   0   6 -16 102.592 142.703  11
   0   6 -16 143.127 151.000  18
   6   0  16 349.477 418.860   8
   0  -6  16 10.1002 87.1973   2
   0   6 -16-81.7948 199.733  20
   0  -6  16 148.133 127.218  16
   0  -6  16 91.9154 120.525  17
   6   0  16 238.529 275.438  16
   0   6 -16 446.508 411.811  15
   0   6 -16 237.967 376.664   7
   0   6 -17-195.570 217.294  10
   0   6 -17 161.693 230.697  13
   0   6 -17-45.0444 79.6348  12
   0  -6  17-135.325 87.1642   6
   0   6 -17 58.9427 131.964  11
   0   6 -17 12.2925 11.5053   3
   0  -6  17 140.435 219.527   2
   0   6 -17-104.597 328.700   7
   0   6 -17-87.4109 216.337  20
   6   0  17 240.852 322.333  16
   0   6 -17-99.1041 178.933  15
   0   6 -17-0.94224 54.1297  18
   0  -6  17 1.19507 37.9298  17
   6   0  17 157.667 344.848   8
   0  -6  17-8.36806 116.608  16
   0   6 -18 162.084 194.249  20
   0   6 -18 305.315 292.384  13
   0   6 -18 318.453 179.610  12
   0   6 -18 337.641 230.491   3
   0   6 -18 308.007 223.017  11
   0   6 -18 217.869 131.544  18
   0   6 -18 679.175 493.902  10
   0  -6  18 307.401 284.286   2
   0  -6  18 447.349 225.694  17
   0  -6  18 285.021 270.433  16
   0   6 -18 1.02186 317.967   7
   0   6 -18 284.792 287.588  15
   0  -6  18 437.585 435.026   6
   0   6 -19 216.355 282.949  13
   0   6 -19 80.5435 33.0543  12
   0   6 -19 180.889 207.660   3
   0   6 -19-114.441 175.515  10
   0   6 -19 235.782 335.154   9
   0   6 -19 127.092 172.578  11
   0   6 -19 88.1358 114.344  18
   0  -6  19 352.657 381.932   6
   0   6 -19-46.5267 210.671  20
   0  -6  19-7.24951 211.010   2
   0  -6  19 34.2144 78.5578  17
   0  -6  19 176.577 220.021  16
   0   6 -19 60.6333 391.362   7
   0   6 -19 18.5589 529.877  15
  -6   1   0 2281.78 244.107   2
  -6   1   0 2468.59 377.408  12
   6  -1   0 1097.61 334.190  11
  -6  -1   0 1752.06 405.897   4
   6  -1   0 2482.90 346.315   8
  -6  -1   0 1607.88 405.083   5
  -6   1   0 2460.49 362.915   5
  -6  -1   0 1412.42 325.127   2
  -6  -1   0 1633.44 388.529  19
  -6   1   0 2495.19 362.818   4
   6  -1   0 3238.85 486.012  18
  -6   1   0 2694.02 378.578  19
   6   1   0 2989.41 467.465   8
  -6  -1   0 1622.77 354.047  17
  -6   1   0 2117.55 432.612  17
   6   1   0 3042.50 550.318   1
   6  -1   0 2592.90 379.571   1
   6   1   0 3296.43 446.115  18
   6   1   0 2348.22 468.196   6
   6  -1   0 2975.90 332.885   6
   6   1   0 2602.80 559.864  14
   6  -1   0 2820.52 406.937  14
   6  -1  -1 520.390 159.052   8
   6  -1  -1 444.604 170.821  14
   6   1  -1 593.951 182.597   8
  -6  -1   1 389.801 187.908   4
   6   1  -1 653.827 197.935  13
  -6   1  -1 512.201 168.619  12
  -6   1  -1 528.356 174.343   5
  -6   1   1 534.059 224.925  12
   6   1  -1 493.047 207.222   1
  -6   1   1 500.448 173.856   5
  -6  -1  -1 334.435 235.215   5
  -6   1  -1 397.561 87.3736   2
   6  -1   1 516.188 172.742   1
   6  -1  -1 570.303 234.809  18
  -6  -1   1 361.295 173.571   5
  -6   1   1 481.726 134.510   2
   6  -1  -1 565.238 186.580   1
  -6   1  -1 504.697 172.932  19
  -6   1   1 495.366 163.799  19
  -6  -1  -1 327.599 211.457  19
  -6  -1   1 351.469 172.345  19
   6   1  -1 519.054 187.598   6
  -6  -1  -1 251.727 139.074   4
  -6  -1   1 366.547 148.066   2
   6   1  -1 657.730 191.652  18
   6  -1   1 600.661 198.622  18
   6  -1  -1 633.822 155.467   6
   6   1   1 664.747 195.748  18
   6   1   1 556.643 227.459   8
  -6  -1  -1 244.827 146.972  17
   6  -1   1 477.461 148.920   8
  -6  -1   1 374.148 159.394  17
  -6   1  -1 323.070 151.820  17
  -6   1   1 399.437 216.066  17
   6  -1  -1 58.3247 203.982  11
  -6   1  -1 447.377 155.106   4
  -6   1  -1 375.734 201.493   3
  -6  -1   1 236.177 46.8207   7
   6  -1   1 465.711 171.011  14
  -6  -1   1 183.694 97.8358  15
   6  -1   1 559.135 158.866   6
   6   1   1 432.384 233.379   6
   6   1   1 536.457 261.327  14
   6  -1   1 36.1819 261.186  11
   6   1   1 692.880 285.183   1
  -6   1   1 517.808 165.608   4
   6   1  -1 508.085 226.400  14
   6   1  -2 552.746 134.191  13
  -6   1  -2 396.001 144.130  12
  -6  -1   2 383.196 99.9259  12
   6   1  -2 747.694 208.709  11
  -6   1   2 566.620 185.927   5
  -6  -1  -2 187.086 92.0620   5
  -6   1  -2 393.279 86.2024   2
   6   1  -2 960.374 242.421  10
   6  -1   2 64.5784 217.284  11
   6  -1  -2 605.502 209.327   1
   6   1  -2 439.805 200.582   1
  -6  -1  -2 195.885 127.335  19
   6   1  -2 493.688 160.429   8
   6  -1  -2 19.6337 233.141  11
   6  -1   2 523.680 176.860   8
  -6  -1   2 370.145 173.308   5
   6   1  -2 655.871 194.474  18
   6  -1   2 712.645 184.600  18
   6   1   2 685.434 227.957  18
   6  -1  -2 467.954 149.263   8
  -6  -1  -2 113.758 41.8264   4
  -6   1   2 508.510 168.943   4
   6  -1  -2 462.836 197.546  18
   6   1   2 593.565 259.265   8
  -6   1  -2 372.599 144.929   5
  -6  -1   2 363.983 151.951  17
  -6  -1   2 412.084 171.459   4
   6  -1   2 471.162 165.841   1
  -6   1  -2 422.987 165.786  17
  -6   1   2 410.730 202.757  17
  -6   1   2 514.502 156.570   2
  -6   1  -2 372.237 154.602   4
  -6  -1   2 350.582 130.395   2
   6   1   2 496.111 270.118   1
  -6  -1   2 413.819 143.538   7
  -6   1   2 548.096 173.930  19
   6  -1   2 512.684 183.349  14
   6   1  -2 541.791 169.833   6
   6   1   2 356.998 172.003  16
   6  -1   2 554.594 160.133   6
  -6  -1   2 394.434 112.830  15
  -6   1  -2 438.679 170.632   3
  -6  -1  -2 115.333 96.7365  17
   6  -1  -2 518.493 145.551   6
   6  -1  -2 511.374 183.278  14
   6   1   2 370.333 223.129   6
   6   1   2 552.496 311.260  14
  -6   1  -2 366.696 152.577  19
   6   1  -2 372.387 203.864  14
  -6  -1   2 344.316 153.622  19
   6   1  -3 29.7953 31.5943   6
  -6  -1  -3-69.1575 131.858  19
  -6   1   3 15.8385 27.6900   2
  -6   1  -3 25.8827 52.4759  12
  -6   1   3 0.89185 10.5518   5
  -6   1  -3 18.1849 30.5290   3
   6  -1  -3-100.477 151.203   6
  -6  -1   3-13.0643 52.4381  12
  -6   1  -3 2.25946 45.8312   5
   6   1  -3-0.03392 20.0250  11
  -6  -1   3 25.5726 58.5649  17
  -6   1  -3 27.2090 56.5321  20
   6  -1  -3-197.328 308.220  11
  -6  -1   3 28.6413 108.238   5
   6  -1  -3 45.5052 56.2807   1
   6   1   3 73.0509 179.102   1
   6   1  -3 53.7132 101.391  10
   6   1  -3 212.991 159.841   9
  -6   1  -3 16.2207 42.6242  19
   6  -1   3-5.47996 37.8885   1
   6  -1   3 42.0179 48.7437  18
   6   1   3-54.0377 115.841  18
   6   1  -3 43.1155 107.295   1
   6  -1  -3 6.15535 58.3391  14
  -6   1   3-0.18722 45.9195   4
   6   1  -3 33.2629 43.3194  18
   6   1   3 71.2340 149.706   8
   6   1  -3 9.40649 13.5453   8
   6  -1   3 7.48163 31.9842   8
   6  -1  -3 23.3048 48.8113   8
  -6   1  -3 20.4627 46.9327  17
  -6  -1   3 51.5746 75.8814   2
  -6  -1   3 2.36422 74.1081   4
  -6   1  -3-8.06738 54.2861   4
  -6  -1  -3-40.4883 62.0822  17
  -6   1   3-7.33783 79.6816  17
   6  -1   3 16.2487 20.6688   6
  -6   1  -3 61.5932 60.5117  10
  -6  -1   3 42.6739 50.4052   7
   6  -1   3 2.57784 17.5766  16
  -6  -1   3 36.1946 26.4111  15
   6   1   3 13.8031 116.876   6
  -6  -1   3-6.44551 44.9562  19
   6   1   3 99.9838 109.256  14
   6   1  -3 22.5010 58.1579  14
  -6   1   3 31.4457 63.7928  19
  -6   1  -3-59.0723 89.6804   2
   6  -1   3 50.5237 77.7189  14
   6  -1  -3 57.9027 65.6833  18
  -6   1  -4 126.131 98.8987   5
   6  -1  -4 149.119 105.988  14
  -6   1  -4 223.339 105.773  10
  -6   1   4 278.708 140.071   2
   6  -1   4 242.435 135.768   1
   6   1  -4 170.892 62.3103   6
  -6   1  -4 147.624 121.895   3
   6   1  -4 269.842 129.072  11
  -6   1  -4 258.908 142.496  20
  -6  -1   4 163.743 117.240   5
  -6  -1   4 219.116 111.411  19
   6   1  -4 161.634 81.7618   8
   6   1  -4 211.676 139.017   9
  -6   1   4 220.807 112.286  19
   6   1   4 78.4913 52.4755   1
   6   1  -4 251.199 133.378  18
   6  -1   4 303.601 93.2685  18
   6   1   4 203.210 187.278   8
  -6  -1   4 238.111 115.070   2
   6  -1   4 204.203 124.855   8
   6   1  -4 175.673 84.5228  10
   6   1  -4 246.472 143.226   1
   6  -1  -4 180.379 127.022   1
  -6  -1   4 150.038 108.033  17
  -6   1  -4 115.049 95.2528   4
  -6   1  -4 159.052 78.8651  17
  -6  -1   4 135.772 98.2198   4
  -6  -1  -4-6.71016 152.271  19
   6  -1  -4 133.860 75.2622   8
   6  -1  -4 66.3993 75.9331  18
  -6  -1   4 186.365 56.8165  16
   6  -1   4 333.888 130.958  16
  -6   1   4 238.706 204.800  17
  -6   1   4 150.762 72.4554   4
  -6   1   4 242.626 130.832   5
   6   1   4 225.235 189.569   6
   6   1   4 170.492 179.340  14
   6   1  -4 190.303 123.889  14
   6  -1   4 198.253 118.787  14
   6  -1   4 287.884 137.468   6
  -6   1  -4 171.674 123.364  19
  -6   1  -5 192.891 100.300  13
   6  -1  -5 620.624 204.249  14
  -6   1   5 808.876 264.927   2
   6  -1   5 820.413 219.936  16
   6  -1  -5 546.904 230.789   1
  -6   1   5 735.643 235.302   5
   6   1  -5 762.185 248.721  11
  -6  -1   5 465.102 164.033   2
  -6   1  -5 458.311 193.429   5
   6   1  -5 620.699 218.912   1
  -6   1  -5 450.417 218.993  20
  -6   1   5 617.820 207.620  19
  -6   1  -5 353.133 175.841  19
  -6   1  -5 301.322 86.2037  17
   6   1  -5 444.106 294.088  10
   6   1  -5 842.912 344.869   9
   6  -1   5 758.644 132.192  18
   6   1  -5 622.032 220.570  18
   6   1  -5 655.881 162.265   8
   6   1   5 440.068 240.077   8
   6  -1  -5 201.610 139.362  18
  -6   1  -5 336.937 190.188   4
  -6  -1   5 542.421 210.379  17
   6  -1   5 703.967 226.541   8
  -6   1   5 656.313 319.664  17
  -6  -1  -5-146.003 267.700  19
  -6  -1   5 471.237 163.584   4
  -6  -1   5 548.471 117.574  16
  -6   1  -5 291.905 152.045  10
  -6  -1   5 611.784 174.618  19
  -6   1  -5 428.641 220.813   7
  -6  -1   5 460.089 189.330   5
   6  -1   5 680.654 237.209   6
  -6   1  -5 456.195 191.794  15
   6   1   5 257.915 183.540   6
   6   1   5 777.837 411.537  14
   6  -1   5 674.711 233.178  14
   6   1  -5 506.766 207.485  14
   6  -1   5 659.336 247.425   1
   6   1  -6 302.435 159.545   1
   6  -1   6 257.311 132.792   6
   6  -1  -6 255.168 137.611  14
  -6   1  -6 138.913 147.851   5
   6   1  -6 363.315 179.449  11
   6  -1  -6-322.649 391.439  11
  -6   1  -6 114.132 131.104  20
  -6   1  -6 115.248 128.032   4
  -6   1  -6 150.360 88.9931  10
   6   1  -6 126.496 293.488  10
  -6  -1   6 302.997 157.284   5
   6   1  -6 46.8584 46.3494   9
  -6   1   6 331.840 125.336   5
   6  -1   6 333.621 172.983   8
   6  -1  -6 263.075 164.024   1
   6   1   6 355.905 258.087   8
   6  -1  -6-241.289 178.385  18
  -6  -1   6 266.360 129.883   4
  -6  -1   6 229.453 146.045  17
  -6   1   6 253.285 159.941   2
  -6  -1   6 269.043 116.312  19
  -6   1   6 285.769 186.939  17
   6   1  -6 304.127 118.082   8
   6  -1   6 380.951 209.607   1
   6  -1   6 379.734 168.046  16
  -6  -1   6 208.296 77.7519  16
  -6   1  -6 159.668 142.073   7
  -6   1  -6 210.707 163.725  19
  -6  -1   6 247.029 122.309   2
  -6   1  -6 165.581 127.362  15
   6   1   6 85.3525 108.683   6
   6  -1   6 376.569 82.7615  18
   6  -1   6 390.566 210.734  14
   6   1  -6 303.398 159.557  14
   6   1  -6 309.533 153.483  18
   1   6  -7 556.456 81.5950  13
   6  -1  -7 887.278 335.073   1
   6  -1   7 1179.49 317.883  16
  -6   1   7 945.856 320.243   2
   1  -6   7 242.700 143.372   6
  -6  -1   7 829.341 243.309   5
  -6   1   7 972.939 292.196   5
  -6   1  -7-1.02169 234.260   5
   6   1  -7 933.916 306.500  11
  -6  -1   7 718.196 226.871   2
   6   1  -7 826.190 271.645   1
  -6   1  -7 252.975 88.3914  20
  -6  -1   7 872.298 207.261  19
   6   1   7 680.001 362.352   8
   6  -1   7 972.692 315.585   8
  -1   6  -7 954.647 355.978   3
   6   1  -7-414.339 765.452  10
   6   1  -7 903.857 391.846   9
  -6  -1   7 796.811 209.142   4
   6   1  -7 856.833 248.530   8
   6  -1   7 680.571 359.314   1
   6  -1  -7 64.9507 202.671  18
  -6   1  -7 376.771 216.008   4
   6  -1  -7 655.056 240.933  14
  -6  -1   7 810.037 279.298  17
  -6   1  -7 365.360 176.588  19
  -6   1   7 890.309 377.931  17
  -6  -1   7 640.687 177.170  16
   6  -1   7 996.852 310.065   6
  -6   1  -7 474.321 263.161   7
  -6   1  -7 432.729 213.222  15
   6  -1   7 1032.75 333.849  14
   6   1   7 296.099 225.840   6
   6   1  -7 928.456 255.125  14
  -6   1  -7-163.756 423.154  10
   6   1  -7 720.762 247.964  18
   6  -1  -8 524.718 205.646  14
  -1   6  -8 280.165 333.336  13
   1   6  -8 648.201 415.056  13
  -1   6  -8 645.937 218.373  12
   6  -1  -8 488.292 286.902   1
   1  -6   8 247.200 161.375   6
  -1  -6   8 177.899 134.144   6
   6   1  -8 408.963 326.089   9
  -6   1   8 539.272 253.549   2
  -6  -1   8 636.911 191.945  19
   6   1  -8 443.364 236.835  11
  -6  -1   8 716.462 262.796  17
   6   1  -8 622.428 237.365   1
  -6   1  -8-3.59469 187.334  20
   6   1   8 521.800 341.567   8
   6   1  -8 488.386 224.553  18
   6  -1   8 660.803 270.093   8
  -6   1  -8 170.035 158.362  19
  -6  -1   8 686.066 187.451   4
  -6  -1   8 577.236 200.170   5
   1   6  -8 729.511 299.265   3
  -6   1   8 493.303 234.592  17
  -6   1  -8 197.261 184.518   7
   6  -1   8 843.477 289.272  16
  -6  -1   8 479.648 177.497  16
  -6   1  -8 327.591 202.797  15
   6   1   8-133.161 416.157   6
  -6  -1   8 523.823 198.281   2
  -6   1  -8 221.075 139.115   4
   6  -1   8 655.925 295.074  14
   6  -1   8 774.950 315.225   6
   6   1  -8 518.492 200.226  14
  -1   6  -8 768.979 306.158   3
   1   6  -9 675.653 269.563   3
  -1   6  -9 645.073 258.567   3
   6  -1  -9 490.705 320.941   1
  -1   6  -9 685.180 436.261  13
  -1   6  -9 662.471 214.986  12
   1  -6   9 348.231 177.138   6
  -1  -6   9 284.895 179.044   6
  -6   1   9 483.396 235.037   2
   1   6  -9 545.662 189.222  12
   6   1  -9 532.809 260.224  11
  -6   1  -9-496.173 514.955  20
   6  -1   9 599.231 256.990   8
   6   1  -9 129.622 215.333   9
  -6  -1   9 482.267 173.041  19
  -6  -1   9 515.885 164.268   4
   6   1   9 316.770 167.937   8
   6   1  -9 490.337 218.435  18
   6   1  -9 373.181 190.465   1
   1   6  -9 543.197 273.699  18
  -6   1   9 364.447 122.197  17
  -6   1  -9-6.76155 205.010   7
   6  -1   9 588.683 241.918  16
  -6  -1   9 628.659 267.261  17
  -1  -6   9-11.3232 137.817  17
  -6  -1   9 363.415 180.431  16
  -6   1  -9 156.683 161.247  19
   6   1   9 216.830 193.468  16
  -6   1  -9-30.6938 207.883  15
  -6  -1   9 635.853 238.173   5
  -6  -1   9 579.422 242.869   2
   6  -1   9 699.346 138.144   2
   6  -1   9 651.574 360.277  14
   6  -1   9 714.309 324.769   6
   1   6  -9 691.476 352.534  13
   6   1  -9 521.327 189.837  14
  -6   1 -10 148.619 175.494  19
  -1   6 -10 1562.04 560.279  13
   1  -6  10 780.653 306.355   6
  -1  -6  10 686.552 262.725   6
  -1   6 -10 1164.24 286.043  12
   6  -1  10 1513.72 471.217   8
   6   1 -10 956.744 361.556  11
  -6  -1  10 1164.53 335.195   2
   6   1 -10 1046.14 333.397   1
   6  -1  10 1577.90 248.373   2
   6   1 -10 12.3544 365.766   9
   1   6 -10 1527.81 445.225  18
   6   1  10 696.748 408.276   8
   6   1 -10 919.740 314.711  18
  -6  -1  10 1235.92 386.275  17
   1  -6  10 662.018 359.830  17
  -1  -6  10 379.247 251.778  17
  -6  -1  10 1233.25 259.227   4
   1   6 -10 1255.77 303.644  12
   6  -1  10 1339.64 443.002  16
  -6  -1  10 993.250 339.756  16
   6   1  10 570.616 362.824  16
   1   6 -10 1166.66 444.701  13
   1   6 -10 1019.56 327.296   3
  -1   6 -10 1131.11 351.278   3
   6   1 -10 858.553 255.472  14
  -1   6 -10 1822.27 463.614  18
   6  -1  10 1176.23 490.725  14
  -6  -1  10 1330.23 341.018   5
   6  -1  10 1285.06 453.252   6
   1  -6  11-196.854 343.998  14
   1   6 -11 219.338 142.078   3
  -1   6 -11 275.546 146.819   3
  -1  -6  11 214.098 203.230   6
   1  -6  11 217.759 105.965   6
   6  -1  11 363.483 123.136   2
  -1  -6  11-159.547 454.689   2
  -1   6 -11 342.301 124.597  12
   1   6 -11 303.263 138.443  12
   6   1 -11 158.721 188.022  11
   1   6 -11 218.236 164.387  13
  -6   1 -11 87.7949 84.9196  19
  -6  -1  11 469.529 201.751   5
  -1  -6  11 62.9834 99.6661  17
   6   1 -11 140.374 118.471  18
   6  -1  11 227.304 172.051   8
  -1  -6  11 115.321 156.233  16
  -1   6 -11 375.932 225.330  13
   1   6 -11 300.962 165.221  18
  -1   6 -11 355.930 170.555  18
  -6  -1  11 332.235 197.374  17
   6   1 -11 281.075 183.887   1
   1  -6  11-99.5505 240.983  16
   6  -1  11 329.930 155.061  16
  -1   6 -11 348.376 92.8755   4
  -6  -1  11 234.189 146.040  16
  -6  -1  11 213.596 93.4617   4
   6  -1  11 492.464 350.031  14
   6   1  11-103.876 345.151   8
  -6  -1  11 198.628 134.271   2
   6  -1  11 170.319 86.6445   6
   1  -6  11 77.0210 165.506  17
   6   1 -11 174.543 112.161  14
   1   6 -12 649.506 259.178   3
  -1   6 -12 374.428 264.825  13
   1  -6  12 485.394 246.101   6
   1   6 -12 479.626 253.708  13
   1   6 -12 818.588 278.153  18
   6  -1  12 917.350 229.235   2
   1   6 -12 612.813 201.210  12
  -1   6 -12 651.715 211.894  12
  -1   6 -12 646.281 272.735   3
   6   1 -12 273.072 170.688  11
  -1  -6  12 157.118 210.031   2
  -6   1 -12-51.2668 103.726  19
  -1  -6  12 380.122 244.359   6
  -6  -1  12 794.607 283.678   5
  -1   6 -12 698.526 232.627  18
   6   1  12-351.600 614.002   8
  -1   6 -12 803.866 170.122   4
  -6  -1  12 624.676 276.515  16
   6  -1  12 656.917 347.417   8
  -1  -6  12 515.220 271.678  17
  -6  -1  12 693.468 302.020  17
   6  -1  12 805.357 389.535  16
  -1  -6  12 350.838 196.349  16
   6   1 -12 240.906 170.107   1
   1  -6  12 632.985 257.502  17
   1  -6  12 602.077 154.744  14
   6  -1  12 505.851 280.111   6
  -6  -1  12 443.363 226.162   2
   1  -6  12 497.732 258.110  16
   6   1 -12 387.387 210.675  18
   6   1 -12 399.728 160.810  14
   6   1 -13 620.322 191.979  14
   1  -6  13 64.1635 336.901   2
  -1  -6  13 452.084 307.408   2
  -1  -6  13 893.481 339.819   6
   1  -6  13 1122.26 360.658   6
   1   6 -13 1038.78 416.687  13
  -1   6 -13 1177.26 294.850  12
   1   6 -13 1080.59 262.310  12
  -6  -1  13 1549.98 391.063   5
  -1   6 -13 878.092 416.269  13
   6   1 -13 447.190 293.430  11
  -1   6 -13 1420.42 303.236   4
  -6   1 -13-33.2692 102.092  19
  -1   6 -13 1142.60 276.804  18
   1   6 -13 1278.70 332.330  18
   6   1 -13 652.299 296.586  18
   6  -1  13 1805.71 356.592   2
   6  -1  13 1291.33 465.761   8
  -6  -1  13 1486.22 459.854  17
   1  -6  13 1069.87 310.163  17
  -6  -1  13 1158.87 397.133   2
  -1  -6  13 875.029 344.577  16
  -6  -1  13 908.599 439.241  16
   1  -6  13 1220.52 417.911  16
   6  -1  13 1203.08 472.851  16
   1  -6  13 1122.17 182.364  14
   1   6 -13 1151.58 346.193   3
  -1   6 -13 1191.36 368.347   3
   6  -1  13 987.518 468.015   6
  -1  -6  13 1066.11 349.955  17
   6   1 -13 653.626 283.795   1
   6   1 -14 249.864 134.584  14
  -1  -6  14 417.546 276.318   6
  -1   6 -14 395.096 233.641  13
   1   6 -14 322.200 262.900  13
   6  -1  14 710.125 223.865   2
   1   6 -14 439.751 227.429   3
  -1   6 -14 338.803 195.970   3
  -1   6 -14 389.939 183.806  12
   1   6 -14 430.898 177.917  12
   1  -6  14 437.229 201.016   6
   6   1 -14 277.798 226.454   1
   1  -6  14 530.558 200.581  17
   6   1 -14 128.908 219.732  11
  -6   1 -14-53.5902 131.635  19
   1   6 -14 457.646 194.475  18
  -1  -6  14 331.225 216.093  16
  -6  -1  14 560.577 255.210   5
  -1   6 -14 387.722 153.893  18
   6   1 -14 158.485 156.584  18
   6  -1  14 518.591 318.554   8
  -1  -6  14 309.363 167.181  17
  -6  -1  14 717.146 333.983  17
   1  -6  14 402.976 263.762  16
  -1   6 -14 279.705 142.050   4
   6  -1  14 426.308 275.896  16
  -6  -1  14 298.576 277.017  16
   6  -1  14 458.957 288.715   6
  -1  -6  14 139.309 95.8113   2
   1  -6  14 157.831 46.1578   2
  -6  -1  14 533.417 248.914   2
   1  -6  14 429.881 117.485  14
   6   1 -15 163.646 98.5284  14
  -6  -1  15 421.578 235.669   5
  -1  -6  15 234.787 236.420   6
   1  -6  15 354.510 254.199   6
  -1   6 -15 151.158 190.079  13
   1   6 -15 332.189 235.522  13
   6  -1  15 500.155 202.317   2
  -1   6 -15 328.073 203.510   3
   6   1 -15 390.043 260.509   1
  -1   6 -15 334.650 174.655  12
   1   6 -15 241.111 127.509  12
   1   6 -15 185.181 147.915  11
  -1   6 -15 508.240 212.081  11
   6   1 -15 41.9393 122.719  11
  -6  -1  15 224.684 225.939  16
   1  -6  15 280.113 217.970   8
  -1   6 -15 345.382 154.325  18
   1  -6  15 312.402 228.934  16
  -6   1 -15 33.8206 168.417  19
   6   1 -15 8.54834 137.946  18
   6  -1  15 310.331 211.914   8
   1  -6  15 505.601 283.630   2
  -1  -6  15 437.476 337.806   2
  -1  -6  15 275.190 184.368  17
   1  -6  15 375.004 188.139  17
  -1  -6  15 314.799 207.970  16
  -6  -1  15 410.467 271.405  17
   1   6 -15 320.909 165.259  18
   6  -1  15 350.995 265.645  16
   1   6 -15 486.419 354.843   7
   1   6 -15 376.939 212.492   3
   1   6 -15 349.066 362.453  15
   6  -1  15 299.597 166.782   6
   1  -6  15 264.679 103.228  14
  -6  -1  15 337.541 200.819   2
  -6  -1  16 556.688 310.417   2
  -6   1 -16 153.891 110.954  19
  -1  -6  16 583.611 362.528   6
   6   1 -16 251.573 156.732  14
   1  -6  16 598.815 328.165   6
   6   1 -16 93.1889 138.813  11
  -1   6 -16 431.704 350.617  13
   1   6 -16 402.456 263.715  13
   6  -1  16 865.124 276.108   2
  -6  -1  16 1001.43 339.251   5
   1   6 -16 563.364 269.287   3
  -1   6 -16 438.870 248.027   3
  -1   6 -16 509.967 200.766  12
   1   6 -16 524.615 194.394  12
   6   1 -16 133.781 136.319   1
   1   6 -16 594.874 262.495  11
  -1   6 -16 704.154 227.806  11
  -1  -6  16 636.983 251.145  17
   1  -6  16 565.779 211.626  17
   1  -6  16 537.531 374.342   2
  -1  -6  16 484.040 283.868   2
   1   6 -16 514.897 224.773  18
  -1   6 -16 408.498 150.219  18
   6   1 -16-350.337 225.691  18
   6  -1  16 536.802 313.098   8
   1   6 -16 674.818 423.009  15
   1  -6  16 869.808 292.497   8
  -1  -6  16 680.932 295.715  16
   1  -6  16 672.835 326.060  16
   6  -1  16 730.188 368.958  16
   1   6 -16 642.215 573.738   7
  -6  -1  16 237.009 247.923  16
  -1   6 -16 803.829 535.315   7
  -1   6 -16 752.890 457.026  15
   6  -1  16 461.727 282.064   6
   1  -6  16 516.619 196.474  14
  -6  -1  16 692.633 347.559  17
   1   6 -16 36.6632 153.182  20
  -1   6 -16 625.037 420.008  20
  -6  -1  17-43.2539 139.798   2
   1  -6  17-251.921 229.323   6
   6   1 -17 4.45405 26.9331  14
  -1  -6  17 199.900 271.288   2
  -1   6 -17 96.6820 279.365  10
   6  -1  17 70.4415 112.998   2
  -1   6 -17 127.212 226.860  13
   1   6 -17 150.015 203.268  13
   6  -1  17-306.426 536.395   6
  -1   6 -17-65.6038 120.639  12
   1   6 -17-13.0090 68.5232   3
   1   6 -17 0.32565 41.5600  12
  -1   6 -17 52.1867 128.455   3
   1   6 -17 165.194 194.722  11
  -1   6 -17 62.4679 156.850  11
   6   1 -17 14.2759 66.6443   1
   6   1 -17-445.685 284.180  11
   1   6 -17-69.7573 39.3375  10
  -6   1 -17 68.1165 227.790  19
   1   6 -17 138.836 141.562  20
   1  -6  17 51.5247 85.5331  17
  -1   6 -17 117.466 300.961  20
  -6  -1  17-23.8402 40.3864   5
   1  -6  17 286.631 398.313   2
   6  -1  17-17.2157 57.7985   8
   1   6 -17 10.3842 32.6552  18
  -1   6 -17 18.6746 114.377  18
  -1  -6  17 124.720 143.296  17
   6   1 -17-352.114 354.997  18
   1  -6  17 94.2271 82.2179  16
  -6  -1  17-152.919 158.282  17
   1  -6  17 22.1765 81.2636   8
  -1  -6  17 154.268 231.201  16
   1   6 -17 263.728 431.196   7
  -1   6 -17 195.490 386.957   7
   6  -1  17-119.458 205.156  16
  -6  -1  17-99.0332 201.863  16
   1   6 -17 136.363 278.126  15
  -1   6 -17-122.483 357.099  15
  -1  -6  17-47.6528 144.745   6
  -6  -1  18 403.217 267.996   2
  -6  -1  18 820.261 300.088   5
   6  -1  18 846.667 321.186   2
  -1   6 -18 144.040 235.450  13
   1   6 -18 224.064 247.107  13
  -1   6 -18 452.287 275.163  12
   1   6 -18 447.354 192.070  12
   1   6 -18 363.252 253.272   3
  -1   6 -18 384.724 270.257   3
   1   6 -18 666.518 296.824  11
  -1   6 -18 773.151 285.107  11
   6   1 -18 200.599 227.726   1
   6   1 -18-352.263 380.791  11
  -1   6 -18 888.517 482.207  20
  -1   6 -18 791.453 498.102  10
   1  -6  18 880.620 568.584   2
   1  -6  18 893.996 311.657   8
  -1  -6  18 988.047 557.803   2
  -1   6 -18 656.443 262.344  18
   6  -1  18 696.563 369.122   8
   6  -1  18 408.571 313.086  16
  -1  -6  18 916.967 318.938  17
   1  -6  18 596.022 259.552  17
   1   6 -18 1233.90 590.564  10
  -6   1 -18-75.0318 238.896  19
  -1  -6  18 822.637 409.440  16
   1  -6  18 702.356 331.526  16
   1   6 -18 669.414 258.610  18
   1   6 -18 218.563 281.911   7
  -1   6 -18 1176.20 664.312   7
  -6  -1  18 732.802 462.801  16
   1   6 -18 632.781 482.656  15
  -1   6 -18 627.718 310.090  15
  -6  -1  18 381.046 150.236  17
   1   6 -18 887.662 636.045  20
   6  -1  18-308.043 687.459   6
  -1  -6  18 965.042 602.836   6
   1  -6  18 955.827 578.370   6
   6  -1  19 729.272 301.968   2
  -1   6 -19 429.439 218.054  12
   1   6 -19 312.210 171.665  12
   1  -6  19 628.835 264.772  17
   1   6 -19 142.117 124.832   3
   1   6 -19 515.019 208.666  11
  -1   6 -19 497.905 302.596  11
  -1  -6  19 406.682 210.859  17
  -1   6 -19 418.903 404.483  10
   1   6 -19 329.660 384.964  10
  -1   6 -19 715.099 487.889   9
  -6  -1  19-151.856 295.771  17
   1  -6  19 510.733 493.298   2
   1   6 -19 471.309 220.353  18
  -1  -6  19 304.664 323.433   2
   6  -1  19 480.269 325.826   8
  -1  -6  19 385.041 277.920  16
   1  -6  19 416.848 269.544  16
   1   6 -19-42.2001 349.400   7
  -1   6 -19 420.576 390.902   7
   6  -1  19 333.958 327.075  16
  -6  -1  19 327.795 303.122  16
  -1   6 -19 398.182 405.142  15
  -1  -6  19 302.714 363.521   6
   1  -6  19 894.776 592.101   6
  -1   6 -19 337.894 223.213  18
  -6   1 -19 271.814 355.674  19
  -6  -1  19 168.152 221.632   2
  -6   2   0 903.816 313.422  12
   6  -2   0 825.559 224.869  14
  -6   2   0 956.401 227.864   5
   6  -2   0 842.915 226.381   1
   6   2   0 1007.41 320.601  18
   6  -2   0 721.715 192.243   8
  -6   2   0 852.383 214.007   4
   6   2   0 885.619 340.957   8
  -6  -2   0 164.966 176.039  17
   6   2   0 827.152 397.087   1
  -6   2   0 856.781 214.317  19
  -6  -2   0 169.709 194.777  19
   6  -2   0 880.229 224.836   6
   6   2   0 706.870 386.219  14
   6  -2   1 3499.75 423.717   8
  -6   2  -1 3719.24 530.105  12
   6   2   1 3354.62 833.990   1
   6   2  -1 4054.65 765.509   1
  -6   2  -1 3744.97 447.145   5
  -6   2   1 3936.79 491.554   5
  -6  -2   1 1100.07 376.193   5
  -6   2   1 3517.58 461.392  19
   6  -2   1 3751.09 455.017   1
  -6  -2   1 1455.76 438.041  19
  -6   2  -1 3560.59 440.165  19
  -6  -2   1 639.365 206.830   2
   6   2  -1 3949.82 634.145   8
   6  -2  -1 3700.40 516.009   1
  -6   2  -1 3545.50 440.367   4
   6   2   1 4005.53 702.592  18
   6   2  -1 4510.55 658.409  18
   6  -2  -1 3098.38 435.404   8
  -6  -2   1 1491.74 412.123  17
  -6   2   1 3951.47 479.938   4
   6   2   1 3519.82 688.884   8
   6  -2   1 3938.15 457.906   6
   6  -2  -1 3337.28 506.564   6
   6   2  -1 3058.78 735.307  14
   6  -2   1 3773.35 488.770  14
   6  -2  -1 3767.17 502.958  14
   6  -2   2 311.380 142.652  14
   6  -2  -2 151.655 106.053  14
   6   2  -2 289.603 154.252   8
   6   2  -2 301.905 179.903  13
   6  -2   2 393.127 134.730   6
  -6   2  -2 233.790 72.6230   2
  -6   2  -2 262.211 122.881  12
  -6  -2   2 162.967 112.346   2
  -6  -2   2 120.149 103.649   5
  -6  -2  -2-87.2684 200.540  19
  -6   2   2 201.598 113.131  19
   6  -2  -2 176.089 112.948   8
   6   2   2 115.540 99.2567   1
   6   2  -2 311.473 160.193  18
  -6   2   2 323.857 137.618   5
  -6  -2   2 204.120 161.448  19
   6   2   2 231.485 190.746   8
  -6  -2   2 92.1415 115.911   4
   6  -2   2 286.616 127.099   1
  -6  -2   2 200.493 107.094  17
   6  -2   2 228.230 107.573   8
  -6   2  -2 273.095 120.761   5
  -6   2  -2 194.042 111.743   4
   6   2  -2 299.784 192.882  14
  -6   2  -2 224.935 119.439  19
   6  -2  -2 259.363 164.003   1
   6   2  -2 213.326 179.669   1
  -6   2  -2 265.716 207.912   3
   6   2  -3 877.900 267.415  18
   6   2  -3 937.327 232.742  13
  -6   2  -3 722.692 275.714   3
   6   2  -3 746.221 299.488   1
  -6   2  -3 738.754 218.829  12
  -6   2  -3 692.752 188.259   5
  -6  -2   3 365.911 228.514   5
   6  -2   3 733.246 188.327   1
  -6  -2   3 491.466 190.819   2
   6  -2   3 702.591 191.903   8
  -6   2  -3 767.164 211.906   4
   6   2   3 515.914 283.291   8
  -6  -2   3 332.762 206.116   4
  -6  -2   3 560.865 226.353  17
   6   2  -3 925.514 236.155   8
   6  -2  -3 286.088 54.0556   8
  -6   2  -3 803.940 217.494  19
   6  -2   3 740.994 202.509   6
   6  -2   3 782.816 226.277  14
   6  -2  -3 547.418 215.083  14
   6   2  -3 815.609 349.752  14
   6  -2  -3 624.384 248.301   1
  -6  -2   3 433.442 200.725  19
  -6   2   3 772.997 239.102  19
  -6   2  -4 627.270 191.503   4
   6   2  -4 832.856 211.448  13
  -6   2  -4 647.591 228.175   3
  -6   2  -4 635.989 203.531  12
  -6   2  -4 812.136 215.472   5
   6   2  -4 899.407 309.198   1
   6  -2   4 863.776 205.671   1
  -6  -2   4 690.806 268.469   5
   6   2  -4 1336.47 275.154  20
  -6   2  -4 791.752 221.934  19
  -6  -2   4 666.658 219.158  19
   6   2  -4 1037.34 279.317  18
   6   2  -4 966.020 208.259   8
  -6  -2   4 648.593 264.375   4
   6   2   4 419.770 215.859   8
   6  -2  -4 699.949 270.073   1
  -6  -2   4 550.553 186.430   2
  -6  -2   4 544.306 221.369  17
   6  -2   4 813.326 210.092   8
  -6   2   4 945.810 282.220  19
   6  -2   4 848.667 222.074   6
   6  -2   4 833.044 224.240  14
   6  -2  -4 567.145 232.590  14
   6  -2   4 1054.39 321.206  16
   6   2  -4 595.697 321.547  14
   6  -2  -5 565.551 246.609  14
   6   2  -5 757.257 196.297  13
  -6   2  -5 602.021 202.756   4
  -6   2  -5 474.256 182.710   3
  -6   2  -5 555.929 187.111   5
   6   2  -5 1035.84 299.100  11
   6  -2   5 833.626 220.094   1
   6   2  -5 704.972 276.286   1
  -6  -2   5 631.755 245.698   5
   6   2  -5 1151.61 321.083  20
  -6  -2   5 602.885 190.300  19
  -6   2  -5 657.550 215.758  19
   6   2   5 113.594 222.496   8
   6   2  -5 898.208 255.658  18
  -6  -2   5 490.226 183.340   2
   6  -2   5 761.409 210.471   8
   6  -2  -5 400.873 236.738   1
   6   2  -5 813.288 175.359   8
  -6  -2   5 509.782 205.660   4
  -6  -2   5 611.971 238.126  17
  -6  -2   5 501.410 127.797  16
  -6   2  -5 605.832 198.819  12
   6  -2   5 753.855 219.948   6
   6  -2   5 777.498 221.293  14
   6   2  -5 530.179 260.714  14
   6  -2   5 1202.70 327.593  16
  -6  -2   6 1125.23 343.420  17
   6   2  -6 1833.94 374.045  18
   6  -2   6 1783.16 339.669   8
   6  -2   6 1630.63 330.778  14
  -6   2  -6 1133.38 302.263  12
  -6   2  -6 1210.68 301.160   5
  -6  -2   6 1302.32 344.448   5
   6   2  -6 2028.61 437.678  11
   6  -2   6 1818.06 363.069   1
   6   2  -6 1490.95 389.296   1
  -6  -2   6 1199.51 291.790   2
  -6   2  -6 1195.64 261.663  20
   6   2  -6 1583.75 443.876  20
   6   2  -6 2547.65 539.995  10
  -6   2  -6 1559.90 288.122  10
  -6  -2   6 1471.40 287.121  19
   6   2   6 85.7928 205.703   8
  -6  -2   6 1357.37 215.908  16
  -6  -2   6 1191.47 303.421   4
  -6   2  -6 1185.85 308.337   4
   6   2  -6 1705.14 248.913   8
  -6   2  -6 1179.47 294.133  19
   6  -2   6 2662.07 488.066  16
   6  -2   6 1808.03 361.704   6
   6   2  -6 1618.58 207.631   3
   6   2  -6 1189.93 407.678  14
  -6   2  -6 994.814 299.934   3
   2   6  -7 1783.86 551.934  13
   6   2  -7 3581.35 831.691  10
  -6  -2   7 1875.19 379.639   4
   6   2  -7 2119.54 424.693  18
  -6   2  -7 854.203 268.353  13
  -2   6  -7 1756.59 386.536  12
   2  -6   7 540.282 231.158   6
  -6   2  -7 1212.32 340.399   5
  -6  -2   7 1747.85 409.255   5
   6   2  -7 2781.38 539.091  11
   6  -2   7 2049.86 452.580   1
   6   2  -7 2260.90 466.149   1
  -6  -2   7 1546.09 352.780   2
  -6   2  -7 1498.26 322.270  10
  -6   2  -7 1208.83 312.593  19
  -6  -2   7 1726.67 280.300  19
   6   2  -7 4258.25 757.750   9
  -6   2  -7 1611.97 285.015   9
   6  -2   7 1966.21 371.036   8
   6   2  -7 1851.94 265.707   8
  -6   2  -7 1406.97 326.932  20
  -6  -2   7 2042.55 446.620  17
  -6  -2   7 1767.59 270.469  16
   6  -2   7 2564.09 475.670  16
   6  -2   7 2112.85 408.640   6
  -2   6  -7 2088.09 552.921   3
   6   2  -7 2184.37 533.676  14
   6  -2   7 1812.79 375.402  14
   6   2  -7 1772.01 212.492   3
  -6   2  -7 1293.53 354.989   4
  -6   2  -7 1304.53 344.657   3
   2   6  -8 1251.83 504.889  13
  -2   6  -8 1199.47 301.820  12
   2  -6   8 515.723 218.840   6
  -2  -6   8 269.590 172.989   6
  -6   2  -8 583.868 262.020   4
  -6  -2   8 925.548 273.629   5
   6  -2   8 1493.12 386.532  16
   6   2  -8 1157.81 338.219  11
  -6   2  -8 687.413 318.028   5
   6   2  -8 1102.70 336.120   1
  -6  -2   8 852.009 262.850   2
   6   2  -8 1424.91 510.379  10
  -6   2  -8 855.640 292.940  10
   6   2  -8 1108.21 307.955  18
   6  -2   8 1138.93 300.341   8
  -6  -2   8 925.959 234.894   4
   6   2  -8 1228.07 268.112   8
  -6  -2   8 912.741 305.484  17
  -2  -6   8-56.3808 77.4391  17
  -6   2  -8 588.836 220.275  13
  -6   2  -8 674.637 239.863  19
   6  -2   8 1053.78 412.326   1
  -6  -2   8 874.966 202.343  16
   6   2  -8 1614.65 483.183   9
  -6   2  -8 675.688 223.084   9
  -6  -2   8 1066.68 217.822  19
   2   6  -8 760.620 256.589  18
  -6   2  -8 709.699 313.149   7
   6  -2   8 1180.64 338.074   6
   2   6  -8 1029.54 358.338   3
  -2   6  -8 1332.00 396.706   3
  -6   2  -8 820.430 308.052  15
   6  -2   8 1172.98 319.896  14
   6   2  -8 884.046 321.577  14
   6   2  -8 94.6868 531.389  20
  -6   2  -8 688.432 272.037  20
   2   6  -9 1826.64 577.303  13
  -2   6  -9 1539.28 644.467  13
   2   6  -9 1767.99 494.527  18
  -2   6  -9 1629.04 350.468  12
  -6  -2   9 1548.44 406.597  17
   2  -6   9 950.586 305.667   6
  -2  -6   9 842.376 285.766   6
  -6  -2   9 1474.38 369.302   5
  -6  -2   9 1565.62 293.245   4
   6   2  -9 1740.68 528.484   9
   6   2  -9 1889.48 461.387  11
  -6   2  -9 986.099 347.925  20
   6   2  -9 1494.09 381.152   1
  -6  -2   9 1571.42 370.882   2
   6  -2   9 1855.20 402.762   8
   6   2  -9-1246.05 1474.64  20
  -2  -6   9 113.137 144.599  17
  -6   2  -9 1042.28 338.132  10
   6   2  -9 1443.37 361.854  18
  -6   2  -9 806.803 277.247  19
  -6   2  -9 814.723 270.829   9
  -6   2  -9 759.337 311.632   4
  -6  -2   9 1529.94 280.332  19
   6   2  -9 1608.91 635.146  10
   6  -2   9 2389.77 490.452  16
  -6  -2   9 1415.83 290.567  16
  -6   2  -9 1043.37 380.960   7
   6  -2   9 1852.85 447.674   6
  -6   2  -9 1062.42 335.390  15
  -2   6  -9 1651.76 442.254   3
   6  -2   9 1730.84 408.983  14
   6  -2   9 353.323 218.870   1
   6   2  -9 1010.80 351.915  14
   2   6  -9 1718.11 452.214   3
   2   6 -10 116.725 59.5728   3
   2  -6  10 187.864 164.598  14
  -2   6 -10 178.296 132.739   3
   2   6 -10 145.816 134.274  13
   2  -6  10 123.593 113.614   6
  -2  -6  10 145.412 160.764   6
  -2   6 -10 269.080 138.256  12
   2   6 -10-56.7117 216.019  12
   6  -2  10 495.404 201.430   2
   6   2 -10 342.858 248.259  11
  -2   6 -10 290.762 174.122  18
  -6   2 -10 634.779 335.602  20
  -6  -2  10 414.956 213.976   5
   6   2 -10 1296.15 785.648  10
  -6   2 -10 208.376 183.714  19
  -2   6 -10 176.920 271.345  13
  -6  -2  10 616.280 246.334   2
  -6  -2  10 686.368 249.203  19
  -6   2 -10 711.393 251.011   9
   2   6 -10 148.510 123.459  18
   6  -2  10 727.310 313.532   8
   6   2 -10 274.933 190.228  18
  -6   2 -10-264.330 419.397   4
   6   2 -10 1304.83 547.779   9
   2  -6  10 279.558 294.480  17
  -2  -6  10 147.812 206.381  17
  -6   2 -10 389.089 326.441  15
   6  -2  10 192.355 155.851   6
  -6  -2  10 264.014 250.359  17
  -6  -2  10 278.149 134.463   4
   6  -2  10 334.534 222.334  16
  -6  -2  10 411.639 207.553  16
  -6   2 -10 148.678 230.229   7
   6   2 -10 266.298 175.133   1
   6  -2  10 389.280 240.198  14
   6   2 -10 417.957 219.373  14
  -6   2 -10 340.699 205.549  10
  -2   6 -11 3109.11 853.278  13
   2   6 -11 3176.08 689.597  13
  -6   2 -11 1135.88 390.757  10
   6   2 -11 2655.79 762.953   9
  -2   6 -11 3243.78 474.190  12
   2   6 -11 3535.39 511.363  12
  -2  -6  11 1643.80 434.565  16
   6   2 -11 2361.59 1067.92  10
   6  -2  11 3768.11 713.192   6
  -6  -2  11 3293.25 540.481   5
   6   2 -11 3366.58 664.781  11
  -2   6 -11 3685.33 381.371   4
   6  -2  11 4461.87 432.472   2
  -6  -2  11 3019.46 551.342   2
   6   2 -11 2785.10 543.842   1
  -6   2 -11 1221.11 360.110  19
  -6   2 -11 1067.49 385.156  20
  -2  -6  11 575.092 263.392   2
  -2   6 -11 4276.98 596.373  18
   2   6 -11 3831.73 680.974  18
   6   2 -11 2666.02 519.976  18
  -6   2 -11 394.606 348.646   9
   2  -6  11 2675.73 564.364  17
  -6  -2  11 3111.04 617.018  17
  -2  -6  11 1778.46 534.449  17
  -6   2 -11 1201.33 395.115  15
  -6  -2  11 3469.02 438.574   4
   2  -6  11 2413.27 549.949  16
   6  -2  11 4044.38 730.836  16
  -6  -2  11 3106.99 505.138  16
  -6   2 -11 1266.94 480.194   7
   2  -6  11 2720.02 400.303  14
  -2  -6  11 1897.14 420.423   6
   2   6 -11 2860.19 530.263   3
   6  -2  11 3389.08 700.626  14
   6   2 -11 1940.31 441.382  14
  -2   6 -11 3148.35 593.367   3
   6  -2  11 4034.92 649.422   8
   6   2 -12 463.187 227.361   1
  -6  -2  12 568.881 224.543   5
   2   6 -12 542.672 235.450   3
  -2  -6  12 264.970 182.286   6
  -2   6 -12 468.354 334.364  13
   2  -6  12 398.225 230.221   6
   2   6 -12 417.778 249.127  13
  -2   6 -12 631.826 267.152   3
   2  -6  12 533.387 149.714  14
  -2   6 -12 669.384 215.280  12
   2   6 -12 579.109 192.681  12
  -2  -6  12 359.941 248.565  17
   6  -2  12 777.866 180.079   2
   6   2 -12 562.389 296.889  11
   6   2 -12 675.640 416.794   9
  -6   2 -12 81.9866 76.3633  20
   2  -6  12 529.412 192.928  17
  -6   2 -12 97.3156 121.904  19
  -2   6 -12 697.352 197.527  18
   2   6 -12 691.202 281.066  18
  -6  -2  12 668.394 189.153   4
   2  -6  12 412.808 183.059  16
  -2  -6  12 240.924 138.699  16
   6   2 -12 490.955 231.745  18
   6   2 -12 302.058 499.215  10
   6  -2  12 762.842 289.375   8
  -6  -2  12 680.357 291.522  17
  -2   6 -12 682.038 191.795   4
   2  -6  12-3.40419 337.593   8
  -6   2 -12-76.1630 223.207   7
   6  -2  12 778.278 342.929  16
  -6   2 -12 34.3341 193.454  10
  -6  -2  12 365.062 195.095  16
  -6  -2  12 332.948 190.264   2
  -6   2 -12 40.5992 138.380  15
   6  -2  12 603.601 303.899  14
   6   2 -12 388.693 214.360  14
   6  -2  12 565.568 291.943   6
  -2  -6  13 605.295 278.757   6
  -2   6 -13 1113.86 453.060  13
   2   6 -13 901.369 380.188  13
  -2   6 -13 909.644 322.090   3
   6   2 -13 809.241 309.815   1
  -2   6 -13 1025.14 288.762  12
   2   6 -13 959.398 246.236  12
  -6  -2  13 1103.72 367.295   2
  -6  -2  13 1019.84 369.442  16
  -2  -6  13 927.031 353.609  17
  -6  -2  13 1206.87 311.058   5
   2  -6  13 1185.69 433.974  16
   6  -2  13 1521.93 267.883   2
   6   2 -13 885.733 364.645  11
  -6   2 -13 29.7289 232.358  20
  -6   2 -13 93.5472 128.227  19
  -6   2 -13 45.3473 257.191  10
   6  -2  13 1114.32 363.898   8
  -2  -6  13 559.035 336.744   2
  -2   6 -13 1064.75 250.519  18
   2   6 -13 1176.59 362.432  18
  -2   6 -13 1326.16 315.992   4
   6   2 -13 757.692 299.005  18
   2  -6  13 1003.36 274.067  17
  -6  -2  13 1200.01 395.428  17
   6   2 -13-607.409 801.319  10
   2  -6  13 957.767 335.425   6
   6   2 -13 721.434 416.234   9
  -2  -6  13 762.656 298.126  16
   2  -6  13 1043.98 301.234   8
  -6   2 -13-91.1784 247.937   7
  -6  -2  13 1321.89 264.163   4
   6  -2  13 1514.79 475.273  16
  -6   2 -13-37.5537 206.201  15
   2   6 -13 1204.67 352.797   3
   2  -6  13 1058.80 209.986  14
   6  -2  13 1133.95 538.029  14
   6  -2  13 1303.98 484.624   6
   6   2 -13 552.078 244.773  14
   2   6 -14 542.633 223.844  18
  -2  -6  14 394.022 261.889   6
  -2   6 -14 615.303 358.440  13
   2   6 -14 599.188 309.591  13
   2   6 -14 543.467 241.172   3
   2   6 -14 661.960 205.439  12
  -2   6 -14 540.019 208.783  12
   2  -6  14 652.173 315.696   6
   6   2 -14 385.023 228.076   1
  -2   6 -14 567.948 258.465   3
   6  -2  14 893.167 230.557   2
   6   2 -14 459.545 276.792  11
   2  -6  14-156.048 423.256   2
  -6  -2  14 776.010 340.857   2
  -6   2 -14 66.9111 62.6313  19
  -6   2 -14-409.678 511.529  10
   6   2 -14-787.517 1139.65  10
  -6   2 -14-264.140 356.957  20
   6   2 -14 752.488 546.281   9
  -2  -6  14 587.450 359.846   2
  -2   6 -14 526.525 164.811  18
  -6  -2  14 808.022 209.706   4
   6   2 -14 407.078 209.956  18
   6  -2  14 923.398 364.734   8
  -6  -2  14 706.813 308.320  17
  -2   6 -14 919.329 359.718   4
  -2  -6  14 335.524 182.013  17
   2  -6  14 620.925 220.200  17
   2  -6  14 782.403 267.504   8
  -2  -6  14 548.965 275.227  16
   2  -6  14 696.259 316.450  16
   6  -2  14 956.648 440.188  16
  -6  -2  14 595.423 261.393  16
   2  -6  14 570.543 162.907  14
   6  -2  14 450.809 291.038   6
   6   2 -14 288.809 170.441  14
  -6  -2  14 666.245 236.708   5
  -2  -6  15 828.840 416.909   6
   2  -6  15 1415.28 459.084   6
   2   6 -15 958.614 392.386  13
  -2   6 -15 1090.43 304.262  12
   2   6 -15 1320.61 310.150  12
   2  -6  15 1571.55 381.551   8
  -2   6 -15 890.475 347.314   3
   6  -2  15 1435.70 422.746   8
   2  -6  15 662.225 93.8591   2
   2   6 -15 1551.75 543.450  15
  -6  -2  15 1691.82 389.431   5
  -2   6 -15 1497.35 334.682  11
   2   6 -15 1176.25 433.010  11
   6   2 -15 878.285 366.235   1
   6   2 -15 983.948 438.475  11
   6  -2  15 1947.56 362.938   2
  -6  -2  15 1606.51 474.747   2
  -6  -2  15 1718.34 313.417   4
  -6   2 -15 12.7052 81.2404  19
   2  -6  15 1433.06 316.786  17
   2   6 -15 1498.07 377.881  18
  -2   6 -15 1238.37 262.254  18
   6   2 -15 239.804 158.824   9
   6   2 -15 702.090 294.535  18
  -6  -2  15 1819.44 509.790  17
  -2  -6  15 1132.02 380.177  17
   2  -6  15 1081.78 447.529  16
  -2  -6  15 1357.06 435.234  16
  -2   6 -15 901.057 429.391  13
   6  -2  15 1614.90 569.009  16
  -6  -2  15 1377.24 477.805  16
   2   6 -15 1714.91 694.272   7
   2  -6  15 1365.64 273.524  14
   2   6 -15 1384.19 394.720   3
  -2  -6  15 1134.68 469.993   2
   6  -2  15 1238.81 488.290   6
   6   2 -15 416.650 197.808  14
   2  -6  16 80.8005 37.0256  17
   2   6 -16 106.493 89.6406   3
  -2   6 -16 74.1877 82.2784   3
  -2   6 -16 106.378 157.874  12
   2   6 -16 88.7855 110.190  12
   2   6 -16 223.658 178.442  11
  -2   6 -16 133.060 100.861  11
   6   2 -16 17.1963 49.1494   1
   6   2 -16 39.8813 133.487  11
  -2  -6  16 118.790 100.743  17
  -2   6 -16-182.468 207.255  20
  -6  -2  16 79.7887 165.612   5
   2  -6  16 49.5767 189.140   2
   6  -2  16 39.7375 95.0217   8
  -2  -6  16 74.4292 171.234   2
   6   2 -16-795.533 735.566   9
   2   6 -16 269.269 202.986  18
   6   2 -16 41.4126 103.583  18
  -2   6 -16 222.358 292.852  13
   2   6 -16 145.793 381.412  20
   2  -6  16 29.0063 27.7264   8
  -2  -6  16 43.0855 77.8899  16
   2  -6  16 13.5661 136.820  16
   6  -2  16 130.984 305.252  16
   2   6 -16 127.659 309.333   7
  -6  -2  16 53.0488 111.068  16
  -6  -2  16 60.1353 8.99535   4
  -2   6 -16 127.863 193.092   7
  -6   2 -16-88.1632 179.873  19
   6  -2  16 161.688 127.410   2
   2   6 -16 228.275 308.657  15
   2   6 -16-55.4458 76.0558  13
  -6  -2  16 130.534 157.747   2
  -2   6 -16 147.178 326.045  15
  -6  -2  16 209.316 204.967  17
   6  -2  16 57.6941 241.082   6
   2  -6  16 192.096 198.272   6
  -2   6 -16 91.7751 67.1410  18
   2  -6  16-17.5420 54.9429  14
   6   2 -16 23.5201 53.0306  14
  -2  -6  16 36.5546 170.572   6
   2  -6  17 1346.67 492.393   6
  -2   6 -17 786.275 393.840  13
   2   6 -17 821.806 391.454  13
   2   6 -17 931.802 356.520  15
   2   6 -17 1121.69 304.253  12
   2   6 -17 1101.72 379.253   3
  -2   6 -17 1031.59 333.043  12
  -2   6 -17 771.420 309.987   3
  -6  -2  17 1820.32 435.245   5
   2   6 -17 1223.02 414.418  11
  -2   6 -17 1308.51 321.443  11
   6  -2  17 1711.91 371.720   2
   6   2 -17 536.954 372.271  11
   6   2 -17 600.303 313.259   1
  -2   6 -17 379.902 250.722  20
  -2   6 -17 1420.33 547.735  10
  -2  -6  17 1082.31 356.305  17
  -2  -6  17 1080.66 479.441   2
  -6   2 -17-33.1813 90.1368  19
   2  -6  17 1338.63 622.402   2
   2   6 -17 1281.78 712.629  20
  -2   6 -17 1078.62 252.675  18
  -6  -2  17 1552.92 475.846  17
   2  -6  17 1560.09 357.658   8
   2   6 -17 1081.30 327.677  18
  -6  -2  17 1654.92 314.813   4
   6   2 -17 514.890 272.654  18
   2  -6  17 1416.78 333.166  17
   6  -2  17 1441.66 473.003   8
  -2  -6  17 1100.07 418.716  16
   2  -6  17 1316.06 493.581  16
   2   6 -17 866.782 519.553   7
   6  -2  17 1731.47 614.322  16
  -6  -2  17 1499.83 509.045  16
  -2   6 -17 1390.85 679.533   7
  -2   6 -17 1402.93 558.262  15
  -6  -2  17 1304.04 469.637   2
   6  -2  17 1253.65 585.017   6
   2  -6  17 989.299 380.184  14
   2   6 -17 1353.25 737.201  10
  -2  -6  17 666.663 446.315   6
  -6   2 -18 28.8419 108.101  19
  -2   6 -18 151.909 197.068  13
   2   6 -18 170.720 204.657  13
  -2   6 -18 155.154 184.390  12
   2   6 -18 228.972 138.403  12
   2   6 -18 263.323 223.266   3
  -2   6 -18 125.419 181.361   3
   6   2 -18 126.576 220.466  18
   2   6 -18 393.463 268.806  11
  -2   6 -18 402.082 203.699  11
  -2  -6  18 246.064 223.063  17
   2   6 -18 64.7027 28.0996  20
   6   2 -18 141.092 301.049  11
  -2   6 -18 395.760 338.212  20
  -2   6 -18 726.406 478.544  10
   2   6 -18 452.393 355.811  10
   6   2 -18 134.197 259.489   1
   2  -6  18 374.476 383.395   2
   2   6 -18 246.698 197.664  18
  -2  -6  18 380.570 411.764   2
   6  -2  18 390.951 286.634   8
  -2   6 -18 509.281 456.137   7
   2  -6  18 421.149 193.702  17
  -6  -2  18 320.823 273.267  17
   2  -6  18 285.303 161.059   8
  -2  -6  18 192.617 219.059  16
   2  -6  18 399.219 294.366  16
   2   6 -18-685.857 917.161   7
   6  -2  18 220.678 169.740  16
  -6  -2  18 251.524 152.984  16
   2   6 -18-899.690 1050.09  15
  -2   6 -18 95.8212 97.2635  15
   6  -2  18 373.770 185.445   2
  -6  -2  18 476.945 328.945   2
   6  -2  18 431.834 328.545   6
  -2  -6  18-139.836 266.933   6
  -2   6 -18 191.747 140.070  18
  -6  -2  18 387.888 206.437   5
   2  -6  18 232.878 255.586   6
   6  -3   0 626.455 235.511   6
   6  -3   0 759.591 255.322   1
  -6   3   0 927.961 254.846  19
   6   3   0 635.582 342.080   1
   6   3   0 440.327 173.566   8
   6  -3   0 776.489 242.822  14
   6  -3   0 744.880 248.688   8
   6   3   1 3.14394 179.142   8
   6  -3   1 175.685 98.9995  14
   6  -3   1 195.365 116.616   6
  -6   3  -1 247.069 112.298  19
  -6   3  -1 241.215 79.9768  12
   6  -3   1 275.197 136.780   1
   6  -3  -1 103.469 35.0881   1
  -6   3  -1 174.240 82.0942   5
   6   3  -1 221.675 91.0719  18
  -6   3   1 185.884 113.545  19
   6   3  -1 242.851 185.151   8
  -6  -3   1 25.2187 60.3626  17
   6  -3  -1 150.731 99.1801  14
   6  -3   1 171.114 98.6321   8
   6  -3  -1 31.2797 182.893   8
   6   3  -1 196.919 184.604   1
  -6   3  -1 184.785 75.1520   4
   6   3  -2 3361.63 654.218  18
   6   3  -2 2608.52 735.025   1
  -6   3  -2 2614.41 388.345   5
  -6  -3   2 90.8077 150.187  19
  -6  -3   2 431.441 218.138  17
  -6   3  -2 2659.10 407.283  19
  -6   3  -2 2689.47 494.975  12
   6  -3   2 2238.15 366.549   8
  -6   3  -2 2497.60 396.124   4
   6  -3   2 2419.45 385.724   1
   6  -3   2 2342.25 410.674   6
   6  -3   2 2497.00 417.302  14
   6  -3   3 28.9781 28.8670  14
   6   3  -3 19.7449 84.9491  13
   6  -3   3 73.3147 96.8125   6
  -6   3  -3 26.7591 36.4512  12
  -6  -3   3-53.3525 49.1076  19
  -6   3  -3 43.8731 62.3821  19
  -6   3  -3 39.3326 38.4250   5
   6   3  -3 107.987 119.153  18
   6   3  -3 35.4797 63.2834   8
   6  -3   3 47.1860 49.7041   1
  -6  -3   3-19.1845 82.0917  17
   6  -3   3 41.2792 39.0830   8
   6   3  -3 102.799 186.593   1
  -6   3  -3 35.8278 40.6650   4
  -6  -3   3-41.9393 100.747   2
  -6   3  -3 38.7255 103.683   3
  -6   3  -4 732.049 316.447   3
   6   3  -4 830.888 269.561  13
  -6   3  -4 856.567 256.709  12
  -6   3  -4 870.826 210.521   5
  -6   3  -4 850.678 230.750  19
  -6  -3   4 320.187 167.760   2
   6   3  -4 964.093 326.577  18
   6  -3   4 836.436 219.873   8
  -6  -3   4 425.768 254.157  19
  -6  -3   4 425.977 262.887  17
  -6   3  -4 814.766 224.790   4
   6   3  -4 1023.18 280.613   8
   6   3  -4 815.667 391.410   1
   6  -3   4 876.073 202.305   1
   6  -3   4 843.726 233.005   6
   6  -3   4 870.048 233.099  14
   6   3  -5 1579.07 338.425  13
   6  -3   5 1564.33 264.668   1
  -6   3  -5 1348.35 314.939  12
   6   3  -5 1844.01 441.336  18
  -6   3  -5 1173.52 242.349   5
   6   3  -5 1419.38 469.915   1
  -6  -3   5 775.736 282.424   2
  -6  -3   5 599.493 277.428   5
   6  -3   5 1289.00 275.106   8
  -6   3  -5 1415.37 294.913  19
  -6  -3   5 776.566 262.229  19
  -6  -3   5 845.766 310.513  17
   6   3  -5 1822.30 314.337   8
  -6   3  -5 1375.76 300.432   4
   6  -3   5 1505.45 325.284   6
  -6   3  -5 1315.11 380.386   3
   6  -3   5 1449.76 305.427  14
   6   3  -6 1006.58 374.063   1
   6   3  -6 1045.13 269.017  13
  -6   3  -6 841.931 292.041   3
  -6   3  -6 902.540 250.922  12
   3  -6   6 279.721 192.462   6
  -6   3  -6 957.808 234.403   5
  -6  -3   6 694.990 319.370   5
  -6  -3   6 741.735 232.701  19
   6  -3   6 1013.06 211.049   1
  -6   3  -6 973.399 246.720  19
   6   3  -6 1181.08 326.971  18
   6   3  -6 1210.20 225.178   8
   6  -3   6 986.498 245.128   8
  -6  -3   6 694.102 250.499   2
  -6  -3   6 616.048 240.556  17
  -6   3  -6 823.973 230.681   4
   6  -3   6 1227.94 394.031  16
   6  -3   6 1053.53 280.540   6
   6  -3   6 1048.24 256.142  14
   6   3  -6 262.174 258.598  14
  -3   6  -6 1152.35 429.787   3
   6   3  -7 1192.06 287.996  13
   3   6  -7 1233.09 431.167  13
  -6   3  -7-26.0172 166.280  13
  -6   3  -7 1066.28 279.622  12
  -3   6  -7 1464.97 363.889  12
  -6   3  -7 987.479 302.439   3
   3  -6   7 470.820 237.018   6
  -6   3  -7 1026.99 253.907   5
   6   3  -7 1892.16 456.859  11
   6   3  -7 1311.22 439.537   1
  -6  -3   7 867.787 275.308   2
   6  -3   7 1573.98 285.034   1
  -6  -3   7 786.834 332.469   5
   6   3  -7 1908.06 450.723  20
  -6  -3   7 1119.93 251.803  19
  -6   3  -7 960.897 247.237  19
   6   3  -7 1459.88 374.913  18
  -6  -3   7 647.195 263.132   4
  -6  -3   7 909.927 323.725  17
   6  -3   7 1265.42 279.095   8
  -6  -3   7 887.744 218.516  16
   6  -3   7 1778.32 472.164  16
   6   3  -7 1416.21 217.239   8
   6  -3   7 1400.67 327.998   6
  -3   6  -7 1448.70 485.274   3
   6   3  -7 1359.74 282.825   3
   6  -3   7 1289.59 294.816  14
   6   3  -7 386.519 300.922  14
  -6   3  -7 1061.12 281.750   4
   3   6  -8 2688.03 684.702  13
   6   3  -8 2278.44 408.096  13
  -6   3  -8 1498.36 364.879  12
  -3   6  -8 2498.49 445.659  12
   6   3  -8 2353.51 314.290   3
  -3  -6   8 433.573 200.717   6
  -6  -3   8 1643.56 420.914   5
  -6   3  -8 1680.16 373.408   5
   6   3  -8 2977.21 550.473  11
   6  -3   8 2840.48 445.011   1
   6   3  -8 2249.19 547.727   1
  -6  -3   8 1470.20 354.011   2
   6   3  -8 3397.58 650.127  20
   3   6  -8 1746.00 469.853  18
  -6  -3   8 2060.44 321.064  19
   6   3  -8 2421.56 478.901  18
   6  -3   8 2196.90 382.621   8
  -6   3  -8 1779.26 394.413   4
   6   3  -8 2712.43 299.747   8
  -6  -3   8 1353.43 389.644   4
  -6  -3   8 1787.81 439.269  17
  -6   3  -8 811.250 307.456  13
  -6   3  -8 1860.80 365.142  19
  -3  -6   8-57.0829 156.108  17
  -6  -3   8 1728.53 307.415  16
   6  -3   8 3372.99 652.975  16
   6  -3   8 2621.53 465.096   6
  -3   6  -8 2988.36 630.909   3
   3  -6   8 1355.57 377.125   6
   6  -3   8 2194.80 384.691  14
   6   3  -8 420.715 239.132  14
  -6   3  -8 1457.66 376.408   3
  -3   6  -9 862.905 326.285   3
   3  -6   9 1127.18 434.654  14
  -3   6  -9-25.8153 444.894  13
   3   6  -9 1106.40 409.819  13
  -6   3  -9 1793.86 605.948  13
  -3   6  -9 935.175 263.519  12
  -3  -6   9 384.349 196.831   6
   6  -3   9 1849.69 505.418   1
   3   6  -9 1105.78 401.570  18
   6   3  -9 1260.72 367.762  11
   6   3  -9 996.445 348.725   1
  -6  -3   9 1043.99 350.589   2
  -6   3  -9 985.635 314.606   5
  -6  -3   9 1130.82 407.329   5
   6   3  -9 2989.90 940.623  20
  -6   3  -9 873.757 291.028  20
  -6   3  -9 1221.52 374.149   4
  -6   3  -9 570.840 47.8652  10
   6   3  -9 971.995 473.393  10
  -6   3  -9 1037.23 287.736  19
   6   3  -9 1234.15 359.900  18
  -6  -3   9 1066.10 436.143   4
   6  -3   9 1235.13 316.742   8
   6   3  -9 1199.24 244.949   8
  -6  -3   9 1518.99 458.840  17
  -3  -6   9 366.397 251.066  17
   3  -6   9 675.728 252.369   6
   6  -3   9 1612.89 473.771  16
   6  -3   9 1380.86 369.097   6
   3   6  -9 875.964 329.890   3
   6  -3   9 1106.91 291.038  14
   6   3  -9 1103.89 223.803   3
   6   3  -9 1180.22 528.896  14
  -6   3  -9 1687.95 469.628   3
   3   6 -10 2755.20 635.723  13
  -3   6 -10 3163.82 1021.02  13
  -6   3 -10 1090.83 367.083  13
  -6   3 -10 1828.17 431.274  12
  -3   6 -10 2943.24 460.401  12
  -6  -3  10 2444.80 557.219   5
   6   3 -10 3436.68 638.419  11
  -6   3 -10 1420.19 445.849   5
   6   3 -10 2512.09 558.844   1
  -6  -3  10 2345.84 482.331   2
  -6   3 -10 1913.93 447.479  20
   6   3 -10 3283.38 924.360  20
  -6   3 -10 2276.88 452.850  10
   6   3 -10 3835.89 874.273  10
  -6   3 -10 1670.76 350.484  19
  -6  -3  10 2609.52 351.982  19
   6   3 -10 4232.58 794.495   9
  -6  -3  10 2337.64 530.153  17
  -3   6 -10 4796.08 778.611  18
   3   6 -10 3554.22 708.425  18
   6   3 -10 2769.77 527.219  18
   3  -6  10 1706.39 563.650  17
  -6   3 -10 1566.06 440.740   4
   6  -3  10 1681.13 519.090   1
  -3   6 -10 3368.50 402.252   4
  -3  -6  10 789.194 380.785  17
   6  -3  10 4000.46 715.424  16
  -6  -3  10 2488.12 393.872  16
   3  -6  10 1760.18 437.297   8
  -6   3 -10 2080.82 547.319   7
   6  -3  10 3387.25 606.140   6
  -6   3 -10 1964.24 484.247  15
   3  -6  10 2266.42 491.529   6
  -3  -6  10 1470.61 344.774   6
   3   6 -10 2979.27 552.850   3
  -3   6 -10 3202.13 621.810   3
   6  -3  10 3065.31 511.845  14
   6  -3  10 2924.22 474.057   8
   3  -6  10 2624.71 465.290  14
   6   3 -10 752.430 421.716  14
   6   3 -10 2810.65 362.277   3
  -6   3 -10 1336.83 401.978   3
  -6   3 -10 2535.62 425.345   9
   6  -3  11 79.1350 95.2766   6
   3  -6  11 41.2833 34.4171  14
   3   6 -11 84.2355 100.207   3
  -3   6 -11 146.319 306.825  13
  -3   6 -11 87.0875 112.040   3
  -6   3 -11 91.7521 116.746  15
   3   6 -11 135.438 169.384  13
  -6   3 -11-43.4631 62.4775  10
   6   3 -11 33.3318 62.0423   1
   6   3 -11 56.0692 74.8298  18
   6   3 -11 57.7032 30.3087  12
   3  -6  11-59.0086 79.7968   6
  -6   3 -11 148.569 186.587  13
  -3   6 -11 182.084 122.539  12
   6   3 -11 123.104 105.590   3
   6   3 -11 148.246 181.965  11
  -6   3 -11 83.4815 68.8824  20
  -6  -3  11 35.7008 66.4382   5
   6   3 -11-416.743 451.994  20
  -6   3 -11-19.5596 67.6937  19
   6   3 -11 72.7007 231.852  10
  -3  -6  11-125.734 260.912   2
   6   3 -11 266.252 244.556   9
  -6   3 -11 73.6150 71.9360   9
   3  -6  11-140.173 186.159   8
  -6  -3  11 120.275 97.6262  19
  -3   6 -11 144.794 85.2403   4
  -3   6 -11 43.1818 16.7853   5
   3  -6  11 19.2925 79.1067  17
  -3   6 -11 92.1492 68.3032  18
   3   6 -11-12.0381 82.8480  18
  -3  -6  11 32.0683 63.8145   6
  -6   3 -11-21.4823 158.274   4
  -6  -3  11 110.124 123.378   4
  -3  -6  11 7.62180 57.4384  17
   6  -3  11 17.9582 60.1608   8
  -6  -3  11 55.3079 74.7438  17
  -6  -3  11 24.3679 45.0595   2
   3  -6  11-195.681 310.757  16
   6  -3  11 82.3156 106.742  16
  -6  -3  11 84.2783 68.4406  16
  -6   3 -11 35.0313 153.291   7
   6   3 -11 37.2624 152.161  14
   6  -3  11 53.3547 61.1771  14
   3   6 -12 1936.83 533.695  13
  -3  -6  12 1010.58 326.571   6
  -3   6 -12 1745.68 675.071  13
  -6   3 -12 950.570 357.321  13
   6   3 -12 1864.54 195.889  12
  -3   6 -12 2143.40 419.126  12
   3   6 -12 2118.64 397.502  12
  -6   3 -12 1343.50 415.696  20
  -6  -3  12 1922.56 474.733   5
  -3   6 -12 2068.57 215.077   5
   6   3 -12 2214.09 551.424  11
   6  -3  12 1604.94 390.703   2
   6   3 -12 1606.19 465.851   1
  -6   3 -12 1077.77 313.912  19
  -6  -3  12 1733.60 443.527   2
  -6   3 -12 645.624 354.082   4
   6   3 -12 2158.35 894.214  20
   6   3 -12 2093.03 737.800  10
   3  -6  12 1408.62 492.173  16
  -6  -3  12 2127.81 422.303   4
  -3  -6  12 1270.93 487.217   2
  -6   3 -12 1439.95 390.169   9
   3   6 -12 2479.50 561.322  18
   6   3 -12 1942.45 465.090  18
   3  -6  12 2099.89 440.394   8
  -3   6 -12 2472.68 389.918   4
   6  -3  12 2382.50 455.220   8
   3  -6  12 1632.58 345.349  17
  -6  -3  12 2038.92 502.633  17
  -3   6 -12 2011.10 322.149  18
  -3  -6  12 1066.17 426.627  17
   6  -3  12 2777.57 617.807  16
  -6  -3  12 1953.50 406.563  16
  -3  -6  12 1039.19 339.769  16
  -6   3 -12 1447.19 424.165  10
  -6   3 -12 887.671 384.412   7
   6  -3  12 2190.07 542.409   6
   6   3 -12 2800.36 706.841   9
   3  -6  12 1864.51 470.685   6
  -6   3 -12 1008.82 362.268  15
   6  -3  12 2221.77 526.442  14
   3   6 -12 1874.99 427.569   3
  -3   6 -12 1651.51 467.854   3
   3  -6  12 1967.49 314.488  14
   6   3 -12 354.745 389.287  14
   3  -6  13 586.164 163.249  14
  -3  -6  13 321.396 184.777   6
   3  -6  13 598.402 272.230   6
   3   6 -13 641.298 255.024   3
   3   6 -13 727.600 324.907  13
  -3   6 -13 599.742 282.443   3
   3   6 -13 638.722 254.967  18
   3   6 -13 699.457 220.390  12
  -3   6 -13 514.032 216.926  12
  -6   3 -13 316.709 206.851  19
  -3   6 -13 731.669 249.734   4
  -3   6 -13 214.742 159.585  13
   6   3 -13 512.434 264.430  11
  -6   3 -13 360.556 217.412  20
  -6  -3  13 635.079 279.105   5
   6   3 -13-123.987 823.434  20
  -6   3 -13 421.725 226.842   9
  -3   6 -13 571.704 164.867  18
  -3  -6  13 338.429 239.416   2
   6  -3  13 884.857 328.117   2
  -6   3 -13 345.659 234.517  10
   6   3 -13 462.415 245.032   1
   6   3 -13 571.416 266.143  18
  -6  -3  13 656.718 290.817   2
   6  -3  13 822.719 293.074   8
   3  -6  13 598.749 178.220  17
  -3  -6  13 502.791 274.898  17
  -6  -3  13 618.350 234.211   4
  -6  -3  13 688.965 318.211  17
   3  -6  13 696.737 243.513   8
  -3  -6  13 384.860 199.622  16
   3  -6  13 572.001 326.010  16
   6   3 -13 721.797 394.613   9
   6  -3  13 788.185 324.386  16
  -6  -3  13 437.200 208.725  16
  -6   3 -13 237.324 214.551   7
  -6   3 -13 261.089 218.174  15
   6   3 -13 840.268 602.976  10
   6   3 -13 190.347 260.363  14
   6  -3  13 669.106 304.917  14
   6  -3  13 988.274 385.693   6
  -3  -6  14 452.804 274.826   6
   6   3 -14 1168.96 593.342   9
  -3   6 -14 747.147 443.699  13
   3   6 -14 1072.12 423.049  13
  -3   6 -14 1042.65 316.875  12
  -3   6 -14 919.812 359.050   3
   3   6 -14 1514.68 512.225  11
  -3   6 -14 1234.44 287.109  11
   6  -3  14 1756.37 430.062   2
   6   3 -14 1268.64 411.170  11
  -6  -3  14 1269.88 418.399   2
  -6  -3  14 1322.30 380.578   5
  -6   3 -14 375.785 277.024  10
  -6   3 -14 451.370 236.782  19
  -3  -6  14 919.335 337.014  16
   3   6 -14 1285.17 384.741  18
  -3   6 -14 1088.87 232.176  18
  -6   3 -14 333.508 240.012  20
  -3  -6  14 960.782 429.569   2
  -6   3 -14 434.624 285.187   9
   6   3 -14 929.736 607.956  10
   6   3 -14 1132.66 354.896  18
   6   3 -14 952.597 365.518   1
   3  -6  14 1281.68 273.593  17
  -6  -3  14 1339.02 437.967  17
  -3  -6  14 776.102 322.201  17
  -6  -3  14 1361.87 311.592   4
   3   6 -14 1362.45 308.753  12
  -6  -3  14 1402.23 387.030  16
   3  -6  14 1467.26 344.180   8
   3  -6  14 1374.64 495.760  16
   6  -3  14 1600.70 506.056  16
  -6   3 -14 372.383 310.474   7
   3  -6  14 1330.61 444.231   6
   3   6 -14 1772.00 651.319   7
  -3   6 -14 1368.53 432.040   4
  -6   3 -14 183.780 150.793  15
   3   6 -14 1448.14 551.633  15
   3  -6  14 1369.65 261.490  14
   3   6 -14 1130.84 340.885   3
   6   3 -14 71.1840 123.921  14
   6  -3  14 1468.77 530.029  14
   6  -3  14 1279.86 439.482   6
   6  -3  14 1614.69 414.529   8
   3  -6  15 489.348 290.441   6
   3   6 -15 221.288 170.157  13
   3  -6  15 329.020 139.037  17
   3   6 -15 304.843 186.119   3
  -3   6 -15 185.416 159.065   3
  -3   6 -15 206.568 114.554  12
   3   6 -15 314.351 143.198  12
   3   6 -15 509.826 269.022  11
  -3   6 -15 384.899 154.951  11
  -6  -3  15 438.309 234.569  17
   6   3 -15 224.452 199.734  11
   3   6 -15 228.113 325.411  20
  -6   3 -15-102.925 215.947   9
  -6  -3  15 328.304 177.895   5
   6   3 -15 111.860 79.9135   9
  -3  -6  15 331.310 222.527  17
  -6   3 -15 196.479 217.777  10
   6   3 -15 161.071 492.023  10
  -6   3 -15 258.871 196.401  19
  -6   3 -15 39.4511 204.950  15
  -3   6 -15 330.370 257.523  13
  -3  -6  15 348.743 293.506   2
   3   6 -15 382.284 201.135  18
  -3   6 -15 315.996 115.372  18
   6   3 -15 143.106 121.984  18
  -3   6 -15 350.600 341.600   4
   6  -3  15 424.725 207.233   2
   6   3 -15 268.458 198.271   1
  -3  -6  15 132.130 124.047  16
  -6  -3  15 320.454 143.902   4
   3  -6  15 324.885 172.380   8
   3  -6  15 327.030 238.260  16
  -6  -3  15 362.394 204.204   2
  -6   3 -15-133.976 362.624   7
   6  -3  15 386.759 340.313  16
  -6  -3  15 400.572 210.616  16
   6   3 -15 252.535 275.469  14
   3   6 -15 206.429 185.712   7
   6  -3  15 503.084 258.128   8
  -6   3 -15 389.392 298.648  20
   3   6 -15 395.021 244.100  15
   6  -3  15 352.904 323.807  14
   6  -3  15 459.400 312.248   6
   3  -6  15 366.338 157.240  14
  -3  -6  15 39.1887 95.4731   6
   3  -6  16 1164.32 479.201  16
   3  -6  16 1392.94 493.395   6
  -3   6 -16 659.086 417.819  13
   3   6 -16 693.905 316.139  13
   3   6 -16 985.781 266.157  12
   3   6 -16 927.154 317.228   3
  -3   6 -16 583.878 304.646   3
  -3   6 -16 683.173 264.673  12
   3   6 -16 1038.47 655.227   7
   3   6 -16 1262.27 430.762  11
  -3   6 -16 994.471 262.403  11
   6  -3  16 1651.27 419.036   2
   6   3 -16 841.400 376.197  11
   3   6 -16 610.350 513.421  20
  -6   3 -16 199.478 220.692  20
   6   3 -16 965.006 803.651  10
  -6  -3  16 1249.18 386.214   5
  -3   6 -16 293.648 348.084  20
  -6   3 -16-181.813 417.152   9
  -3  -6  16 721.663 414.947   2
  -3   6 -16 832.984 270.616  19
  -3  -6  16 862.084 336.471  16
  -6  -3  16 1227.20 416.662  17
  -3   6 -16 832.084 211.384  18
  -6  -3  16 1139.77 268.348   4
   3  -6  16 1092.97 267.082  17
  -6   3 -16 170.532 155.442  19
   3  -6  16 1007.91 277.275   8
   3   6 -16 1059.94 345.171  18
   6   3 -16 819.011 339.803  18
   6  -3  16 1262.47 404.377   8
   3   6 -16-84.1634 189.036   1
   6   3 -16 615.900 328.112   1
  -6  -3  16 854.529 363.700   2
   6  -3  16 1521.81 545.832  16
  -6  -3  16 1271.93 423.677  16
  -6   3 -16 510.309 344.987  10
  -3   6 -16 957.035 535.356   7
   3   6 -16 607.510 321.313  15
  -3   6 -16 986.764 479.965  15
   3  -6  16 273.788 315.061   2
  -3  -6  16 782.845 362.501  17
   3  -6  16 1103.42 334.325  14
   6   3 -16 338.839 360.506   9
   6  -3  16 1277.89 497.764   6
  -3  -6  16 245.372 318.630   6
   3  -6  17-22.2385 55.6243   6
  -3   6 -17 461.935 436.319  13
   3   6 -17 504.200 314.159  13
   3   6 -17 588.722 410.230   3
  -3   6 -17 174.099 156.685  12
  -3   6 -17 249.270 499.718   7
  -3   6 -17 371.873 279.978   3
  -6   3 -17 132.402 173.252  19
   3   6 -17 245.317 324.249  11
  -3   6 -17 53.6540 133.604  11
   6   3 -17-31.7503 191.607  11
  -3   6 -17 225.482 463.582  20
   3   6 -17 268.979 911.757  20
  -3   6 -17 272.780 367.029  10
   3   6 -17 330.379 662.634  10
  -6   3 -17-353.561 300.241  20
  -6  -3  17-15.4387 148.492   5
  -6   3 -17-27.0128 124.562  10
   3   6 -17 552.812 654.509   1
   6   3 -17 217.975 402.212   9
   6   3 -17 395.534 717.383  10
   3   6 -17 147.250 183.409  18
  -3  -6  17 294.240 419.224   2
  -3   6 -17-12.5644 25.7530  18
   6   3 -17-137.616 101.048  18
   3   6 -17 345.077 265.419  12
   6  -3  17 209.657 226.111   8
   3  -6  17-285.202 491.478   2
   6  -3  17 289.357 252.203   2
  -3  -6  17 626.317 370.335  17
   3  -6  17 77.9565 65.2939  17
  -6  -3  17 18.5654 47.9681  17
   3  -6  17-28.5083 46.5785   8
   6   3 -17-184.205 238.507   1
  -3  -6  17 381.217 429.605  16
   3  -6  17-96.9574 135.780  16
   3   6 -17 717.686 969.531   7
  -6  -3  17-286.951 267.182   2
   6  -3  17 282.373 361.477  16
  -6  -3  17-129.963 190.536  16
   3   6 -17-21.0506 516.297  15
  -3   6 -17 740.210 616.368  15
   3  -6  17 84.1943 147.655  14
   6  -3  17 349.796 313.328   6
  -3  -6  17 1100.70 949.642   6
   3  -6  18 1618.61 635.789   6
  -3   6 -18 806.340 435.308  13
  -6   3 -18-288.049 441.533  10
   3   6 -18 824.250 428.821  13
   6   3 -18-581.887 1200.89  10
   3   6 -18 1525.39 338.744  12
  -3   6 -18 1029.99 363.278  12
   3   6 -18 1457.78 440.432   3
  -3   6 -18 836.765 367.534   3
  -6  -3  18 1968.78 491.570   5
  -3   6 -18 1454.04 362.320  11
   3   6 -18 1396.40 494.876  11
   6  -3  18 2230.97 477.371   2
   6   3 -18 1086.69 473.641  11
  -3   6 -18 584.001 426.297  20
   3   6 -18 1757.59 944.259  20
  -3  -6  18 1637.13 490.473  17
  -3   6 -18 633.237 449.079  10
  -6   3 -18-1082.76 526.991  20
   6   3 -18 793.058 392.587  18
  -6   3 -18 88.1495 145.260  19
   6   3 -18 610.586 336.626   1
   3   6 -18-91.0460 288.005   1
   6   3 -18 403.831 240.226   9
  -3   6 -18 1303.54 316.946  18
   6  -3  18 2076.75 551.816   8
  -3  -6  18 1633.57 638.636   2
   3  -6  18 1935.00 404.628  17
  -6  -3  18 2192.77 609.790  17
   3   6 -18 1376.27 709.114  10
   3  -6  18 1223.14 545.649   2
   3  -6  18 1784.16 627.343  16
   3  -6  18 1812.73 385.910   8
   6  -3  18 2233.94 703.369  16
  -6  -3  18 1363.18 513.552   2
  -6  -3  18 1630.17 554.648  16
  -3   6 -18 1038.26 602.767   7
   3   6 -18 1407.67 406.304  18
  -3   6 -18 1457.42 720.362  15
   6  -3  18 1507.75 608.446   6
  -3  -6  18 31.1216 352.229   6
  -3  -6  18 1293.61 455.716  16
  -6   4  -1 343.726 148.503  19
   6  -4   1 56.3162 215.726   8
   6   4  -2-12.4391 187.396  18
   6  -4   2 133.630 129.557  14
  -6  -4   2-68.5070 158.168  17
   6  -4   2 138.382 166.364   6
  -6   4  -2-38.8200 237.851  12
  -6   4  -2 171.048 125.304  19
   6  -4   2 87.1774 58.2070   8
   6  -4   2 10.9577 126.329   1
   6  -4   3 621.952 225.855  14
  -6   4  -3 987.077 326.928  12
   6  -4   3 646.506 257.854   6
  -6   4  -3 858.965 235.283   5
  -6   4  -3 863.711 258.928  19
   6   4  -3 517.339 346.254   1
   6  -4   3 703.545 231.515   8
   6   4  -3 259.089 110.391   8
  -6   4  -3 770.123 231.032   4
  -6  -4   3 81.7559 148.403  17
   6  -4   3 576.507 206.163   1
   6   4  -3 793.311 349.380  18
   6  -4   4 1.52777 68.4262  14
   6   4  -4-127.896 266.878  13
   6  -4   4-16.6912 66.1154   1
   6   4  -4-40.0473 66.7693  18
   6  -4   4 35.7966 83.4920   6
  -6   4  -4 21.4829 82.0705  19
  -6   4  -4 13.8551 45.9618  12
  -6  -4   4-300.677 340.396  19
   6   4  -4-41.3063 166.060   1
  -6   4  -4 11.0891 31.3858   5
   6   4  -4 72.5347 154.577   8
  -6  -4   4 147.538 225.476  17
   6  -4   4 3.93707 26.8200   8
  -6   4  -4 19.2478 57.3229   4
  -6   4  -4-22.6072 250.963   3
   6  -4   5 602.966 208.132  14
   6  -4   5 690.263 247.280   6
   6   4  -5 600.643 390.136   1
  -6   4  -5 667.788 231.591  12
  -6   4  -5 657.876 190.986   5
  -6   4  -5 597.307 209.010  19
   6  -4   5 665.349 198.714   1
  -6  -4   5 100.605 135.774  19
  -6  -4   5-13.2725 138.355   2
   6   4  -5 625.197 266.727   8
  -6   4  -5 782.283 392.955   3
  -6  -4   5 131.100 155.095  17
   6  -4   5 460.979 179.213   8
  -6   4  -5 540.810 187.535   4
   6   4  -5 700.657 326.948  18
   6   4  -5 587.905 266.281  13
  -6   4  -6 802.400 305.792   3
  -6  -4   6 386.637 220.302   2
   6  -4   6 847.276 240.295   8
   6   4  -6 940.635 306.372  13
  -6   4  -6 1028.39 255.520   4
  -6   4  -6 1007.34 280.696  12
  -4   6  -6 1094.21 315.276  12
   4  -6   6 371.988 224.823   6
  -6   4  -6 1030.97 236.674   5
  -6   4  -6 990.048 269.508  19
  -6  -4   6 390.144 224.414  19
   6   4  -6 1079.76 278.360   8
   6   4  -6 1081.90 377.947  18
  -6  -4   6 299.949 227.633  17
   6   4  -6 1012.37 434.391   1
   6  -4   6 1052.62 291.255   6
   6  -4   6 1015.66 261.292  14
   6  -4   6 1040.16 220.910   1
  -4   6  -6 1002.11 378.908   3
  -4  -6   7-57.1500 109.324  17
  -6   4  -7 671.569 295.844   3
   6   4  -7 778.662 278.866  13
   4   6  -7 564.388 279.034  13
  -4   6  -7 1024.39 311.408  12
  -6   4  -7 952.802 263.540   4
   4  -6   7 347.960 209.122   6
  -6   4  -7 784.097 248.932  12
  -6   4  -7 672.721 177.765   5
   6  -4   7 959.322 201.680   1
  -6   4  -7 898.607 251.433  19
  -6  -4   7 413.960 226.490   2
   4   6  -7 497.477 218.207  18
   6   4  -7 1000.12 350.008  18
   6   4  -7 1022.00 218.762   8
  -6  -4   7 229.079 132.125  19
   6  -4   7 917.426 243.877   8
  -6  -4   7 512.914 273.895  17
   6   4  -7 820.584 377.060   1
   6  -4   7 1073.81 294.187   6
   6  -4   7 892.912 245.643  14
  -4   6  -7 1179.24 429.692   3
  -4   6  -8 1079.25 403.933   3
   4  -6   8 803.850 374.511  14
   6   4  -8 1155.86 330.106  13
   4   6  -8 1182.69 438.018  13
   6  -4   8 897.324 284.025   6
  -6   4  -8 867.327 359.246   3
  -4   6  -8 1003.97 286.051  12
   4  -6   8 485.284 238.703   6
  -6   4  -8 867.801 263.997  12
  -4  -6   8 128.270 118.552   6
  -6   4  -8 823.655 229.926   5
  -6  -4   8 251.726 302.325   5
   6  -4   8 911.077 190.799   1
  -6   4  -8 887.553 245.688  19
  -6  -4   8 760.958 212.211  19
   4   6  -8 891.587 343.935  18
   6   4  -8 1368.59 231.776   8
  -6  -4   8 567.890 229.396   2
   6   4  -8 1320.84 401.042  18
  -4  -6   8 70.3370 124.700  17
  -6  -4   8 710.590 295.796  17
  -6   4  -8 739.903 227.570   4
   6  -4   8 674.265 159.785  16
   4  -6   8 296.075 348.125   8
   6   4  -8 961.322 400.281   1
   6  -4   8 965.802 260.699   8
   6  -4   8 912.388 247.872  14
   4   6  -9 1584.20 485.874  13
   6   4  -9 1132.73 312.842  13
  -6   4  -9-66.8254 242.916  13
  -6   4  -9 971.422 298.129  12
   4  -6   9 879.264 314.670   6
  -4   6  -9 1113.06 324.678  12
  -6   4  -9 918.062 331.634   3
  -4  -6   9 436.681 185.374   6
   4  -6   9 605.181 194.434   8
  -6   4  -9 963.830 242.109   5
  -6   4  -9 1125.92 150.553  11
  -6  -4   9 472.997 305.920   5
   6  -4   9 1395.55 273.781   1
  -4  -6   9 90.2124 183.754  17
  -6  -4   9 913.941 213.545  19
  -6   4  -9 1239.35 287.938  19
   4   6  -9 1326.54 455.182  18
   6   4  -9 1427.81 402.125  18
   6   4  -9 1412.72 199.949   8
   6  -4   9 1085.06 270.757   8
   6  -4   9 1615.22 520.988  16
  -4   6  -9 1452.92 290.960   4
  -6  -4   9 746.718 284.781   2
  -6  -4   9 753.004 345.330  17
  -6  -4   9 627.799 192.478  16
   4   6  -9 1170.84 363.474   3
   6  -4   9 1314.58 350.276   6
   6   4  -9 1164.15 286.025   3
  -4   6  -9 1140.22 424.448   3
   6  -4   9 1240.59 291.079  14
  -6   4  -9 1002.12 293.888   4
   4  -6   9 1101.16 342.756  14
   6   4  -9 1011.74 445.633   1
   4  -6  10-12.4331 84.8331  14
  -4   6 -10-509.958 539.176  13
  -4   6 -10 4.32111 120.900   3
   6  -4  10 109.530 123.389   6
   6   4 -10 105.531 94.9149   3
   4   6 -10 45.5545 94.1068  13
   6   4 -10 32.3399 65.8734  13
  -4  -6  10 1.70507 40.1516   6
   4  -6  10 22.4385 77.9855   6
  -6   4 -10 93.6006 87.2781   3
  -6   4 -10 32.3021 50.2195  12
  -4   6 -10 26.7312 43.5573  12
   6   4 -10 63.3961 66.6418  11
  -6  -4  10 105.219 120.155   5
  -6   4 -10 51.4383 39.7582  11
   4  -6  10 5.87938 88.7328   8
  -6   4 -10 14.0494 42.2301   5
  -6   4 -10-6.62082 152.444  13
  -4  -6  10-241.202 291.932   2
   4   6 -10 123.713 124.516  18
   6   4 -10 78.6248 54.9201   8
  -6   4 -10-3.72552 20.7079  19
  -6  -4  10 30.5316 36.0436  17
  -4   6 -10 18.0753 51.1135   5
  -4   6 -10 36.6470 191.610  18
   6   4 -10 26.5545 55.7531  18
   4  -6  10-78.9344 170.023  17
  -4  -6  10-151.381 209.741  17
  -6   4 -10-12.8008 75.3931   4
   6  -4  10 53.1848 106.264   8
  -6  -4  10-13.8362 50.8389  16
   6  -4  10 41.3580 94.5449  16
  -4   6 -10 65.6370 55.3400   4
  -6  -4  10 80.3902 117.638   2
  -6  -4  10 1.48870 27.1928  19
   6   4 -10-58.3543 151.158  20
   6  -4  10 76.5238 57.0276   1
   4   6 -10-11.7339 44.8276   3
   6  -4  10 42.3379 34.5314  14
   6   4 -10 191.574 235.292   1
  -4  -6  11 588.185 160.997  19
   6   4 -11 1331.28 498.384   1
   4   6 -11 1502.03 458.849  13
   6   4 -11 1661.18 406.484  13
  -4  -6  11 712.105 234.261   6
  -6   4 -11 777.029 350.784  13
  -4   6 -11 1611.43 406.941  12
  -6   4 -11 919.987 310.589  12
  -6   4 -11 962.903 334.437   3
  -6  -4  11 1458.99 438.890  17
   4   6 -11 1803.35 507.711  18
  -4   6 -11 1888.51 239.339   5
   6   4 -11 1949.80 514.602  11
  -6   4 -11 1380.30 238.404  11
  -6  -4  11 1081.71 378.909   2
  -6  -4  11 1044.78 487.967   5
  -6   4 -11 1507.87 441.242   5
   6   4 -11 2370.80 680.724  10
  -6   4 -11 1302.52 355.190  20
  -4  -6  11 616.292 278.022   2
  -6   4 -11 1318.21 309.041  19
  -4   6 -11 1598.81 812.100  13
  -6   4 -11 1158.02 378.774   4
  -4   6 -11 1855.52 321.252  18
   6   4 -11 1739.68 450.266  18
   6  -4  11 1616.37 352.910   8
  -4   6 -11 1892.70 336.608   4
   4  -6  11 1377.95 367.661   8
   4  -6  11 1235.52 178.639   1
   4  -6  11 1389.56 351.371  17
   6  -4  11 1113.96 428.791   1
  -4  -6  11 848.844 385.763  17
   6   4 -11 2290.65 712.490  20
  -6  -4  11 1194.40 314.992  16
   6  -4  11 2256.61 577.375  16
   6  -4  11 1863.83 466.680   6
  -6  -4  11 1361.50 242.473  19
   4  -6  11 1256.57 376.088   6
   4   6 -11 1648.59 411.545   3
   6  -4  11 1833.91 384.366  14
  -4   6 -11 1520.39 447.798   3
   6   4 -11 1680.14 313.398   3
   4  -6  11 1476.35 307.550  14
   4  -6  11 1275.03 407.829  16
  -6  -4  12 457.755 230.449   2
   4  -6  12 608.719 183.828  14
   6  -4  12 818.387 312.719   6
   4   6 -12 480.682 211.921   3
  -4  -6  12 362.908 152.993   6
  -4   6 -12 393.697 362.745  13
   4  -6  12 635.018 281.255   6
   4   6 -12 613.940 263.201  13
   6   4 -12 569.170 311.098   1
  -4   6 -12 585.499 287.005   3
  -6   4 -12 354.984 286.434  13
   6   4 -12 674.909 288.982  13
   6   4 -12 680.289 201.792   3
  -6   4 -12 581.704 265.936  12
  -4   6 -12 630.073 242.961  12
  -6   4 -12 461.768 271.733   3
  -4   6 -12 781.360 172.733   5
   6   4 -12 517.168 149.311  12
  -4   6 -12 636.181 229.584  19
   6   4 -12 777.484 343.280  11
  -6  -4  12 342.053 301.916   5
  -6   4 -12 442.050 174.778  11
  -6   4 -12 435.691 234.663  20
   6   4 -12 1241.99 650.339  20
  -6   4 -12 566.352 264.832  10
   6   4 -12 836.948 399.694  10
   4  -6  12 481.775 149.951  17
   6   4 -12 808.518 310.711  18
  -4  -6  12 343.129 90.7315  19
  -6  -4  12 469.064 157.033  19
  -4  -6  12 224.645 176.670   2
  -4   6 -12 715.080 165.436  18
  -6   4 -12 468.866 189.889  19
   4   6 -12 683.097 295.553  18
  -6   4 -12 495.499 316.288   4
  -4  -6  12 429.081 313.246  17
   6  -4  12 718.287 233.773   8
  -4   6 -12 691.125 222.381   4
   4  -6  12 660.202 241.975   8
  -6  -4  12 574.434 230.529  16
   4  -6  12 394.766 181.822  16
   6  -4  12 825.881 358.561  16
  -6   4 -12 503.510 264.363  15
  -6  -4  12 714.014 317.240  17
   6  -4  12 638.363 250.418  14
   6  -4  13 364.221 213.046   6
  -4  -6  13 85.3060 93.2037   6
   4   6 -13 319.426 171.809   3
   4  -6  13 287.106 191.584   6
  -4   6 -13 98.3089 268.912  13
   4   6 -13 209.146 174.754  13
  -6   4 -13 161.157 186.693  13
  -4   6 -13 358.992 224.959   3
   6   4 -13 252.990 193.898   1
  -6   4 -13 146.617 146.665  12
   6   4 -13 348.720 148.621   3
  -4   6 -13 293.472 172.016  12
   6   4 -13 299.567 92.8630  12
   4   6 -13 239.580 48.4873  12
  -6   4 -13 348.430 287.280   3
   6   4 -13 415.825 272.519  11
   6  -4  13 343.766 180.316   8
  -6  -4  13 299.920 251.418   5
  -4  -6  13 93.3866 95.4568  16
  -4   6 -13 367.883 155.518   5
  -6   4 -13 9.77268 175.534  11
  -6   4 -13 140.908 176.522  20
  -6   4 -13 378.855 232.060   9
   6   4 -13 504.789 639.000  20
  -6   4 -13 225.580 195.894  10
  -4   6 -13 415.323 204.389  19
   4   6 -13 58.6110 237.173   1
  -4  -6  13 182.649 175.060   2
   4   6 -13 414.348 254.544  18
  -6   4 -13 262.762 159.869  19
  -4   6 -13 350.732 117.403  18
   6   4 -13 263.295 164.247  18
  -6   4 -13 161.428 99.4701   4
  -4  -6  13 206.749 194.632  17
   4  -6  13 309.769 124.928  17
  -6  -4  13 276.308 155.541   2
   6   4 -13 176.619 247.779  10
  -6  -4  13 205.790 182.886  17
  -4   6 -13 427.881 196.030   4
   4  -6  13 322.777 144.529   8
   4  -6  13 280.245 193.821  16
  -6  -4  13 400.953 201.822  16
   6  -4  13 538.175 263.893  16
  -6   4 -13 292.822 293.699   7
  -6   4 -13 323.887 241.320  15
   4   6 -13 552.263 346.120  15
   6  -4  13 377.000 181.775  14
   6   4 -13 936.475 544.063   9
   4  -6  13 446.187 155.414  14
   4  -6  14 571.985 286.397   6
  -4   6 -14 608.445 424.664  13
   4   6 -14 741.609 252.161   3
   4   6 -14 512.270 276.622  13
  -6   4 -14 191.751 182.884  13
   6   4 -14 693.283 148.628  12
  -4   6 -14 450.261 272.897   3
   4   6 -14 776.688 226.769  12
  -6   4 -14 672.228 347.834  12
  -4   6 -14 500.299 243.324  12
   6   4 -14 868.029 428.886   1
   6   4 -14 905.404 267.010   3
  -6   4 -14 569.304 340.357   3
   4   6 -14 1115.65 400.251  11
  -4   6 -14 642.194 203.396  11
  -4  -6  14 565.148 345.824   2
   6   4 -14 747.264 342.025  11
  -6  -4  14 801.349 403.788   5
  -6   4 -14 8.00467 107.884  20
   6   4 -14 591.142 703.556  20
  -6   4 -14 330.493 178.227  19
   4   6 -14 679.973 288.863  18
  -6   4 -14 541.244 236.460   9
   4   6 -14 9.45351 162.452   1
  -6  -4  14 672.040 263.158  16
  -4   6 -14 745.676 274.794  19
  -4  -6  14 521.872 279.026  17
  -4   6 -14 548.295 154.423  18
   6   4 -14 575.449 270.283  18
   4  -6  14 690.759 184.322  17
  -4   6 -14 489.472 230.883   4
   6  -4  14 798.639 257.234   8
  -6  -4  14 542.159 293.208   2
  -6  -4  14 679.486 307.031  17
   6   4 -14 1146.00 572.761   9
   4   6 -14 910.281 436.385  15
   4  -6  14 712.585 232.120   8
  -4  -6  14 451.242 240.544  16
   4  -6  14 1038.06 454.570  16
   6  -4  14 761.230 362.717  16
   6  -4  14 923.950 379.528   6
   4   6 -14 1000.13 501.578   7
   6   4 -14 1034.61 700.718  10
  -6   4 -14 392.641 226.928  15
   6  -4  14 691.159 315.717  14
   4  -6  14 633.897 205.637  14
  -6   4 -14 622.028 286.113  10
  -4  -6  14 96.1440 124.666   6
   4  -6  15 823.146 360.894   6
   6   4 -15 918.225 582.203  10
  -4   6 -15 285.553 276.639  13
   4   6 -15 591.925 322.912  13
   4   6 -15 683.094 271.246   3
  -6   4 -15 293.483 285.477  13
   6   4 -15 671.325 146.760  12
   4   6 -15 758.103 228.229  12
  -4   6 -15 439.518 290.955   3
  -6   4 -15 534.300 338.882  12
  -4   6 -15 518.963 229.657  12
   6   4 -15 677.648 246.403   3
   6   4 -15 585.580 293.713   1
  -6   4 -15 378.560 317.947   3
   4   6 -15 692.428 359.642  11
  -4   6 -15 798.261 213.153  11
   6   4 -15 766.492 376.070  11
  -6   4 -15 352.839 181.884  19
  -6  -4  15 673.742 309.872   5
   4   6 -15 722.954 559.540  20
   6   4 -15 661.738 636.463  20
  -4  -6  15 571.759 295.380  16
  -6   4 -15 528.534 309.411  10
   6   4 -15 917.063 528.585   9
  -4   6 -15 750.575 270.898  19
   6  -4  15 278.808 137.998   2
   4   6 -15 817.704 321.781  18
  -6   4 -15 484.126 248.482   9
  -4   6 -15 604.635 162.361  18
   6   4 -15 634.642 290.282  18
   4  -6  15 755.813 190.167  17
  -4   6 -15 809.071 339.068   4
  -4  -6  15 789.040 380.317  17
   6  -4  15 870.669 294.236   8
   4   6 -15 175.319 67.8228   1
  -6  -4  15 691.440 309.413  17
  -6  -4  15 694.867 314.109   2
   4  -6  15 610.344 224.647   8
   4  -6  15 566.446 298.116  16
   6  -4  15 916.401 425.320  16
  -6  -4  15 784.084 298.447  16
   4   6 -15 328.214 247.183   7
  -4  -6  15 317.781 253.037   2
  -6   4 -15 581.021 432.669   7
   4   6 -15 496.975 392.303  15
  -6   4 -15 463.599 276.577  15
  -6   4 -15 411.794 345.682  20
   6  -4  15 789.075 359.917  14
   4  -6  15 852.168 263.218  14
  -4  -6  15 24.2206 101.420   6
   6  -4  15 682.278 328.708   6
   4  -6  16 42.0432 145.558   6
  -4   6 -16 126.079 254.825  13
   4   6 -16-113.123 172.477  13
  -6   4 -16-30.3486 172.311  13
   4   6 -16-70.7528 41.8438   3
  -4   6 -16 40.8768 228.427   3
  -4   6 -16 31.3319 127.893  12
   4   6 -16-12.6203 66.6584  12
   6   4 -16 395.006 261.399   3
   6   4 -16 1864.65 1421.12  10
   4   6 -16-11.9207 104.111  11
  -4   6 -16 49.9547 69.8963  11
   6   4 -16 752.947 621.519   1
   6   4 -16 559.186 500.431  11
  -6  -4  16 719.143 535.111   5
  -4   6 -16-215.248 179.878  20
   4   6 -16-494.930 268.160  20
  -4   6 -16 9.79311 72.9889  19
  -6   4 -16 256.317 252.375  20
   4   6 -16-24.2101 195.111  10
   6   4 -16 518.468 2024.10  20
   4   6 -16-164.519 388.298   1
  -6   4 -16-2.76883 52.2730  19
  -6   4 -16-78.7437 143.533   9
   4   6 -16 11.6782 92.9476  18
  -4  -6  16-70.8441 127.103   2
  -4   6 -16 17.9881 32.8128  18
   6   4 -16 486.604 373.151  18
  -4   6 -16-126.259 350.137   4
  -6   4 -16-37.0097 105.209  10
   6  -4  16 93.6386 105.975   8
  -4  -6  16 68.3410 176.159  17
   4  -6  16 46.6122 45.8609  17
  -6  -4  16 926.444 467.880  17
  -6  -4  16 645.697 423.580   2
   4  -6  16 34.4652 75.2250   8
  -4  -6  16-170.382 150.133  16
   4  -6  16 39.7730 133.665  16
   6  -4  16 84.5195 45.8149  16
  -6  -4  16 604.053 400.677  16
  -6   4 -16-65.0003 178.785   7
   6  -4  16 69.2042 58.3870   2
  -4   6 -16 204.334 389.425   7
   6   4 -16 1324.64 1033.58   9
  -6   4 -16 143.397 222.351  15
  -4   6 -16-78.5772 136.095  15
   6  -4  16-91.4412 187.335  14
  -4  -6  16-224.437 231.405   6
   4  -6  16-32.6500 103.506  14
   6  -4  16-48.7375 80.7181   6
   4  -6  17 523.354 334.696   6
   6   4 -17 414.497 483.777  10
   4  -6  17 628.993 365.490  14
   4   6 -17 1024.79 635.357  10
  -4   6 -17 212.264 319.036  13
   4   6 -17 382.294 280.114  13
  -6   4 -17 161.802 247.160  13
   4   6 -17 297.116 198.509   3
  -4   6 -17 226.141 214.097  12
  -4   6 -17 261.429 219.311   3
  -6   4 -17 11.7323 81.7750  20
   4   6 -17 582.861 234.225  12
  -4   6 -17 128.479 235.494  20
   4   6 -17 935.242 446.372  11
  -4   6 -17 474.179 194.073  11
   6   4 -17 633.784 404.915  11
   4  -6  17-295.324 635.819   2
   6   4 -17 78.1832 90.7086   1
  -6  -4  17 838.095 412.905   5
   4   6 -17 875.489 601.214  20
  -4   6 -17 695.411 372.599  10
   6   4 -17 1624.92 852.385  20
  -6   4 -17-42.1473 173.183  10
  -6   4 -17 100.892 127.494  19
   6   4 -17 532.078 279.092  18
  -4   6 -17 488.537 213.880  19
   6   4 -17 638.885 491.008   9
  -6   4 -17 220.271 165.711   9
   6  -4  17 683.925 385.682   2
   4   6 -17 589.773 298.378  18
   4   6 -17 308.858 548.869   1
   6  -4  17 575.637 231.634   8
  -4  -6  17 257.512 249.538  17
  -6  -4  17 541.707 269.680  17
   4  -6  17 481.048 162.272  17
  -6  -4  17 445.318 277.312   2
   4  -6  17 525.964 232.470   8
  -4  -6  17 602.122 302.939  16
   4  -6  17 551.422 306.500  16
   6  -4  17 528.313 336.407  16
  -6  -4  17 496.049 211.894  16
  -6   4 -17-150.678 276.940   7
  -4   6 -17 820.543 541.058   7
  -4  -6  17 230.091 324.856   2
  -6   4 -17-163.028 283.973  15
  -4   6 -17 735.201 446.438  15
   6  -4  17 202.615 305.156  14
  -4  -6  17-90.0684 330.347   6
   6  -4  17 312.369 274.367   6
   6  -5   3 89.3154 197.914   6
   6  -5   3-152.444 340.289   8
   6  -5   4 207.964 178.772  14
   6  -5   4 14.0105 84.3430   6
  -6   5  -4 278.221 175.585  12
   6   5  -4 42.3508 20.5674  18
  -6   5  -4 93.2275 120.394  19
  -6  -5   4-74.6914 67.2399  17
   6  -5   4-52.4816 148.365   8
  -6   5  -5 200.893 184.958   3
  -6  -5   5-84.3315 175.910  17
   6   5  -5-215.612 401.455  13
  -6   5  -5 247.639 137.809  19
   6  -5   5 171.301 150.503   6
  -6   5  -5 248.061 150.978  12
   6  -5   5 102.464 68.0191  14
  -6   5  -5 192.915 69.9765   4
   6   5  -5 45.0374 66.7677  18
   6  -5   5 190.495 141.592   8
   6  -5   5 65.6088 104.867   1
  -6   5  -6 85.0421 89.5305  19
   6  -5   6 2.52959 58.6747  14
   6   5  -6-45.0022 175.636  13
   6  -5   6 63.5986 111.284   6
   5  -6   6 97.8711 145.131   6
  -6   5  -6 76.6758 82.6635  12
  -5   6  -6-12.5054 112.560  12
  -6  -5   6-281.921 419.273  19
   6   5  -6 76.5337 35.8787   1
  -6   5  -6 44.5108 39.6400   5
   5   6  -6-19.8030 137.297  18
   6   5  -6 96.7207 114.544  18
  -6  -5   6 190.480 203.474  17
   6   5  -6 45.7032 75.1284   8
  -5  -6   6 78.0750 157.334  17
   6  -5   6 121.905 118.059   8
  -6   5  -6 55.8636 83.9677   4
   6  -5   6 68.6756 92.4003   1
  -5   6  -6-142.137 452.731   3
  -6   5  -6 163.313 181.279   3
   6  -5   7 498.831 190.665  14
  -6   5  -7 646.689 341.172   3
   5   6  -7 234.015 135.527  13
   6   5  -7 542.948 270.177  13
   6  -5   7 440.168 210.359   6
   5  -6   7 249.906 170.764   6
   6  -5   7 481.597 163.708   1
  -6  -5   7 30.1779 66.1897   6
   5  -6   7 553.784 354.447  14
  -6   5  -7 501.401 202.227  12
  -5   6  -7 593.958 244.636  12
  -6  -5   7-218.917 217.490  19
   6   5  -7 497.399 256.502  18
   6   5  -7 195.465 207.757   1
  -6  -5   7-139.472 297.177   2
   6   5  -7 451.359 214.468   8
   5   6  -7 435.737 276.813  18
  -5  -6   7-61.1278 139.380  17
  -6  -5   7-131.606 121.387  17
  -6   5  -7 563.501 181.490   5
  -6   5  -7 589.834 223.340  19
   6  -5   7 356.591 167.353   8
   5  -6   7 15.3583 226.861   8
  -6   5  -7 617.710 208.338   4
  -5   6  -7 675.993 358.269   3
  -5   6  -8 238.187 179.028   3
   6  -5   8 259.597 145.662  14
   5  -6   8 343.485 216.631  14
  -5  -6   8 7.70146 25.3721  17
   6  -5   8 248.098 94.3481   1
  -6   5  -8 188.592 170.624   3
   5   6  -8 297.529 204.545  13
   6   5  -8 229.185 142.475  13
  -6  -5   8 79.5964 39.8022   6
   6  -5   8 148.571 126.233   6
   5  -6   8 203.147 156.109   6
  -5  -6   8 81.5608 38.3444   6
  -6   5  -8 337.419 183.432  12
  -5   6  -8 369.492 195.425  12
   5  -6   8 71.3044 72.9052   8
  -6  -5   8 188.006 164.659  19
  -6   5  -8 318.720 127.046   5
  -6   5  -8 364.176 181.709  19
   5   6  -8 269.377 220.776  18
   6   5  -8 352.459 249.337  18
   6   5  -8 190.125 111.347   1
   6   5  -8 267.147 134.979   8
  -6  -5   8 200.212 210.031  17
   6  -5   8 322.692 159.295   8
  -6   5  -8 313.424 141.106   4
  -5   6  -8 309.238 143.871   4
  -6  -5   8 65.4583 75.5803   2
   6  -5   9 243.174 134.792  14
  -6  -5   9 20.5635 59.1382   6
  -5   6  -9 279.373 118.354   5
   5  -6   9 140.662 84.8277  14
  -5   6  -9 316.056 239.356   3
   5  -6   9 85.5264 117.829   1
   5   6  -9 132.895 186.525  13
  -6   5  -9 167.669 152.451   3
   6   5  -9 272.389 170.213  13
   6  -5   9 227.918 137.804   6
   5  -6   9 143.025 141.419   6
  -5  -6   9 136.328 107.024   6
  -6   5  -9 267.745 154.915  12
  -5   6  -9 242.694 150.645  12
   6  -5   9 196.192 93.8490   1
   6   5  -9 245.493 94.2840   8
  -5  -6   9-147.260 288.487   2
  -6   5  -9 187.437 81.8339  18
  -6  -5   9 171.797 138.113  19
  -6   5  -9 148.351 61.2598   5
   5   6  -9 362.001 268.135  18
  -6  -5   9 52.6039 97.9414   2
  -6   5  -9 239.387 134.548  19
   6  -5   9 143.008 74.8405  17
  -5  -6   9-19.0552 48.1609  17
   6   5  -9 161.250 242.381   1
  -6  -5   9 201.099 182.440  17
   6  -5   9 196.011 128.442   8
   5  -6   9 170.024 124.789   8
  -6   5  -9 231.172 133.481   4
  -5   6  -9 197.920 137.009   4
   6   5  -9 43.9274 202.858   3
   6   5  -9 396.589 236.750  18
   5  -6  10 210.085 148.863  14
   6   5 -10 141.726 140.025  13
  -5   6 -10 148.157 166.859   3
   5   6 -10 71.6311 45.6543  13
   6  -5  10 158.869 132.228   6
  -6   5 -10 238.344 204.988   3
  -5  -6  10 54.3596 56.9182   6
   5  -6  10 170.664 160.880   6
  -6   5 -10 182.330 122.431  12
  -5   6 -10 248.090 141.128  12
   5  -6  10 162.579 71.8583   1
  -6   5 -10 176.391 114.158   5
  -5  -6  10 80.5791 109.477  19
  -5  -6  10-436.377 266.842   2
  -5   6 -10-46.9587 179.911  19
   6   5 -10 259.229 195.070  18
  -5   6 -10 253.709 106.339   5
  -6  -5  10 82.3713 173.874   2
   5   6 -10 218.635 166.175  18
   5   6 -10 127.102 88.1901   8
   6  -5  10 12.9410 308.895  16
   6  -5  10 221.186 116.982   1
   5  -6  10 59.5492 121.773  17
  -6  -5  10 163.560 116.175  19
  -6   5 -10 179.454 108.279  19
  -5  -6  10 263.369 246.971  17
   6  -5  10 167.508 53.3491  17
  -6  -5  10 116.099 157.366  17
   6   5 -10 276.040 252.557   1
   6  -5  10 130.887 105.665   8
  -6   5 -10 118.527 87.7871   4
   5  -6  10 145.298 133.088   8
   6   5 -10 65.4660 61.8073   7
  -5   6 -10 241.815 160.173   4
   6   5 -10 87.8979 66.4247  15
   5   6 -10 120.008 33.5062   3
   6   5 -10 210.968 78.7292   8
  -6  -5  10 82.3943 121.295   6
   6   5 -10 235.199 143.427   3
   6  -5  10 173.975 102.876  14
   5  -6  11 324.552 159.668  14
  -6   5 -11 288.575 148.376  19
   6   5 -11 251.238 136.426   3
  -5   6 -11 32.7730 364.921  13
  -5  -6  11 80.5689 52.7033   6
  -6   5 -11-27.2825 101.311  13
   6  -5  11 354.440 200.583   6
  -5   6 -11 242.959 194.698   3
   5   6 -11 487.945 270.510  13
   5  -6  11 307.162 167.827   6
   6   5 -11 392.447 238.797  13
  -6   5 -11 212.171 206.178   3
   6  -5  11 309.079 153.612   1
  -6   5 -11 179.295 162.625  12
  -5   6 -11 321.621 201.021  12
  -6   5 -11 264.719 87.7676  11
  -6   5 -11 296.564 129.045   5
   5   6 -11-101.019 215.717   1
  -6  -5  11 62.2998 93.7666   2
   6   5 -11 328.448 194.723  18
   5  -6  11 242.652 82.7181   1
   5  -6  11 304.060 155.841  17
  -6  -5  11 4.57965 144.767  16
  -5  -6  11 18.1427 148.273  17
   6  -5  11 276.667 70.2534  17
  -5  -6  11 96.2204 29.5080  19
  -6  -5  11 158.241 159.482  17
  -6  -5  11 232.467 106.805  19
  -6   5 -11 216.649 163.353   4
   6  -5  11 329.634 161.147   8
   6   5 -11 239.711 88.5409   8
  -5   6 -11 361.783 173.712  19
   6  -5  11 195.149 130.433  16
  -5   6 -11 350.030 176.547   4
   6   5 -11 386.971 322.335   1
  -5  -6  11 29.9084 32.0471   2
  -5   6 -11 275.696 95.5222   5
  -5   6 -11 294.279 114.119  18
  -6  -5  11 2.16559 60.0227   6
   5   6 -11 282.856 174.868  18
   5  -6  11 305.071 182.633   8
   5   6 -11 290.930 209.849   3
   6  -5  11 305.715 166.141  14
   5  -6  12 111.252 102.528  14
   5   6 -12 70.8370 80.9663   3
  -5  -6  12 158.429 162.817   6
   6  -5  12 107.427 132.890   6
   6   5 -12 101.105 100.079   3
  -5   6 -12-99.7133 317.686  13
  -6   5 -12 20.0410 182.183  13
   5  -6  12 39.1570 104.412   6
  -5   6 -12 64.6574 114.772   3
   5   6 -12 216.489 190.450  13
   6   5 -12 47.1009 96.0378  13
  -6   5 -12 2.81129 64.4895   3
  -6   5 -12 2.42047 26.3614  12
  -5   6 -12 104.523 112.862  12
   6   5 -12-106.044 154.126  11
  -6   5 -12 93.1626 58.0073  11
  -6   5 -12 73.0763 57.3402   5
  -5   6 -12 131.742 137.238  19
   6   5 -12 243.200 152.901  20
  -5   6 -12 133.723 87.9282   5
  -6  -5  12 28.2845 94.6293  17
  -6   5 -12 97.0475 89.5302  19
   5   6 -12 77.9973 82.4296   1
  -5  -6  12 226.056 216.919   2
   5  -6  12 133.201 70.4296   1
   5   6 -12 146.340 171.485  18
   6   5 -12 186.034 169.202  18
  -6  -5  12 181.113 104.518   2
  -6   5 -12 94.1354 109.349   4
  -5   6 -12 100.067 53.7459  18
   5  -6  12 127.898 72.8323  17
  -5  -6  12 7.12912 69.5488  17
   6  -5  12 126.889 99.8534   8
   6  -5  12 61.8208 32.1435  17
   6  -5  12 76.7960 17.3407   1
  -6  -5  12 90.7761 93.8230  16
  -5   6 -12 104.233 104.685   4
   5  -6  12 140.046 108.153   8
   5  -6  12-99.6387 335.462  16
   6  -5  12 222.449 265.772  16
   6   5 -12-177.281 319.634   1
  -6  -5  12-190.083 171.381   6
  -6  -5  12 134.622 94.8002  19
   6  -5  12 141.382 105.153  14
  -5  -6  12 110.212 69.8445  19
   5   6 -13 944.745 427.905   7
   6  -5  13 808.107 335.177   6
   5   6 -13 536.917 233.779   3
   5  -6  13 561.483 291.390   6
  -5   6 -13 510.801 443.353  13
  -6   5 -13 205.691 363.314  13
   6   5 -13 724.940 244.034   3
   5   6 -13 613.990 326.444  13
   6   5 -13 541.667 241.181  13
  -5   6 -13 455.844 234.484   3
  -6   5 -13 394.724 236.842   3
  -6   5 -13 395.488 200.513  12
  -5   6 -13 467.996 231.694  12
   5  -6  13 509.051 130.920  17
   6   5 -13 663.653 306.977  11
  -6   5 -13 296.912 160.310   5
  -6   5 -13 507.540 156.655  11
  -5   6 -13 750.194 253.769   5
   6   5 -13 884.649 576.212  20
   6   5 -13 1013.44 524.858  10
   6   5 -13 403.124 337.379   1
   6   5 -13 646.991 300.208  18
  -5  -6  13 291.651 285.643   6
  -6   5 -13 495.635 198.539  19
  -5   6 -13 609.717 251.814  19
  -5   6 -13 483.917 126.254  18
  -5  -6  13 295.735 266.750   2
  -6   5 -13 540.467 292.271   4
   5   6 -13 175.348 198.558   1
   5   6 -13 472.627 275.052  18
   5  -6  13 519.064 210.290   8
  -6  -5  13 324.714 233.533   2
  -5  -6  13 506.042 277.943  17
  -6  -5  13 704.996 327.996  17
  -5   6 -13 497.308 224.530   4
   6  -5  13 627.556 233.422   8
  -5  -6  13 222.022 139.312  16
  -6  -5  13 478.760 235.438  16
   6  -5  13 628.980 349.716  16
  -6   5 -13 391.794 206.090  20
  -5  -6  13 296.127 97.1541  19
   5  -6  13 497.530 244.961  16
   5   6 -13 539.366 307.548  15
  -6  -5  13 388.727 136.546  19
   6  -5  13 557.244 230.087  14
   5  -6  13 544.446 184.527  14
   6  -5  14 122.328 136.958   6
   5  -6  14 60.5392 174.176   6
   5   6 -14 28.4427 35.7779   3
  -5   6 -14-131.239 329.259  13
  -6   5 -14 206.602 272.821  13
   5   6 -14 99.1829 165.605  13
   6   5 -14 11.4663 26.2409   3
   6   5 -14 49.7261 57.4854  13
  -5   6 -14-47.0664 120.089   3
  -6   5 -14-53.8907 103.899  12
  -6   5 -14-76.5941 141.735   3
  -5   6 -14 107.906 142.053  12
   6   5 -14-170.432 164.819  12
  -6   5 -14-22.4244 62.7803  19
   5   6 -14 176.168 160.626  11
  -5   6 -14-17.0632 7.37413  11
   6   5 -14 47.4595 177.346  11
  -6   5 -14 66.2125 72.8593  11
  -6   5 -14 219.998 209.147  20
   6   5 -14 450.550 391.988  20
   6   5 -14 254.544 281.344  10
  -5  -6  14-44.0085 62.7630   2
   5   6 -14 14.8069 25.4194  18
   6   5 -14 91.0583 164.477  18
   5   6 -14-157.851 253.722   1
  -5   6 -14 34.2801 32.0170  18
   5   6 -14-89.4470 370.894  20
  -5   6 -14 97.5292 98.0466  19
  -6  -5  14 56.8719 88.3758   2
  -6   5 -14-100.262 191.241   4
  -6   5 -14 81.7754 135.770  10
  -5   6 -14-55.6681 117.922   4
  -5  -6  14 7.95208 25.2578  17
  -6  -5  14-10.4342 70.9667  17
   5  -6  14 15.3099 28.7877  17
   6  -5  14 52.4927 42.1653   8
   5  -6  14 34.7155 25.6376   8
  -5  -6  14-125.794 190.963  16
   5  -6  14 63.9269 175.491  16
  -6  -5  14-32.0898 71.2675  16
   6  -5  14 152.274 212.393  16
   5   6 -14-152.740 300.004   7
  -6   5 -14 108.938 199.750   7
   5   6 -14-74.3181 337.372  15
   6   5 -14 240.631 313.912   1
  -6   5 -14-104.600 195.469  15
   6  -5  14 66.9493 121.928  14
  -5  -6  14 18.8929 98.7017   6
   5  -6  14 11.2785 48.7325  14
   6  -5  15 366.358 258.472   6
   5  -6  15 279.290 227.241   6
  -5   6 -15 358.953 393.791  13
   5   6 -15 460.301 207.214   3
  -6   5 -15 5.03691 201.155  13
   5   6 -15 281.518 200.660  13
   6   5 -15 488.634 301.281  13
   6   5 -15 495.391 244.024   3
  -5   6 -15 217.709 221.815   3
  -6   5 -15 188.265 176.617  12
  -5   6 -15 320.393 211.053  12
  -6   5 -15 104.510 126.838   3
  -5  -6  15 351.276 228.788  16
   5   6 -15 401.191 144.786  12
  -6  -5  15-258.497 313.581   5
   5   6 -15 373.401 163.794  11
  -5   6 -15 355.635 133.930  11
   6   5 -15 389.271 328.228  11
  -6   5 -15 321.832 156.217  11
  -5  -6  15 221.702 242.221   2
   5   6 -15-232.028 544.473  20
  -6   5 -15 279.117 114.606  20
   6   5 -15 325.138 743.400  20
  -6   5 -15 250.432 141.057  10
   6   5 -15 479.849 642.637  10
   5   6 -15 343.417 210.081  18
   6   5 -15 673.380 600.949   9
  -6   5 -15 208.312 144.263  19
  -5   6 -15 368.860 191.666  19
   5  -6  15 544.816 160.915  17
   6   5 -15 227.797 214.090  18
  -6   5 -15-8.40883 217.259   4
   5   6 -15 37.7037 315.828   1
  -6  -5  15 325.935 223.155   2
  -5   6 -15 355.512 239.874   4
  -5  -6  15 233.058 261.583  17
  -6  -5  15 830.210 447.824  17
   6  -5  15 390.677 189.341   8
   5  -6  15 429.340 201.104   8
   5  -6  15 445.156 310.013  16
  -6  -5  15 475.906 292.133  16
   6  -5  15 591.964 358.499  16
  -6   5 -15 246.500 230.351   7
  -6   5 -15 589.854 368.189  15
   6   5 -15 477.345 598.548   1
  -5  -6  15-303.585 252.299   6
   6  -5  15 487.226 251.278  14
  -6   5 -15 309.114 200.180   9
   5  -6  15 377.724 186.678  14
   6  -5  16 438.190 278.307   6
   5  -6  16 165.246 157.910   6
  -5   6 -16 996.315 618.511  13
  -6   5 -16 226.462 226.016  13
   5   6 -16 644.079 479.622  13
   6   5 -16 745.772 533.774  13
  -5   6 -16 393.100 299.386   3
  -6   5 -16 22.3827 96.9913  12
  -5   6 -16 325.941 280.878  12
  -6   5 -16 199.557 169.382   9
  -6   5 -16 53.4916 104.113   3
  -5  -6  16 2703.17 730.556  17
   5   6 -16 980.749 553.135  11
  -5   6 -16 356.267 181.544  11
  -5  -6  16 1822.60 674.096   2
  -5   6 -16 527.574 320.005  20
  -6   5 -16 102.276 172.125  20
  -5   6 -16 659.156 362.585  10
   5   6 -16 2513.14 920.122  10
  -6   5 -16-42.3057 62.5668  10
   5   6 -16 1626.03 543.947  18
  -6   5 -16 47.5171 88.0712  19
  -5   6 -16 505.941 505.642   4
   5   6 -16 3895.35 1189.76   1
   6  -5  16 136.013 102.469   8
   5  -6  16 129.200 78.5667   8
   5   6 -16 5409.48 1330.33  20
  -5  -6  16 1109.59 424.568  16
   5  -6  16 63.9944 242.369  16
   6  -5  16 325.662 276.020  16
  -6   5 -16 223.238 291.175   7
  -5   6 -16 710.328 471.836   7
  -6   5 -16-148.675 278.269  15
  -5   6 -16 568.823 422.049  15
   5   6 -16 1486.79 452.288   3
  -5  -6  16 999.760 669.033   6
   6  -5  16 337.666 328.377  14
   5  -6  16 181.483 163.126  14
  -5   6 -16 259.516 168.245  19
   5  -6  17-171.756 251.692   6
   6   5 -17 492.948 592.794   9
  -5   6 -17-222.671 369.458  13
  -6   5 -17-214.927 253.513  13
   5   6 -17 168.474 275.586  13
   6   5 -17 389.449 382.258  13
   5   6 -17 29.8432 112.019   3
  -6   5 -17-25.6134 136.355  12
  -5   6 -17-48.2222 85.6478   3
  -5   6 -17 101.536 60.3431  12
   6   5 -17 40.7913 142.348   3
  -6   5 -17 152.369 319.582   3
  -6  -5  17-206.569 278.168   5
   5   6 -17 155.149 274.579  11
   6   5 -17 190.576 264.935  11
  -5   6 -17 31.0011 27.9066  11
  -6   5 -17 156.246 171.749  19
   6   5 -17 779.588 880.263  20
  -5   6 -17-92.5012 125.081  20
   5   6 -17 346.837 635.510  20
  -6   5 -17 809.005 519.490  20
  -5   6 -17-99.6367 124.381  10
   5   6 -17-118.776 150.629  10
   6  -5  17-30.0913 89.2163   8
   6   5 -17 112.893 184.719  18
  -6   5 -17 109.812 334.984   9
   5   6 -17 53.3928 141.172  18
  -5  -6  17 252.821 311.982   2
  -6  -5  17-1.44909 68.9117   2
   5   6 -17 109.930 511.969   1
   5  -6  17 50.8978 108.991  14
  -5  -6  17-26.0568 74.9269  17
  -6  -5  17 18.9486 57.9882  17
   5  -6  17 81.8883 167.196   8
  -5  -6  17 30.8325 106.607  16
   5  -6  17 54.7431 145.053  16
  -6  -5  17 46.2537 166.835  16
   6  -5  17 184.173 238.935  16
  -6   5 -17 136.763 219.728   7
   6   5 -17 184.457 562.895  10
  -5   6 -17 320.254 403.378   7
  -6   5 -17 495.151 378.158  15
  -5   6 -17 113.963 219.394  15
  -5   6 -17 59.0682 54.3948  19
  -5  -6  17-254.306 369.058   6
   6  -5  17 26.4039 241.165  14
   6   5 -17 132.202 365.249   1
  -6   5 -17 438.494 366.860  10
   6  -5  17-110.394 109.059   6
   6  -6   5-12.2720 105.171   6
  -6   6  -5-193.473 279.472  12
  -6  -6   5 56.4005 132.640  17
   6   6  -5-88.7807 136.933  18
   6  -6   6 173.057 173.433   6
  -6   6  -6 456.557 228.099  12
   6   6  -6 467.503 251.767  18
  -6  -6   6 32.2308 74.2983  17
   6  -6   6-4.55192 297.333   8
   6   6  -7-222.213 311.948  13
   6  -6   7 14.0290 94.9950   6
   6  -6   7 43.7379 101.327  14
  -6   6  -7 4.68871 4.72384  12
   6   6  -7-86.7302 150.011  18
  -6  -6   7 73.0386 160.653  17
   6  -6   7-129.316 189.463   8
  -6   6  -7-28.9372 60.6876   4
  -6   6  -7-187.600 218.649   3
   6  -6   8 174.015 87.8928   1
  -6   6  -8 270.255 122.583   5
   6  -6   8 185.662 140.996  14
   6   6  -8 170.750 144.474  13
   6  -6   8 203.037 186.929   6
  -6  -6   8-16.2362 55.2826   6
  -6   6  -8 313.800 207.634  12
  -6   6  -8 176.043 21.1001  19
  -6  -6   8 93.1355 115.193  17
   6   6  -8 159.087 195.479  18
   6   6  -8 59.6160 56.5124   8
   6  -6   8 203.652 161.083   8
  -6  -6   8-105.898 181.749  19
  -6   6  -8 260.706 130.160   4
  -6   6  -8 270.415 263.975   3
   6  -6   9 36.2426 114.100  14
  -6   6  -9 84.4184 141.398   3
   6   6  -9-17.2861 36.7886   8
   6  -6   9-68.3216 142.867   6
   6  -6   9-7.11432 32.7335   1
  -6  -6   9 32.1736 40.2382   6
  -6   6  -9-66.3620 92.5741  12
  -6   6  -9 19.0921 77.5104   5
  -6  -6   9-161.453 287.746   2
  -6  -6   9 100.355 174.271  19
  -6   6  -9-4.73113 88.0901  19
  -6  -6   9-81.2096 214.161  17
   6  -6   9 11.0106 85.2533   8
  -6   6  -9 8.39373 23.5436   4
   6   6  -9 37.3017 67.4471  18
   6   6  -9-11.6035 51.4796  13
   6  -6  10 31.5697 44.4443  14
  -6   6 -10-67.4263 158.790   3
  -6  -6  10-9.65609 50.2639   6
   6   6 -10-67.3237 97.8710  13
   6  -6  10 4.29057 110.228   6
  -6   6 -10-102.248 128.010  12
  -6  -6  10 104.659 92.1249  19
  -6  -6  10-94.6279 229.646   2
  -6   6 -10-6.08191 42.4130   5
   6   6 -10-100.692 157.746   1
  -6   6 -10 31.3308 38.3073  19
   6   6 -10 87.6103 167.976  18
   6   6 -10 14.6122 8.63061   8
   6  -6  10-29.4532 135.693  17
  -6  -6  10 41.2730 157.539  17
   6  -6  10 21.2632 70.5158   8
   6  -6  10-9.82352 37.8644   1
  -6   6 -10 15.9166 40.9683   4
   6  -6  11 16.5938 58.0525  14
  -6  -6  11 27.6672 28.7461   6
  -6   6 -11 21.9329 101.165   3
   6   6 -11 88.6241 106.112  13
   6  -6  11 26.3797 101.327   6
  -6   6 -11 16.6211 67.8267  12
  -6   6 -11-15.7605 46.3310   5
  -6  -6  11-141.694 183.402   2
  -6  -6  11-15.3035 38.3157  19
   6   6 -11-304.981 407.136   1
  -6   6 -11-5.93612 24.3125  18
   6   6 -11 14.5079 13.0493   8
   6  -6  11-14.2944 20.1260  17
  -6  -6  11-38.7336 133.968  17
   6  -6  11-27.4262 58.9535   8
  -6   6 -11 29.1615 20.6269   4
   6   6 -11 45.2367 124.171  18
  -6   6 -11-37.3027 81.5294  19
   6   6 -11-39.0801 178.300   3
   6  -6  11 4.24219 28.0218   1
  -6   6 -12-834.570 616.056  13
   6  -6  12 280.104 175.644   6
  -6   6 -12 498.642 304.555   3
   6   6 -12 334.855 214.152  13
  -6   6 -12 595.645 211.285   5
  -6   6 -12 333.339 186.190  12
   6  -6  12 368.897 155.762   1
  -6  -6  12 297.126 124.344  19
  -6   6 -12 433.699 192.787  19
  -6  -6  12 252.365 203.393   2
   6   6 -12 469.804 439.965   1
   6   6 -12 538.166 297.721  18
  -6  -6  12 133.039 57.0434  17
   6  -6  12 357.974 92.7736  17
  -6   6 -12 461.392 216.900   4
   6  -6  12 472.363 208.560   8
   6  -6  12 31.9883 559.387  16
   6   6 -12 480.949 238.304   7
   6   6 -12 566.078 272.784  15
  -6  -6  12 59.3295 77.1004   6
   6   6 -12 541.361 245.325   3
   6  -6  12 452.929 178.267  14
   6   6 -13 91.9451 108.579   3
   6  -6  13-17.2425 85.0615   6
  -6   6 -13 158.811 275.151  13
   6   6 -13-0.37313 76.9668  13
  -6   6 -13-60.0950 83.2161   3
  -6   6 -13 30.7480 74.0844  12
  -6  -6  13 37.8788 59.5306  19
   6   6 -13 226.744 232.317  11
  -6   6 -13-29.0479 11.8935  11
  -6   6 -13 77.5427 171.193   5
  -6   6 -13-21.3842 66.4930  19
  -6  -6  13-9.07816 127.736   2
   6   6 -13-166.405 155.778  18
   6   6 -13 214.277 230.949   1
  -6  -6  13-285.955 295.981  16
  -6  -6  13-50.4272 78.4067  17
  -6   6 -13 39.2884 173.285   4
   6  -6  13 48.2811 68.5521   8
   6  -6  13-246.245 395.211  16
   6  -6  13 137.512 106.513   1
  -6  -6  13 40.5584 106.011   6
   6  -6  13 34.0381 76.9137  14
   6   6 -14 464.863 206.701   3
   6  -6  14 461.443 265.404   6
  -6   6 -14 8.83886 340.613  13
   6   6 -14 531.726 309.483  13
  -6   6 -14 302.476 246.571   3
  -6   6 -14 379.394 216.538  12
   6   6 -14 273.409 158.103  11
  -6   6 -14 527.091 167.786  11
   6   6 -14 414.839 260.250  18
  -6   6 -14 363.054 181.509  19
   6   6 -14-197.014 650.876  20
  -6  -6  14 174.618 302.360   2
   6   6 -14 357.905 619.440   1
  -6   6 -14 469.680 242.740   4
  -6  -6  14 348.539 193.780  17
   6  -6  14 487.900 218.336   8
   6  -6  14 492.175 266.845  16
  -6  -6  14-164.563 220.123   6
  -6  -6  14-56.7314 138.303  16
   6  -6  14 540.664 224.468  14
   6  -6  15-46.0587 70.1676   6
   6   6 -15 1095.93 576.553  13
  -6   6 -15-119.476 371.310  13
  -6   6 -15-189.535 249.959   3
  -6   6 -15-49.7867 61.9709  12
   6   6 -15 2409.03 841.981  11
  -6   6 -15-11.2757 67.6126  11
  -6  -6  15 944.355 544.642   2
   6  -6  15 53.0107 89.3316   8
   6   6 -15 5837.41 1523.56  20
   6   6 -15 2253.85 599.182  10
  -6   6 -15 68.0430 109.923  19
  -6   6 -15 80.8998 275.239   4
  -6   6 -15-522.529 361.022  20
   6   6 -15 3240.35 1293.79   1
  -6  -6  15 1293.62 705.177  17
   6  -6  15 227.947 370.235  16
   6  -6  15-51.9903 91.8787  14
   6  -6  16 211.110 252.601   6
  -6   6 -16-507.009 422.392  13
   6   6 -16 244.587 179.611   3
   6   6 -16 234.021 224.261  13
  -6   6 -16 88.3872 66.6582   3
  -6   6 -16 124.667 137.875  12
   6   6 -16 345.549 328.127  11
   6   6 -16-100.192 378.810  10
   6   6 -16 313.683 755.712  20
   6  -6  16 254.670 196.343   8
  -6   6 -16 146.264 148.170  19
  -6   6 -16 269.640 214.330  10
   6   6 -16 154.902 133.793  18
  -6   6 -16 111.710 238.949   4
  -6  -6  16 536.921 369.458  17
   6   6 -16 173.621 440.420   1
  -6  -6  16 360.928 284.814  16
   6  -6  16 202.428 308.883  16
  -6   6 -16-112.197 176.174  20
  -6   6 -16 96.9150 238.535   7
  -6   6 -16 65.6862 139.868  15
  -6  -6  16 203.270 276.228   2
   6  -6  16 248.591 183.662  14
   7   0   0-26.9030 44.4362   6
  -7   0   0-4.76760 35.2771   2
  -7   0   0 1.20246 42.2952  12
   7   0   0-42.9032 45.1508  11
  -7   0   0 14.4747 39.5633  19
   7   0   0 51.6517 66.5803   1
  -7   0   0-16.6100 65.3986   5
   7   0   0-12.8467 14.2305  18
   7   0   0 5.38494 33.9593   8
  -7   0   0-31.8138 54.7835  17
  -7   0   0 17.3041 54.5304   4
   7   0   0-5.65225 49.5501  14
  -7   0   0-7.16978 63.4724   3
   7   0   1 479.137 180.946   6
  -7   0  -1 209.744 106.406   3
  -7   0  -1 262.034 110.025  12
  -7   0   1 370.301 152.775  12
   7   0   1 707.729 189.392  11
   7   0  -1 674.297 220.004  11
   7   0   1 396.264 183.323   1
  -7   0   1 354.143 171.549   5
  -7   0  -1 324.650 174.758  19
  -7   0   1 378.673 152.597  19
  -7   0  -1 279.607 130.141   2
  -7   0  -1 231.883 158.632   4
   7   0   1 505.194 157.858  18
   7   0  -1 504.478 177.317  18
   7   0  -1 395.005 179.596   1
   7   0   1 457.054 174.530   8
  -7   0  -1 300.855 149.493  17
   7   0  -1 422.629 160.571   8
  -7   0   1 279.366 143.349  17
  -7   0   1 285.386 106.103   2
  -7   0   1 295.171 145.500   4
  -7   0  -1 360.215 172.228   7
   7   0  -1 418.508 130.448   6
  -7   0  -1 326.961 150.548  15
  -7   0  -1 283.869 156.230   5
   7   0   1 467.834 229.699  14
   7   0  -1 346.300 161.548  14
   7   0   2-0.37735 20.3136   6
   7   0  -2-32.3830 46.3951   6
  -7   0   2 4.93461 28.6718   5
   7   0   2 79.2105 108.838   1
  -7   0   2-24.3596 52.5948  12
  -7   0  -2-6.12439 64.4176   3
   7   0   2 34.1523 59.7615  11
   7   0  -2 17.5554 23.0926  11
  -7   0  -2-15.1128 35.3265   5
  -7   0  -2-73.3489 88.0622  19
  -7   0   2-10.7479 31.9750  19
   7   0  -2 10.6535 42.7815  18
   7   0   2-47.1299 60.4002  18
   7   0  -2-92.0423 118.470   1
   7   0   2 8.88740 16.6371   8
  -7   0  -2 82.3770 98.3674   4
  -7   0  -2-24.2562 52.6154  17
  -7   0   2 19.3850 73.3775  17
   7   0  -2-13.4445 9.25194   8
  -7   0   2-16.6299 64.8150   4
   7   0   2 8.73820 12.0459  16
  -7   0   2 30.3846 48.7172   2
  -7   0  -2 13.8095 43.2576   7
  -7   0  -2-35.6390 36.4272  15
   7   0   2-11.7139 41.1254  14
   7   0  -2-0.49357 42.1214  14
  -7   0   3 541.876 189.875   4
  -7   0   3 665.490 236.046   5
   7   0  -3 894.303 298.386  11
  -7   0  -3 282.916 174.404   5
  -7   0   3 547.550 165.440   2
   7   0  -3 658.682 227.821   1
  -7   0  -3 362.757 200.222   4
  -7   0   3 595.501 196.775  19
   7   0   3 876.009 198.247  18
   7   0  -3 713.289 242.082  18
   7   0   3 794.366 272.145   8
  -7   0  -3 347.713 118.441  17
   7   0  -3 562.021 178.697   8
  -7   0  -3 386.761 200.874  19
  -7   0   3 644.211 238.931  17
   7   0   3 932.144 206.007  16
  -7   0  -3 417.500 182.825   7
   7   0   3 838.497 269.098   6
   7   0  -3 708.829 141.383   6
  -7   0  -3 462.347 169.825  15
   7   0  -3 570.780 245.135  14
   7   0   3 730.346 269.629  14
   7   0   3 733.584 298.701   1
   7   0  -4 48.2493 55.3844   6
   7   0  -4-47.9254 64.3101  18
   7   0  -4-9.50526 24.3285   1
  -7   0  -4 81.5036 103.697   5
   7   0  -4-121.260 153.505  11
  -7   0   4-56.3594 83.8182   5
  -7   0  -4 23.2160 32.5132  19
   7   0   4 13.8278 13.6828  18
  -7   0  -4 8.00402 57.2166  17
  -7   0  -4 38.8903 51.1018   4
  -7   0   4 51.0503 107.376  17
   7   0   4 51.7294 99.6755   8
   7   0  -4 41.1083 85.9000   8
  -7   0   4 61.2126 95.5666   4
  -7   0  -4-222.684 161.502   7
   7   0   4 23.5375 40.7275  16
  -7   0   4 20.9817 28.8826  16
   7   0   4-74.7451 121.481   1
  -7   0  -4 11.0761 58.9554  15
  -7   0   4 7.97549 53.0085   2
   7   0   4 7.43971 84.6313  14
  -7   0   4 34.5436 83.7124  19
   7   0   4 8.15783 82.0461   6
   7   0  -4 12.9888 35.8372  14
  -7   0   5 136.022 92.2937  19
   7   0  -5 80.4932 51.4526   6
  -7   0  -5-42.1243 140.857  19
  -7   0  -5-37.1859 153.182   5
   7   0  -5 139.847 175.081  11
   7   0  -5 108.654 100.750   1
  -7   0   5 67.7476 81.9612   5
   7   0   5 157.552 153.702   8
   7   0   5 125.282 150.092   1
   7   0   5 112.793 84.1903  18
   7   0  -5 22.0958 21.3988  18
   7   0  -5 82.4128 85.8083   8
  -7   0  -5-10.0397 35.8755   4
  -7   0  -5 36.7063 72.2441  17
  -7   0   5 159.123 115.821  17
  -7   0  -5-24.1516 173.543   7
  -7   0   5 101.056 84.5149   4
   7   0   5 146.407 132.347  16
  -7   0   5 162.306 100.133  16
  -7   0  -5-27.0270 78.0395  15
  -7   0   5 61.9169 78.9218   2
   7   0   5 83.1016 165.837  14
   7   0   5 144.963 194.437   6
   7   0  -5-14.0450 45.5454  14
   7   0  -6 104.014 99.6285  11
  -7   0  -6 4.89911 38.1808  19
  -7   0   6-5.71484 29.5555  19
   7   0  -6-6.72577 45.2327   1
   7   0   6-39.3523 136.227   1
   7   0  -6 123.709 146.482  18
  -7   0   6 23.6116 64.7769   5
   7   0   6-51.9532 85.4410   8
  -7   0  -6 48.9239 76.6720  17
  -7   0   6 91.6039 103.987  17
   7   0  -6-3.42776 52.3645   8
  -7   0   6-0.14181 7.16391   4
   7   0   6 41.2351 67.7021  16
  -7   0   6 50.5169 65.0889  16
   7   0   6 52.6313 122.335  14
  -7   0   6-50.2173 80.6798   2
   7   0   6 122.593 154.754   6
   7   0   6 20.2845 46.8838  18
   7   0  -6-5.89827 46.6512  14
   7   0  -7 121.741 97.9268  14
   7   0  -7 63.5522 60.9630  18
  -7   0  -7 8.87111 79.2135  19
   7   0  -7 125.605 131.588  11
   7   0   7 238.162 197.421   8
  -7   0   7 137.546 139.865   5
  -7   0   7 287.094 144.622  19
   7   0   7 121.950 71.2605  18
  -7   0  -7 38.3105 41.8513  17
  -7   0   7 166.209 178.144  17
   7   0  -7 76.4346 69.3890   1
   7   0   7 279.021 165.039  16
  -7   0   7 186.841 118.299   4
  -7   0   7 176.773 147.409  16
   7   0   7 170.334 143.220  14
   7   0   7 94.8067 126.047   6
  -7   0   7 174.807 119.832   2
   7   0  -8 80.9139 90.7988  14
  -7   0   8-1.63627 65.1441   2
  -7   0  -8 12.9755 173.497  19
   7   0  -8 140.493 186.151  11
  -7   0   8-1.14540 56.2481   5
  -7   0   8-12.6182 87.9945  19
   7   0  -8 82.0130 121.876  18
   7   0   8 99.1705 203.864   8
  -7   0   8 83.3613 142.058  17
   7   0   8 52.9144 115.039  16
  -7   0   8-37.3781 77.6736   4
  -7   0   8 26.4888 86.2167  16
   7   0  -8 92.5478 106.968   1
   7   0   8 159.760 239.289  14
   7   0   8 5.07858 79.1637   6
   7   0  -9-22.1307 40.0828  14
  -7   0   9-59.5841 122.516   2
   0   7  -9-545.623 629.055  13
   7   0  -9-39.0209 69.3600   1
   0  -7   9-27.1953 58.3238   6
  -7   0  -9 45.4219 214.310  19
   7   0  -9-27.8139 184.861  11
  -7   0   9 19.4489 57.8889   5
   7   0  -9-20.1811 75.0666  18
   7   0   9-4.08665 89.3106   8
  -7   0   9 53.6803 120.306  17
   7   0   9 57.6009 70.1295  16
  -7   0   9 58.2780 169.717  16
  -7   0   9-62.1216 105.573   4
   7   0   9 29.1327 72.1561  14
   7   0   9 22.9429 109.112   6
   0   7  -9 22.9164 113.724   3
   7   0 -10 18.6182 104.149  14
  -7   0  10 89.5748 119.342   2
   0   7 -10 91.8740 98.1774  13
   0  -7  10-37.8577 51.1524   6
   0   7 -10-170.849 194.671  12
   7   0 -10 45.6421 72.0348   1
   7   0 -10 23.4521 129.019  11
  -7   0 -10-116.034 225.257  19
   0   7 -10-97.0524 190.069  18
   7   0 -10 14.6814 41.6238  18
   7   0  10-37.0688 164.765   8
   0  -7  10 51.9441 103.105  17
  -7   0  10-34.3150 88.1151   5
  -7   0  10-5.90856 115.283  17
   7   0  10 146.320 258.561  16
  -7   0  10 112.666 174.580  16
   7   0  10 95.0141 185.191   6
   0   7 -10-5.56273 55.9090   3
   7   0 -11 785.461 262.835  14
  -7   0  11 1159.50 399.282   2
   0   7 -11 1188.91 517.738  13
   0  -7  11 706.870 307.912   6
   0   7 -11 1185.97 319.921  12
   7   0 -11 766.361 336.790   1
  -7   0  11 1629.09 464.044   5
   7   0 -11 256.134 113.280  11
   0   7 -11 1256.76 432.407  18
   7   0 -11 377.399 204.642  18
   7   0  11 991.197 446.544   8
   0  -7  11 194.966 281.889  17
  -7   0  11 1213.63 441.182  17
   7   0  11 1151.27 432.979  16
  -7   0  11 643.854 347.336  16
   0   7 -11 1065.30 360.360   3
   7   0  11 832.863 432.151   6
   7   0 -12 18.5125 83.6926  14
   0   7 -12-38.0558 97.0127   3
  -7   0  12-13.6417 89.5750   2
   0   7 -12 134.114 166.527  13
   0  -7  12 37.2694 84.6163   6
   0   7 -12 8.79067 29.0941  12
   7   0 -12-154.337 245.431  18
   7   0 -12-73.0407 236.028  11
  -7   0 -12-31.5719 79.4860  19
  -7   0  12 3.22910 28.3535   5
   7   0 -12 62.7212 43.5116   1
   7   0  12 34.2759 161.465   8
  -7   0  12-28.3637 103.913  17
   0   7 -12-14.2743 97.1101  18
   7   0  12-121.464 161.300  16
  -7   0  12-79.2994 146.543  16
   7   0  12-55.7757 214.744   6
   0  -7  12 47.8147 187.787  17
   7   0 -13 838.455 299.686  14
   0   7 -13 1699.58 564.603  13
   0  -7  13 1429.98 450.228   6
   0   7 -13 1429.14 345.824  12
  -7   0  13 2721.29 635.416   5
   7   0 -13 33.9243 268.535  11
   0  -7  13 712.087 342.976  17
  -7   0 -13-194.984 161.660  19
   0   7 -13 2374.56 526.366  18
  -7   0  13 1102.77 567.644  16
   0   7 -13 1904.05 244.201   4
   7   0 -13 303.126 122.849  18
  -7   0  13 1953.44 566.018  17
   7   0 -13 879.343 403.609   1
   0  -7  13 655.445 197.728  16
   7   0  13 1583.54 567.176  16
   7   0  13 1376.13 524.674   8
   0   7 -13 1464.94 431.810   3
   7   0  13 726.367 338.009   6
  -7   0  13 1796.01 508.289   2
   7   0 -14 113.162 142.330  14
   0  -7  14 30.1514 34.1223  14
  -7   0  14 94.4345 140.746   2
   0  -7  14-28.5641 65.4864   6
   0   7 -14 8.69295 94.0904   3
   0   7 -14 155.488 231.258  13
   0   7 -14-32.9935 83.7910  12
   7   0 -14-403.133 485.765  11
  -7   0 -14-181.136 331.975  19
  -7   0  14-131.566 232.021   5
   7   0  14-86.3190 11.0385   8
   0  -7  14 0.11072 109.291  17
   0   7 -14 30.7109 54.5390   4
  -7   0  14-219.116 262.116  17
   0  -7  14-157.467 198.624  16
   7   0 -14 134.267 226.771   1
   0   7 -14 86.7228 165.812  18
   7   0  14-78.6740 167.561  16
   7   0  14-588.478 521.990   6
   7   0 -15 587.078 292.947  14
  -7   0  15 767.019 358.826   2
   0  -7  15 679.076 346.144   6
   0   7 -15 609.490 355.379  13
   0   7 -15 789.525 322.507   3
   0   7 -15 807.719 271.396  12
  -7   0 -15-246.186 478.907  19
   0  -7  15-111.482 470.659   2
   7   0  15 540.758 350.543   8
   0  -7  15 412.865 244.599  16
   0   7 -15 776.861 260.543  18
   0  -7  15 635.129 279.967  17
  -7   0  15 726.462 338.229  17
   7   0  15 627.678 358.196  16
   7   0 -15 216.055 230.042   1
   7   0  15-430.730 534.666   6
   0  -7  15 478.186 120.871  14
   0   7 -16 20.1238 62.1565  18
   0  -7  16 70.2440 70.2215   6
  -7   0  16 257.953 248.357   2
   0   7 -16-57.0305 194.457  13
   0   7 -16-101.310 138.576   3
   0   7 -16-2.14138 70.6769  12
   0   7 -16-7.42320 40.4734  11
  -7   0 -16 179.158 140.422  19
   0  -7  16-215.753 364.301   2
   7   0  16-175.523 296.673   8
   0  -7  16 29.4717 155.790  16
   7   0  16-42.6688 163.561  16
   0  -7  16-25.0735 56.6094  17
   0  -7  17 49.9585 170.788   6
   0   7 -17 207.871 340.013  13
   0   7 -17 70.8406 132.664   3
   0   7 -17 44.0492 62.9248  12
   0   7 -17 154.145 159.107  11
   0  -7  17-111.312 207.473   2
   0   7 -17-25.1772 43.9374  18
   7   0  17 318.961 336.382   8
   0  -7  17 33.4580 55.5957  17
  -7   0 -17 18.4290 215.880  19
   0  -7  17-11.1803 113.239  16
   7   0  17 98.9732 145.970  16
   0   7 -17 461.500 565.002   7
   0   7 -17 730.929 644.023  15
   0  -7  18 87.3107 87.0591   6
   0   7 -18 78.0983 155.216  13
   0   7 -18 125.660 204.901   3
   0   7 -18 47.0523 131.951  12
   0   7 -18 3.83438 155.253  11
   0   7 -18-38.4775 168.208  20
  -7   0 -18-487.551 574.958  19
   0  -7  18-57.8567 354.196   2
   0   7 -18 49.3571 77.7612  18
   7   0  18-9.17499 200.700   8
   0   7 -18 127.513 327.804   7
   7   0  18 63.3026 246.440  16
   0   7 -18-52.6562 113.297  15
   0  -7  18-16.8042 39.2793  17
   0  -7  18 91.0501 207.923  16
  -7   1   0 1292.07 304.428  12
  -7   1   0 1314.02 298.299   5
   7   1   0 1655.32 419.476   1
   7  -1   0 1486.68 293.136   8
  -7  -1   0 842.892 303.699   5
  -7   1   0 1319.69 198.986   2
   7  -1   0 1475.23 315.591   1
   7  -1   0 624.744 156.095  11
  -7   1   0 1444.22 306.723  19
  -7  -1   0 818.826 309.313  19
  -7  -1   0 656.392 213.740   2
   7   1   0 2065.04 374.861  18
   7  -1   0 1841.27 406.321  18
   7   1   0 1948.72 391.036   8
  -7  -1   0 915.972 271.527  17
  -7   1   0 1007.55 328.633  17
  -7  -1   0 945.387 314.087   4
  -7   1   0 1385.28 304.264   4
   7   1   0 1557.40 399.778   6
   7  -1   0 1573.12 262.955   6
   7   1   0 1470.81 414.262  14
   7  -1   0 1447.48 331.029  14
  -7  -1   1 327.797 163.374  19
   7   1  -1 692.849 219.881  13
  -7  -1   1 382.310 126.435  12
  -7   1  -1 405.182 151.582  12
   7   1  -1 625.094 203.547  18
   7   1  -1 527.805 228.801   1
  -7   1   1 544.546 246.417  12
  -7   1   1 518.226 183.732  19
   7   1  -1 933.408 251.247  11
  -7  -1   1 323.708 146.361  17
  -7  -1  -1 230.029 159.046   5
  -7   1  -1 423.052 104.539   2
  -7  -1  -1 287.024 151.825  19
  -7  -1   1 223.939 164.340   5
  -7   1   1 426.209 126.246   2
   7  -1  -1-15.2899 234.174  11
  -7   1  -1 476.322 183.976   5
  -7   1   1 475.703 169.835   5
  -7  -1   1 324.418 149.459   2
   7  -1  -1 520.467 175.085   8
  -7   1   1 560.869 193.299   4
   7  -1   1 751.513 230.959  18
   7  -1  -1 531.908 225.300  18
  -7  -1  -1 247.650 153.020   4
   7   1   1 519.192 218.748   8
  -7  -1  -1 248.636 149.226  17
  -7  -1   1 394.094 185.841   4
   7   1  -1 570.495 196.188   8
   7  -1   1 469.975 168.121   8
  -7   1  -1 460.985 179.930  19
  -7   1  -1 366.563 173.968  17
  -7   1   1 340.213 196.415  17
   7   1   1 689.088 214.076  18
   7  -1  -1 541.137 204.136   1
  -7   1  -1 418.387 176.530   4
   7  -1   1 525.170 183.774   1
  -7  -1   1 54.0516 133.793  15
   7  -1   1 573.843 161.120   6
   7  -1  -1 542.230 149.565   6
   7  -1   1 46.4656 221.599  11
   7   1   1 557.583 277.610   1
   7   1   1 492.484 266.414  14
   7   1   1 359.564 159.547   6
   7   1  -1 659.353 286.751  14
   7   1  -1 590.868 218.141   6
  -7   1  -1 239.131 202.565   3
   7  -1   1 528.429 196.659  14
   7  -1  -1 538.083 208.462  14
   7  -1  -2 350.013 154.232  14
  -7   1   2 311.737 126.124   2
   7  -1   2 386.284 144.469   6
   7  -1  -2 290.932 145.619   1
  -7   1  -2 242.980 148.576   3
   7   1  -2 492.365 137.865  13
  -7   1  -2 308.090 145.689  12
  -7  -1   2 304.448 108.101  12
   7   1  -2 372.476 149.605   8
   7   1  -2 531.124 183.131  11
  -7  -1  -2 48.9607 76.5286   5
   7  -1   2 43.8953 225.583  11
   7   1  -2 454.778 208.241   1
  -7  -1   2 223.855 140.696   5
  -7   1  -2 230.097 141.328   5
  -7  -1  -2 200.573 202.505  19
   7   1  -2 57.4202 84.8814  10
  -7   1  -2 237.733 134.696  19
  -7  -1   2 382.810 178.958   4
  -7   1   2 394.150 171.186   5
   7   1  -2 856.545 259.967   9
  -7   1   2 319.698 146.847  19
   7   1   2 405.074 176.590  18
   7   1  -2 470.476 185.763  18
   7  -1   2 551.103 191.775  18
  -7  -1   2 339.062 170.194  19
   7  -1  -2 332.217 184.729  18
   7  -1   2 337.657 150.797   1
  -7  -1  -2 24.3437 83.6926   4
  -7   1  -2 251.111 78.7338   2
  -7  -1   2 327.908 143.436   2
   7   1   2 455.157 223.168   8
  -7  -1  -2 117.414 48.0571  17
  -7   1  -2 358.404 113.461  20
  -7  -1   2 218.673 132.085  17
   7  -1   2 364.517 161.633   8
  -7   1  -2 253.130 148.859  17
  -7   1   2 322.452 198.671  17
  -7   1  -2 251.666 141.732   4
   7  -1  -2 315.663 132.738   8
  -7  -1   2 235.876 119.797   7
  -7   1   2 372.449 163.066   4
   7   1   2 431.004 280.731   1
   7   1   2 286.896 115.457  16
   7  -1   2 335.613 150.660  14
  -7  -1   2 274.213 119.700  15
   7  -1  -2 391.178 136.592   6
   7   1   2 253.852 207.980   6
   7   1   2 389.615 209.779  14
   7   1  -2 337.180 233.304  14
   7   1  -2 407.754 161.087   6
   7  -1  -2-63.0150 247.510  11
   7  -1  -3 316.114 158.457  14
  -7   1   3 330.622 133.373   2
   7  -1   3 307.710 132.983   6
  -7   1  -3 217.895 136.339  19
   7   1  -3 370.359 116.773  13
  -7   1  -3 219.919 129.338   3
  -7   1  -3 188.509 101.697  12
   7  -1  -3 332.137 128.267   6
  -7  -1   3 302.989 152.855  12
  -7  -1  -3-135.052 232.958   5
   7   1  -3 458.336 188.312  11
   7  -1   3-81.6179 276.765  11
  -7   1  -3 383.717 139.889  20
   7  -1  -3-229.677 303.541  11
  -7   1  -3 216.181 131.699   5
  -7  -1   3 191.213 130.804   5
   7  -1   3 322.745 152.945   1
  -7   1  -3 77.4223 47.9202   2
   7   1  -3-1017.52 539.294  10
  -7   1  -3-129.021 227.789  10
  -7  -1  -3 151.415 151.059  17
   7   1  -3 348.030 172.064   9
  -7   1   3 299.230 137.627  19
   7   1  -3 218.310 156.811   1
   7   1   3 473.183 211.720  18
   7   1  -3 311.665 157.667  18
   7  -1   3 430.548 146.194  18
  -7  -1  -3 15.6717 107.391   4
   7  -1  -3 237.021 186.653  18
   7   1   3 331.235 198.428   8
   7  -1   3 307.984 148.231   8
  -7  -1   3 263.077 116.221   2
  -7  -1   3 179.438 109.235  17
   7   1  -3 325.868 134.485   8
  -7  -1   3 181.524 93.1269   4
   7   1   3 301.807 228.985   1
  -7   1  -3 164.273 135.618   4
  -7   1  -3 213.066 123.789  17
  -7   1   3 259.178 188.647  17
   7  -1  -3 259.063 135.337   8
   7  -1   3 302.080 79.6501  16
   7  -1  -3 372.009 169.652   1
  -7  -1   3 240.001 100.531   7
  -7  -1   3 226.350 136.149  19
  -7   1   3 233.521 114.917   4
   7   1   3 377.522 190.089  16
  -7  -1   3 339.734 131.984  15
  -7  -1  -3 52.5853 92.0647  19
   7   1   3 254.525 154.339   6
   7   1   3 223.170 208.154  14
  -7   1   3 378.662 168.528   5
   7   1  -3 327.185 170.239  14
   7  -1   3 379.062 172.391  14
   7   1  -3 342.964 123.340   6
   7  -1  -4 4.66182 69.4186  14
   7   1  -4-20.4161 35.7586   6
   7  -1   4 73.8702 99.1371   6
  -7   1   4 4.28740 49.2119   2
   7  -1  -4 81.6864 93.3293   1
  -7   1  -4 109.838 120.717  12
   7  -1   4 58.5332 96.6708   1
   7  -1  -4-57.6322 137.770   6
  -7   1  -4 32.3687 92.1912   3
   7   1  -4 89.1213 137.594  11
  -7   1  -4-0.40645 34.0231   5
   7  -1  -4-359.310 358.529  11
  -7   1  -4 98.2296 105.559  20
  -7  -1   4 34.7515 82.6924   5
  -7  -1  -4 96.1877 145.983  19
  -7   1   4 36.9739 51.0123  19
   7   1  -4 319.774 251.675   9
   7   1  -4 17.4636 50.6999  18
   7  -1   4 21.4337 41.6021  18
   7   1   4-5.53130 73.0076   1
   7  -1  -4-21.4011 121.422  18
   7   1  -4-5.13490 49.1320   1
   7   1   4-8.03128 61.1962   8
  -7  -1  -4-41.2863 114.691  17
   7  -1   4 18.1706 45.3699   8
  -7   1  -4 36.9140 54.9924   4
  -7  -1   4 11.9276 47.7304  17
   7   1   4 15.1833 43.9167  18
   7   1  -4 51.6234 52.3427   8
  -7   1  -4 49.6719 66.2812  17
  -7  -1   4 37.6955 84.5429   4
  -7   1  -4 3.85934 23.2808  19
  -7  -1   4-28.3756 49.4780   2
  -7   1   4 38.1605 91.8248  17
  -7   1   4 6.19262 48.4208   5
   7  -1  -4 23.5584 57.3279   8
  -7  -1   4-13.1927 30.4783  16
   7  -1   4 79.2973 93.1411  16
  -7  -1   4 26.1348 74.3762  19
  -7   1   4 23.6498 34.7469   4
   7   1   4-12.9534 24.2942  16
  -7  -1   4 31.7890 42.8703  15
  -7   1  -4 127.551 124.391  15
   7   1   4 30.5516 109.202   6
   7   1   4-39.1203 44.4125  14
   7   1  -4 4.14592 31.6369  14
   7  -1   4-11.0391 69.2389  14
   7  -1   5 328.844 194.094   1
   7  -1  -5 243.495 134.464  14
   7  -1   5 248.007 131.867   6
   7   1  -5 196.023 64.2258   6
   7  -1   5 445.091 133.002  18
  -7   1   5 241.800 157.683   2
   7   1  -5 303.647 189.397  11
   7   1  -5 285.235 157.730  18
  -7   1  -5 190.627 154.863   5
   7  -1  -5 159.366 157.475   1
  -7  -1   5 161.320 149.333   5
  -7  -1  -5 29.9738 33.1924  19
  -7   1  -5 208.342 155.361  19
  -7   1   5 299.634 162.405  19
   7   1   5 164.596 58.2070   1
  -7  -1   5 238.503 109.621  19
   7  -1   5 213.858 130.378   8
   7   1   5 258.241 184.197  16
  -7   1   5 263.210 143.498   5
   7  -1  -5-28.2240 144.395  18
   7   1   5 240.901 176.324   8
  -7   1  -5 185.598 158.924   4
  -7  -1   5 183.925 140.779  17
  -7   1  -5 116.050 87.0627  17
   7   1  -5 248.056 108.431   8
  -7   1   5 309.807 245.215  17
   7   1  -5 241.755 134.439   1
  -7  -1   5 101.011 94.2974   4
   7  -1  -5 31.6765 137.960   8
  -7  -1   5 215.982 110.100   2
   7  -1   5 388.085 179.330  16
  -7  -1   5 179.519 64.5513  16
  -7   1  -5 193.281 169.407  20
  -7   1  -5 193.957 149.200   7
  -7   1   5 101.755 85.2410   4
  -7   1  -5 149.060 45.6870  15
   7   1   5 216.222 248.044   6
   7   1   5 225.371 208.552  14
   7  -1   5 288.427 172.952  14
   7   1  -5 249.267 172.072  14
   7   1  -5 271.160 230.815   9
   7  -1   6 241.140 148.279   6
   7  -1  -6 106.331 122.475  14
  -7   1  -6 94.0314 90.6681  13
   7   1  -6 166.507 50.5246   6
  -7   1   6 217.911 123.543   2
  -7  -1   6 160.519 110.502  19
  -7   1  -6 165.399 189.126   5
   7   1  -6 301.909 197.567  11
   7  -1  -6-340.413 380.704  11
  -7   1  -6 33.7058 51.7749  20
  -7  -1  -6 92.4204 188.083  19
  -7   1  -6 15.6178 84.2586  19
  -7   1   6 202.112 111.199  19
  -7   1   6 151.828 146.197   5
   7  -1   6 295.045 92.9967  18
   7   1  -6 223.399 143.202  18
   7   1   6 78.8820 29.9848   8
   7  -1  -6-30.2906 142.166  18
  -7  -1   6 272.300 147.718   5
   7  -1   6 280.462 179.435   8
  -7   1  -6 99.9632 60.3996  17
   7   1  -6 487.768 450.172   9
  -7  -1   6 69.3590 69.2843  17
  -7   1   6 47.3061 71.3240  17
   7   1  -6 230.274 101.766   8
   7  -1  -6 99.3113 136.466   1
  -7  -1   6 93.2433 60.7246   4
   7  -1   6 307.798 155.568  16
  -7  -1   6 189.296 71.6471  16
  -7  -1   6 161.620 101.934   2
  -7   1  -6 182.986 109.975   7
   7  -1   6 321.542 204.075   1
   7   1  -6 102.089 124.118   1
   7   1   6 179.713 160.125  16
  -7   1  -6-35.6500 124.463   4
  -7   1  -6 170.165 139.524  15
   7   1   6 165.272 167.756   6
   7  -1   6 201.374 176.882  14
   7   1  -6 122.072 120.414  14
   7  -1  -7 113.443 90.4664  14
   7  -1  -7 229.174 186.688   1
  -7   1   7 554.074 271.853   2
  -7   1  -7 21.8158 144.009   5
   7   1  -7 239.522 159.310  11
  -7   1  -7-383.015 368.031  20
  -7  -1  -7-197.468 255.118  19
  -7   1  -7 94.8533 79.8732  19
  -7  -1   7 204.877 118.016  19
  -7  -1   7 162.893 129.211   5
   7   1  -7-367.427 415.855   9
  -7   1   7 370.736 222.004   5
   7  -1   7 276.167 76.5660  18
   7   1  -7 214.127 154.608  18
   7   1   7 110.833 140.825   8
   7  -1  -7-224.280 325.316  18
  -7   1  -7-7.54282 177.807   4
   7  -1   7 311.570 188.965   8
   7  -1   7 339.574 270.591   1
  -7   1  -7 82.3045 51.9825  17
  -7  -1   7 176.392 113.842  17
  -7   1   7 306.015 256.431  17
   7   1  -7 263.091 126.220   8
  -7  -1   7 197.590 113.931   4
   7  -1   7 374.759 185.928  16
  -7  -1   7 193.660 91.5103  16
  -7   1  -7 206.984 193.142   7
  -7  -1   7 219.310 138.311   2
   7   1   7 249.951 199.887  16
  -7   1  -7 260.173 193.822  15
   7   1   7-88.4084 325.130   6
   7  -1   7 182.158 124.555  14
   7   1  -7 272.546 143.810  14
   7   1  -7 196.509 132.350   1
   7  -1   7 179.477 140.582   6
   7  -1  -8 206.789 166.501  14
   7   1  -8 547.935 266.961   1
  -7   1   8 483.471 263.706   2
   1  -7   8 252.300 206.722   6
   7  -1  -8 310.630 233.145   1
   7   1  -8 773.139 357.353  11
  -7   1  -8-136.643 314.879  20
  -7  -1  -8-36.3657 233.211  19
  -7   1  -8 371.620 312.274  19
   7  -1   8 896.972 647.599   1
   7  -1   8 424.146 92.7543  18
   7   1  -8-486.569 596.519   9
  -7   1   8 657.207 250.552   5
   7   1  -8 427.743 209.159  18
   7   1   8 390.061 328.120   8
  -7   1  -8 495.083 307.021   4
   7  -1  -8-114.027 301.594  18
   7  -1   8 576.829 271.580   8
  -7  -1   8 529.614 190.930  19
  -7  -1   8 593.880 301.652  17
  -7   1   8 349.833 254.023  17
   7   1  -8-486.276 645.831   8
  -7  -1   8 409.909 167.811   4
  -7   1  -8 216.550 53.1233   7
   7  -1   8 709.860 308.458  16
  -7  -1   8 382.985 163.986  16
  -7  -1   8 503.000 198.686   5
   7   1   8 328.965 218.697  16
  -7  -1   8 439.944 215.383   2
  -7   1  -8 145.174 86.6182  15
   7   1   8-2.28089 361.274   6
   7  -1   8 656.557 369.889  14
  -1   7  -8 246.330 51.7656   3
   7   1  -8 545.262 233.556  14
   7  -1   8 565.555 333.358   6
   7  -1  -9 514.106 260.935  14
  -1   7  -9-124.007 607.888  13
   1   7  -9 689.224 182.366  13
   1  -7   9 144.752 160.510   6
  -1  -7   9 55.8205 76.3235   6
  -7  -1   9 909.207 281.535   5
   7   1  -9 848.439 300.163   1
  -7   1   9 1661.05 420.536   5
   7   1  -9 870.461 346.295  11
  -7  -1   9 1021.63 318.865   2
  -7   1   9 1175.09 417.951   2
  -7  -1   9 975.123 267.789  19
  -7  -1  -9-565.627 518.986  19
  -7   1  -9 279.081 226.129  19
   1   7  -9 968.677 341.896   3
  -7  -1   9 1113.46 267.277   4
   7   1  -9 673.592 272.675  18
   7   1   9 708.912 400.391   8
   7  -1  -9 609.496 344.491   1
   7  -1   9 1070.32 350.665   8
  -7  -1   9 988.807 347.741  17
  -7   1   9 881.255 353.530  17
  -7  -1   9 884.256 249.238  16
  -7   1  -9 180.717 57.2208   7
   7  -1   9 1295.72 373.081  16
   7   1   9 654.908 331.560  16
  -7   1  -9 42.9533 217.007  15
  -1   7  -9 1070.85 388.371   3
   7   1   9 110.517 425.492   6
   7  -1   9 1029.82 384.564  14
   7  -1   9 1302.55 405.699   6
   7   1  -9 820.948 261.879  14
  -1   7 -10 511.255 274.012   3
   7  -1 -10 392.481 246.919  14
  -1   7 -10 92.0199 226.820  13
   1   7 -10 387.978 287.986  13
  -7   1  10 478.393 263.748   2
   1  -7  10 234.432 196.135   6
  -1  -7  10 253.080 199.850   6
  -1   7 -10 480.685 198.312  12
   7   1 -10 334.714 226.906  11
   1   7 -10 308.938 119.564  18
   7   1  10 621.623 443.019   8
   7   1 -10 511.927 244.266   1
  -7   1 -10-23.8252 44.6580  19
  -7  -1  10 501.816 206.708   5
  -7   1  10 708.727 243.820   5
   7   1 -10 326.464 205.115  18
  -1  -7  10 130.706 183.655  17
  -7  -1  10 562.225 272.350  17
  -7   1  10 239.486 192.897  17
  -7   1 -10-60.2515 246.333   7
  -7  -1  10 533.498 194.800   4
   7  -1  10 771.133 321.105  16
   7  -1  10 512.767 257.200   8
  -7  -1  10 476.730 203.951  16
   7  -1 -10 263.521 227.774   1
   7   1  10 329.182 260.826  16
  -7  -1  10 573.322 269.162   2
   7  -1  10 641.678 346.173  14
   7  -1  10 557.956 297.803   6
   1   7 -10 366.267 205.476   3
   7   1 -10 404.671 192.222  14
   1   7 -11 579.599 280.282   3
  -1   7 -11 516.878 259.500   3
  -7   1 -11 33.9956 51.9850  19
  -1   7 -11 868.458 522.952  13
   1   7 -11 584.383 375.328  13
   1  -7  11 551.826 269.693   6
  -1  -7  11 207.712 199.094   6
  -1   7 -11 578.157 229.969  12
   1   7 -11 406.134 153.524  12
   7   1 -11 423.482 258.243  11
   7   1 -11 473.805 273.120  18
   7  -1  11 699.706 154.062   2
   7   1 -11 434.901 236.108   1
  -7  -1  11 710.346 294.525   5
   1   7 -11 721.413 349.821  18
   7   1  11 604.076 420.539   8
   1  -7  11 220.947 292.129  17
  -1  -7  11 225.919 288.300  17
   7  -1  11 645.573 310.168   8
  -7  -1  11 656.431 300.786  17
  -1   7 -11 659.897 368.580  18
   7  -1  11 738.480 338.372  16
  -7  -1  11 567.445 199.986   4
  -7  -1  11 592.710 253.383  16
   7   1  11 456.980 346.063  16
  -7  -1  11 570.692 266.146   2
   7  -1  11 603.855 361.380  14
   7  -1  11 473.271 270.039   6
   7   1 -11 431.739 200.481  14
  -1   7 -12 997.458 522.941  13
   1   7 -12 883.266 436.289  13
  -1  -7  12 350.647 211.622   6
   1  -7  12 663.774 312.686   6
  -1   7 -12 1056.87 291.740  12
   1   7 -12 1089.74 306.983  12
   1   7 -12 1321.95 440.605  18
  -7  -1  12 1408.86 409.913   5
   7  -1  12 1538.83 257.460   2
  -7   1 -12 147.231 223.190  19
   7   1 -12 650.289 355.736  11
  -1   7 -12 1562.93 449.257  18
   7   1 -12 665.966 308.828   1
   7  -1  12 1342.15 460.891   8
  -7  -1  12 1358.31 314.137   4
  -1   7 -12 1081.78 199.144   4
   7   1  12 1379.62 683.428   8
   7   1 -12 700.018 312.195  18
  -7  -1  12 1290.05 437.792  17
  -1  -7  12 361.834 266.085  17
   7  -1  12 1300.31 482.154  16
  -7  -1  12 897.782 346.529  16
   7   1  12 944.735 454.007  16
   1  -7  12 606.241 313.546  17
   1   7 -12 962.723 333.589   3
  -1   7 -12 1090.53 373.021   3
  -7  -1  12 1054.69 369.831   2
   7  -1  12 1100.78 426.118   6
   7   1 -12 492.512 211.186  14
   1  -7  13 131.243 77.7737  14
   1   7 -13 384.623 212.232   3
  -1   7 -13 367.344 229.861   3
  -1   7 -13 409.417 286.315  13
   1   7 -13 281.362 238.569  13
   7  -1  13 602.033 175.598   2
  -1  -7  13 363.122 238.493   6
   1  -7  13 137.871 189.240   6
  -1   7 -13 385.690 174.115  12
   1   7 -13 354.230 184.133  12
   7   1 -13 150.398 179.350  11
  -1   7 -13 440.732 188.169  18
   1   7 -13 268.525 78.8430   4
  -7  -1  13 454.102 244.372  16
   7   1  13 732.690 562.347   8
  -1  -7  13-181.531 303.280  16
   7  -1  13 363.581 232.757   8
   1   7 -13 522.808 256.393  18
   1  -7  13 223.499 163.219  17
  -1  -7  13 32.7915 59.6473  17
   7   1 -13 375.830 222.215   1
  -7  -1  13 281.680 213.339  17
  -7  -1  13 527.966 265.311   5
   1  -7  13-62.0885 298.611  16
  -1   7 -13 477.160 145.920   4
   7  -1  13 451.430 327.278  16
  -7  -1  13 418.843 170.168   4
   7   1 -13 127.534 162.108  18
   7  -1  13 453.669 266.825   6
  -7  -1  13 311.935 185.877   2
  -7   1 -13-103.014 160.105  19
   7   1 -13 100.705 103.121  14
  -1  -7  14 822.838 369.470   6
   1  -7  14 968.546 389.828   6
  -1   7 -14 1428.73 591.021  13
   1   7 -14 1425.58 544.482  13
  -1   7 -14 1341.86 343.666  12
   1   7 -14 1370.89 350.091  12
  -7  -1  14 2034.86 521.654   5
   7   1 -14 486.087 310.332  11
  -7  -1  14 1706.23 493.676   2
  -7   1 -14 0.40025 122.442  19
  -1   7 -14 1564.12 387.365  18
   1   7 -14 1744.76 465.596  18
  -1   7 -14 1951.97 355.392   4
  -1  -7  14 85.2847 431.471   2
  -7  -1  14 1759.97 368.555   4
   7  -1  14 1800.71 568.581   8
   1  -7  14 959.832 367.888  17
   7  -1  14 2058.71 357.781   2
   7   1 -14 861.563 367.224   1
  -1  -7  14 716.353 293.017  16
   1  -7  14 534.845 269.840  16
   7  -1  14 1440.76 507.663  16
  -7  -1  14 1396.33 460.344  16
   1   7 -14 1404.09 427.338   3
  -1   7 -14 1348.89 431.463   3
   1  -7  14 1007.56 207.481  14
   7  -1  14 1099.14 490.610   6
  -1  -7  14 889.918 394.438  17
   7   1 -14 859.186 368.527  18
   7   1 -14 704.733 245.769  14
  -7  -1  14 1747.04 542.144  17
   1  -7  15 274.112 108.339  14
  -1  -7  15 99.9782 59.9087  14
  -1  -7  15 198.948 204.960   6
   1  -7  15 43.0314 97.8521   6
   1   7 -15 238.136 175.641   3
  -1   7 -15 371.890 323.144  13
   1   7 -15 319.721 301.350  13
  -1   7 -15 336.408 233.639   3
  -1   7 -15 258.776 159.055  12
   1   7 -15 281.125 154.186  12
   7   1 -15 22.8459 235.588  11
  -7   1 -15 164.391 245.587  19
  -7  -1  15 522.251 269.084   5
   1   7 -15 378.383 161.091  18
  -1   7 -15 261.405 153.142  18
   7   1 -15 131.624 104.058  18
   7  -1  15 245.041 223.771   8
   1  -7  15 222.697 153.178  17
  -1  -7  15 93.7694 23.1474  17
  -7  -1  15 437.406 252.840  17
   7   1 -15 168.815 201.753   1
  -1  -7  15 157.223 120.955  16
   1  -7  15 249.958 230.898  16
  -1  -7  15-240.211 358.827   2
   7  -1  15 178.276 112.111  16
  -7  -1  15 273.650 220.531  16
   7  -1  15 408.335 154.782   2
   7  -1  15 166.513 149.619   6
  -7  -1  15 172.751 96.4224   2
   7   1 -15-0.77233 55.6648  14
  -1  -7  16-71.5869 149.497   6
   1  -7  16 149.124 165.446   6
   7  -1  16 556.934 206.500   2
  -1   7 -16 577.657 420.132  13
   1   7 -16 189.530 189.488  13
   1   7 -16 346.445 221.090   3
  -1   7 -16 267.409 183.896   3
  -1   7 -16 399.810 207.838  12
  -7   1 -16-32.8867 117.958  19
   1   7 -16 289.908 159.529  12
   1   7 -16 559.372 291.113  11
  -1   7 -16 242.211 150.988  11
   1  -7  16-201.885 578.757   2
  -7  -1  16 1011.85 415.756   5
  -1  -7  16 134.930 363.353   2
   1   7 -16 403.067 216.894  18
   7   1 -16-39.7066 234.395  18
   7  -1  16 524.789 362.963   8
  -1   7 -16 384.948 190.727  18
  -1  -7  16 362.226 232.409  17
   1  -7  16 373.099 189.813  17
  -7  -1  16 836.326 402.181  17
   7   1 -16 195.318 112.702  11
  -1  -7  16 221.133 205.791  16
   1  -7  16 433.160 318.456  16
   7   1 -16 72.6309 87.6200   1
   7  -1  16 387.167 261.614  16
  -7  -1  16 552.420 436.463  16
   7  -1  16 274.461 158.345   6
  -7  -1  16 568.618 363.917   2
   7   1 -16 53.2225 60.0621  14
  -1  -7  17 374.840 280.443   6
   1  -7  17 784.713 435.419   6
   7  -1  17 645.898 234.257   2
  -1   7 -17 111.440 195.320  13
   1   7 -17 759.080 495.207  13
   1   7 -17 427.898 284.417   3
  -1   7 -17 414.556 250.431   3
  -1   7 -17 480.052 252.994  12
   1   7 -17 551.675 288.801  12
   1   7 -17 520.447 260.741  11
  -1   7 -17 558.107 242.994  11
  -7   1 -17 101.761 213.798  19
   1  -7  17 24.5111 231.459   2
  -1  -7  17 225.302 274.007   2
  -7  -1  17 648.271 312.666   5
   7   1 -17-236.669 277.235  11
   1   7 -17 422.215 242.320  18
  -1   7 -17 381.598 183.894  18
   7   1 -17-261.003 370.063  18
   7  -1  17 322.056 125.693   8
  -1  -7  17 435.857 243.025  17
   1  -7  17 323.294 183.326  17
  -7  -1  17 575.199 327.914  17
  -1  -7  17 541.613 320.951  16
   1  -7  17 544.261 331.060  16
   7  -1  17 286.354 246.019  16
  -7  -1  17 336.792 239.608  16
   1   7 -17 623.364 626.941   7
   7   1 -17 33.9976 143.121   1
   1   7 -17 685.584 572.243  15
  -1   7 -17 977.920 597.454  15
   7  -1  17-318.249 490.604   6
  -7  -1  17 507.484 294.087   2
   7   1 -17 66.1817 39.6110  14
   1  -7  18 213.511 218.659   6
  -1   7 -18 171.792 155.478  12
   1   7 -18 35.3259 53.5001  12
   1   7 -18 378.182 258.731  11
  -1   7 -18 181.574 217.317  11
  -7   1 -18 17.6789 86.8858  19
   1  -7  18-196.760 301.157   2
  -7  -1  18 163.949 192.442   5
   1   7 -18 150.145 154.332  18
  -1   7 -18 33.2706 95.8491  18
   7  -1  18 164.521 249.424   8
  -1  -7  18 207.677 394.677   2
  -1  -7  18 101.546 176.313  17
   1  -7  18 9.87364 35.4251  17
  -7  -1  18-313.331 281.413  17
  -1  -7  18 131.651 217.350  16
   1  -7  18 61.7799 102.850  16
   1   7 -18-7.36871 257.270   7
   7  -1  18-28.0172 66.9994  16
  -1   7 -18 101.271 484.684   7
  -7  -1  18-15.5151 77.2522  16
   1   7 -18-76.2037 194.896  15
  -1   7 -18 283.330 409.561  15
   7  -1  18-845.150 604.478   6
  -7  -1  18-92.8807 103.021   2
  -1  -7  18-13.0690 42.2283   6
  -7   2   0 1700.77 479.453  12
   7   2   0 2062.67 493.577   8
   7   2   0 1945.35 574.970   1
  -7   2   0 1801.99 353.866   5
  -7  -2   0 395.456 119.564   5
   7  -2   0 1801.41 357.816   1
  -7   2   0 1920.49 299.607   2
  -7   2   0 1643.38 324.995  19
  -7  -2   0 461.941 299.809  19
   7   2   0 2473.66 514.616  18
   7  -2   0 1632.11 311.325   8
  -7   2   0 1709.34 345.255   4
  -7  -2   0 519.470 227.301  17
   7  -2   0 1876.78 336.216   6
   7   2   0 1646.36 573.824  14
   7  -2   0 1692.20 365.498  14
  -7  -2   1 95.2737 115.850   2
  -7   2  -1 1608.87 378.232  12
   7   2  -1 2114.25 437.746  18
   7   2   1 1817.04 582.079   1
  -7   2  -1 1673.49 331.489   5
   7   2  -1 1610.41 497.509   1
  -7   2   1 1876.64 362.231   5
  -7  -2   1 493.361 282.113   5
  -7   2  -1 1695.01 338.443  19
   7  -2   1 1674.77 326.802   1
  -7   2  -1 1515.53 217.762   2
  -7   2   1 1914.49 361.909   2
   7  -2  -1 1571.44 354.362   1
  -7   2   1 1694.95 339.074  19
  -7  -2  -1 168.194 152.407  19
  -7  -2   1 752.234 314.324  19
   7  -2  -1 1404.47 309.127   8
   7   2   1 2064.61 479.100  18
   7   2   1 1771.14 482.154   8
   7   2  -1 2074.24 444.015   8
   7  -2   1 1525.31 306.878   8
  -7   2  -1 1601.25 325.605   4
  -7  -2   1 366.766 147.248   4
  -7  -2  -1 161.078 153.601  17
  -7  -2   1 842.642 277.758  17
  -7   2   1 1644.56 337.615   4
   7  -2   1 1811.10 313.350   6
   7  -2  -1 1503.46 319.889   6
   7   2  -1 1625.22 557.016  14
   7  -2   1 1650.03 350.049  14
   7  -2  -1 1526.01 350.009  14
   7   2   1 1249.02 491.229  14
   7   2  -2 865.022 294.530  13
  -7   2  -2 770.100 243.196  12
  -7  -2   2 436.269 185.172  19
  -7   2   2 982.990 284.688   2
  -7   2  -2 742.358 206.385   5
  -7   2   2 1034.60 283.204   5
  -7  -2   2 279.588 220.291   5
   7  -2   2 787.838 219.652   1
  -7   2  -2 689.707 118.841   2
  -7   2  -2 790.888 234.814  19
   7  -2  -2 701.307 257.768   1
  -7  -2  -2 154.092 137.796  19
  -7  -2   2 358.188 167.666   2
   7   2  -2 1072.71 308.447  18
   7   2  -2 1006.95 289.124   8
   7  -2   2 750.096 211.246   8
  -7   2  -2 667.215 224.003   4
   7  -2  -2 658.837 229.111   8
   7   2   2 763.354 397.485   1
  -7   2   2 859.104 234.277   4
   7   2   2 905.646 354.800   8
  -7  -2   2 385.817 210.340   4
  -7  -2  -2 11.7272 109.369  17
   7   2   2 801.844 295.634  18
  -7  -2   2 551.012 218.682  17
  -7   2   2 849.666 241.531  19
   7  -2   2 849.408 221.594   6
   7  -2  -2 829.005 275.725   6
   7  -2   2 886.766 252.574  14
   7  -2  -2 800.970 265.452  14
   7   2  -2 475.168 305.195  14
  -7   2  -2 467.208 328.794   3
   7   2  -2 803.185 326.411   1
   7  -2  -3 11.3323 30.7938  14
  -7   2  -3 71.5682 83.7896   3
   7   2  -3 42.8759 85.6738   1
   7   2  -3 86.5976 74.5945  13
   7  -2   3 34.7439 15.3813   6
  -7  -2   3 41.0573 40.7946  12
  -7   2  -3 44.5942 87.1552  12
   7  -2  -3 53.3823 72.6110   1
   7   2  -3 153.350 103.985  20
  -7  -2   3 26.3641 29.5050   5
  -7  -2  -3-202.093 244.840  19
  -7   2  -3 158.697 116.436  19
   7   2   3 59.5910 93.3588   1
  -7   2   3 78.6486 74.4089  19
  -7   2   3 88.3463 93.6545   5
  -7  -2   3 27.2560 74.3979   2
   7   2  -3 128.049 41.3548  18
   7   2   3 16.6592 125.551   8
  -7   2  -3 73.2141 80.2601   5
  -7  -2   3-3.88028 131.077   4
   7   2  -3 98.0495 94.7773   8
  -7  -2   3 113.387 121.826  17
   7  -2   3 65.6735 64.5359   8
  -7   2  -3 62.6749 92.9263   4
   7  -2  -3-14.2896 123.731   8
  -7   2  -3 54.7648 29.5300   2
   7   2  -3 87.3710 187.657  14
   7  -2   3 72.7498 84.4926   1
  -7  -2   3 54.0357 106.541  19
   7  -2   3 68.5545 44.6310  14
   7  -2  -4 486.407 204.099  14
   7  -2   4 576.378 187.949   6
  -7   2  -4 346.633 211.553   3
   7   2  -4 504.429 155.874  13
  -7   2  -4 413.504 157.370  12
   7   2  -4 298.255 238.423   1
  -7  -2   4 126.952 83.4945  12
   7   2  -4 757.352 252.272  11
  -7   2   4 574.576 208.423  19
  -7  -2   4 145.733 170.111   5
   7   2  -4 498.562 248.756  20
  -7   2  -4 371.351 159.730   5
  -7  -2  -4-192.007 388.190  19
  -7   2  -4 421.223 177.423  19
  -7  -2   4 363.214 161.994  19
  -7   2   4 555.202 209.286   5
  -7  -2   4 264.453 137.718   4
   7   2  -4 540.997 227.325  18
   7   2   4 355.087 224.449   8
  -7  -2   4 395.838 171.364   2
   7  -2   4 503.933 178.900   1
  -7  -2   4 345.528 196.142  17
   7  -2   4 395.702 160.138   8
  -7   2  -4 422.576 171.838   4
   7   2  -4 607.821 187.661   8
   7  -2  -4 518.051 219.208   1
   7   2  -4 623.850 275.790  14
   7  -2   4 446.899 191.960  14
   7  -2  -5 112.627 94.2609  14
   7   2  -5 66.4887 57.7695  18
   7  -2   5 84.4054 72.6263   6
   7   2  -5 147.641 91.3286  13
  -7   2  -5 39.0028 35.4758   3
   7  -2  -5 49.9112 107.146   1
  -7   2  -5 85.7757 57.4724  12
   7   2  -5 195.690 96.0988  11
   7   2  -5 56.6822 92.6466   1
  -7  -2   5 53.8210 117.712   5
  -7   2  -5 142.979 87.4547  10
   7   2  -5 363.583 258.456  20
  -7   2  -5 63.2706 15.1082   5
   7   2  -5 406.343 226.453  10
   7  -2   5 137.332 111.184   1
  -7  -2   5 73.1026 79.6367  19
  -7   2  -5 63.4537 78.8970  19
  -7   2   5-8.70577 132.954   5
  -7   2  -5 146.021 82.9446   9
   7   2   5 85.3808 158.938   8
  -7  -2   5 59.9329 54.8773   2
  -7  -2   5 86.6713 108.063   4
  -7  -2   5 132.631 127.049  17
   7   2  -5 112.345 76.7657   8
   7  -2   5 135.824 90.9351   8
  -7   2  -5 67.5546 85.5599   4
   7  -2   5 150.253 124.079  16
   7   2  -5 260.288 239.565  14
   7  -2   5 66.4763 62.4765  14
   7  -2  -6 423.001 242.601  14
  -7   2  -6 533.033 219.579  12
  -7   2  -6 504.110 222.093   3
   7   2  -6 1256.06 349.919  11
   7  -2   6 1072.60 294.008   1
  -7   2  -6 663.637 183.422  20
  -7  -2   6 667.282 241.452   5
  -7   2  -6 844.958 213.638  10
  -7  -2   6 762.054 215.607  19
   7   2  -6 1497.28 449.780  10
   7   2  -6 815.894 261.095   1
  -7   2  -6 546.647 226.410   5
  -7   2  -6 512.498 209.339  19
   7   2  -6 1575.69 440.185   9
   7   2  -6 949.604 298.207  18
   7  -2   6 1003.48 283.265   8
   7   2   6 771.215 367.996   8
  -7  -2   6 603.512 236.514   4
  -7  -2   6 722.045 271.365  17
  -7  -2   6 632.367 201.048   2
  -7   2  -6 542.306 225.138   4
   7  -2  -6 450.433 343.138   1
  -7  -2   6 692.554 157.175  16
   7  -2   6 1271.47 365.889  16
  -7   2  -6 682.576 182.206   9
   7  -2   6 889.774 261.298   6
   7  -2   6 814.409 253.904  14
   7   2  -6 638.050 341.690  14
   7   2  -6 935.373 203.165   8
  -7   2  -7-107.425 241.336  13
  -7   2  -7 500.547 293.554  12
  -7   2  -7 623.730 286.943   3
   7  -2   7 997.483 377.505   1
   7   2  -7 903.889 326.628  11
  -7   2  -7 282.552 199.815   5
  -7   2  -7 901.969 361.350  10
  -7  -2   7 728.543 335.462   5
   7   2  -7 1495.39 475.984   9
   7   2  -7 1200.76 535.712  10
  -7   2  -7 449.459 241.052  19
  -7   2  -7 113.833 168.146   9
   7   2  -7 755.504 307.609   1
   7  -2   7 846.241 275.168   8
   7   2  -7 903.283 219.926   8
  -7   2  -7 1019.46 340.731  20
   7   2  -7 732.042 279.557  18
   7   2   7 201.581 52.0721   8
  -7   2  -7 420.977 184.893   4
  -7  -2   7 578.184 282.785  17
  -7  -2   7 651.701 272.115   4
  -7  -2   7 608.244 249.395   2
   7  -2   7 1187.20 389.610  16
   7  -2   7 868.205 308.140   6
  -7   2  -7 767.408 274.929  15
   7  -2   7 909.879 312.618  14
   7   2  -7 656.352 147.174   3
   7   2  -7 592.847 364.242  14
   2   7  -8 875.634 192.968  13
  -7   2  -8 1360.46 360.489  13
   2  -7   8 590.564 288.736   6
   7  -2   8 2418.94 707.820   1
   7   2  -8 2715.24 602.862  11
  -7   2  -8 972.747 354.351   5
   7   2  -8 1827.15 452.092   1
  -7  -2   8 1692.48 380.938   2
   7   2  -8 3704.40 850.235   9
   7   2  -8 3675.07 1170.43  10
  -7   2  -8 1639.08 463.325  19
   7  -2   8 2132.07 443.701   8
   7   2  -8 1883.63 432.408  18
  -7  -2   8 2305.85 489.974   4
   7   2  -8 2269.05 381.535   8
   7   2   8 543.321 117.391   8
  -7   2  -8 1015.24 336.416   4
  -7  -2   8 1639.92 276.240  16
   7  -2   8 2956.42 563.919  16
  -7   2  -8 1267.21 445.803   7
   7  -2   8 2143.78 462.165   6
  -7   2  -8 1210.01 405.389  15
  -2   7  -8 1820.23 531.607   3
   7   2  -8 2292.67 591.638  14
   7  -2   8 2361.00 507.672  14
  -7  -2   8 2234.33 382.403  19
   7   2  -8 1705.49 215.110   3
   7  -2   9-10.7076 43.3476   6
   2   7  -9-293.207 346.965  13
  -7   2  -9 90.1304 129.349  13
   2  -7   9-51.8385 85.1441   6
  -2  -7   9-8.68517 43.8887   6
  -2   7  -9-68.3404 127.553  12
  -7   2  -9-23.5761 122.770   5
   7   2  -9 32.9660 84.9055  11
  -7   2  -9 74.9628 167.296  20
   7   2   9-144.938 427.719   8
  -7  -2   9-10.2064 64.0885   5
   7   2  -9 106.158 93.7064  10
   7   2  -9 308.419 244.696   9
  -7   2  -9 135.751 151.724  10
  -7   2  -9-14.6516 146.070  19
  -7  -2   9 75.0611 81.5254  19
   2   7  -9-266.390 175.622  18
   7   2  -9-43.7273 86.7298  18
   7  -2   9 11.4151 85.5676   1
  -7   2  -9-14.8713 102.701   4
  -2  -7   9 88.9452 128.963  17
   7  -2   9-31.9116 70.0193   8
  -7  -2   9 13.8067 60.3143  17
  -7  -2   9-19.7281 44.7171   4
   7   2  -9-11.9829 45.8285   1
  -7  -2   9 63.9841 55.8592   2
   7  -2   9-53.1038 103.815  16
  -7  -2   9-26.5385 61.3174  16
  -7   2  -9 17.0168 92.8544   7
  -7   2  -9-86.3764 119.223  15
   7  -2   9-20.5706 107.168  14
   7   2  -9-48.1321 94.3892  14
  -2   7  -9-86.6014 133.591   3
   2   7 -10 2302.74 685.041  13
  -2   7 -10 404.029 369.968  13
  -2   7 -10 2296.15 456.256  12
   2  -7  10 1076.22 368.893   6
  -2  -7  10 671.354 311.808   6
  -7  -2  10 2055.06 472.236   5
   7   2 -10 2270.63 548.090  11
  -7  -2  10 2108.70 467.614   2
   7   2 -10 1993.93 477.389   1
   7   2 -10 2007.97 672.582   9
  -7   2 -10 1032.41 329.362  20
  -7  -2  10 2051.24 372.585  19
   7   2 -10 1737.80 802.226  10
  -7   2 -10 969.106 330.493  19
  -7   2 -10 593.067 267.075  10
   7  -2  10 2645.71 527.317   8
   2   7 -10 1928.55 538.554  18
   7   2 -10 1741.27 439.595  18
  -7  -2  10 2160.50 386.895   4
  -7   2 -10 529.350 174.511   4
  -7  -2  10 2006.54 513.367  17
  -2  -7  10 88.5932 155.915  17
  -7  -2  10 1804.98 341.890  16
  -7   2 -10 968.686 414.632   7
   7  -2  10 2509.01 548.644   6
   2   7 -10 2142.08 529.692   3
  -7   2 -10 821.424 299.854  15
  -2   7 -10 2483.61 575.862   3
   7  -2  10 2458.31 564.284  14
   7   2 -10 1713.99 453.890  14
   7  -2  10 3362.24 645.901  16
  -2   7 -11 699.284 295.978   3
  -2   7 -11 536.631 360.403  13
   2   7 -11 585.585 314.868  13
   2  -7  11 390.060 231.764   6
  -2  -7  11 205.868 181.576   6
  -2   7 -11 673.245 248.330  12
   7   2 -11 440.612 328.959   9
   7   2 -11 588.957 311.239  11
  -7  -2  11 715.719 280.604   5
  -7   2 -11 242.794 219.565  19
   7   2 -11 259.057 208.078  10
  -7  -2  11 479.475 178.693  19
   7  -2  11 785.309 297.634   8
  -7   2 -11 73.1780 65.1391  10
  -2   7 -11 1266.30 446.128  18
   2   7 -11 961.853 388.175  18
   7   2 -11 595.135 276.180  18
   2  -7  11 177.157 249.397  17
  -2  -7  11 97.1475 237.455  17
  -7  -2  11 696.678 319.075  17
  -7  -2  11 566.728 197.696   4
   7  -2  11 883.925 367.989  16
  -7   2 -11 192.224 203.556   7
  -7  -2  11 604.416 224.130  16
  -7  -2  11 514.759 238.841   2
   7   2 -11 377.442 199.564   1
  -7   2 -11 238.580 222.154  15
   7  -2  11 645.958 330.910  14
   7   2 -11 276.391 171.614  14
   7  -2  11 745.615 310.578   6
   2   7 -11 615.740 293.886   3
   2  -7  12 885.070 317.235  14
  -2   7 -12 943.063 352.393   3
  -2   7 -12 1282.42 680.659  13
   2   7 -12 844.676 365.753  13
  -2  -7  12 486.979 235.964   6
   2  -7  12 840.312 331.665   6
  -2   7 -12 962.492 290.669  12
  -7  -2  12 1107.92 364.770   5
   7  -2  12 1316.99 257.705   2
   7   2 -12 894.279 387.917  11
  -2   7 -12 1160.40 231.907   4
  -7   2 -12 104.011 186.073  20
   7  -2  12 1323.84 423.155   8
  -7   2 -12 273.005 184.948  19
  -7   2 -12-266.285 398.352  10
   7   2 -12 257.541 669.014  10
   7   2 -12 646.919 434.925   9
  -2   7 -12 1397.77 436.934  18
   2   7 -12 1314.06 453.806  18
  -7  -2  12 1194.13 295.019   4
   7   2 -12 679.978 297.028  18
   2  -7  12 740.709 335.071  17
  -2  -7  12 349.480 258.251  17
  -7  -2  12 973.022 382.789  17
   7  -2  12 1606.46 486.245  16
  -7   2 -12 137.404 77.8501   7
  -7  -2  12 819.357 285.897  16
  -7  -2  12 1116.17 364.458   2
  -7   2 -12 103.089 123.860  15
   2   7 -12 998.385 354.565   3
   7   2 -12 775.695 309.401   1
   7  -2  12 1257.51 466.717  14
   7   2 -12 552.730 283.645  14
   7  -2  12 1285.93 463.426   6
  -2   7 -13 1519.27 646.111  13
   2   7 -13 1116.95 429.039  13
  -2  -7  13 726.896 342.172   6
   2  -7  13 1004.38 375.958   6
  -2   7 -13 1053.11 312.995  12
   2   7 -13 1338.98 347.726  12
  -7  -2  13 1370.60 402.749   5
   7  -2  13 1637.32 282.939   2
   7   2 -13 785.211 354.308  11
  -2  -7  13-325.870 430.714   2
  -2   7 -13 1236.13 369.897  18
  -7   2 -13 313.681 268.299  19
   7   2 -13 535.193 395.416   9
   2   7 -13 1482.73 450.732  18
  -7  -2  13 1356.18 311.016   4
  -2   7 -13 1445.06 283.365   4
   7   2 -13 848.124 345.047  18
  -2  -7  13 493.022 301.052  17
   2  -7  13 632.536 289.409  17
  -7  -2  13 1175.65 424.262  17
  -7   2 -13-345.520 372.215  20
   7  -2  13 1684.39 533.617  16
   2  -7  13 545.904 89.2210  16
  -7   2 -13-140.730 307.770   7
   7  -2  13 1576.42 470.667   8
  -7  -2  13 1147.54 351.129  16
  -7  -2  13 983.539 362.014   2
  -7   2 -13-143.640 255.147  15
   2   7 -13 1099.48 366.037   3
  -2   7 -13 1199.30 411.921   3
   2  -7  13 738.280 217.543  14
   7  -2  13 1240.52 530.358  14
   7   2 -13 668.985 331.516   1
   7  -2  13 1262.97 471.640   6
   7   2 -13 520.931 272.489  14
   7   2 -14 602.165 287.810   1
   2   7 -14 803.766 309.116   3
  -2  -7  14 391.469 240.458   6
  -2   7 -14 600.518 401.079  13
   2  -7  14 585.869 303.643   6
  -2   7 -14 786.379 339.498   3
   2   7 -14 494.148 312.519  13
  -2   7 -14 974.376 314.113  12
   2   7 -14 921.068 292.033  12
   7  -2  14 1220.87 262.456   2
   7   2 -14 529.766 233.682  11
  -7   2 -14-757.797 544.293  20
  -2  -7  14-102.658 359.475   2
  -7   2 -14-179.588 242.032  19
   7   2 -14 89.7884 195.347   9
  -2   7 -14 1204.72 303.925   4
  -2   7 -14 802.568 252.255  18
   2   7 -14 1074.66 379.698  18
  -7  -2  14 1072.38 267.841   4
   7  -2  14 1031.10 382.429   8
   2  -7  14 767.436 300.742  17
  -2  -7  14 513.573 302.330  17
   7   2 -14 555.948 269.219  18
  -7  -2  14 985.410 393.844  17
  -7  -2  14 1044.61 355.822   5
   2  -7  14 544.669 323.915  16
   7  -2  14 1033.18 418.857  16
  -7  -2  14 666.828 282.408  16
  -7  -2  14 704.380 316.244   2
   2  -7  14 706.003 188.638  14
   7  -2  14 982.231 477.317  14
   7  -2  14 793.760 357.771   6
   7   2 -14 348.229 228.641  14
  -2  -7  15 483.298 281.105   6
   2  -7  15 968.679 402.678   6
  -2   7 -15 1497.24 657.803  13
   7   2 -15 775.953 335.726   1
   2   7 -15 854.860 427.969  13
  -2   7 -15 1094.10 409.091   3
  -2   7 -15 1159.93 340.142  12
   2   7 -15 1163.96 320.111  12
  -7  -2  15 1599.36 430.465   5
   7  -2  15 1511.77 292.093   2
   7   2 -15 564.409 314.897  11
  -2  -7  15 77.0824 219.350   2
   7   2 -15-427.301 741.615   9
  -7   2 -15-212.357 223.934  19
   7   2 -15 651.120 294.025  18
   2   7 -15 1448.02 422.308  18
  -2   7 -15 1188.66 278.891  18
  -7  -2  15 1636.48 342.336   4
  -7  -2  15 1447.90 490.876  17
   7  -2  15 1349.26 475.601   8
  -2   7 -15 1427.52 390.836   4
  -2  -7  15 878.223 381.021  17
   2  -7  15 1032.40 302.463  17
   2  -7  15 835.863 403.305  16
   7  -2  15 1574.97 585.156  16
  -7  -2  15 1340.79 424.363  16
  -7  -2  15 1175.88 442.296   2
   2   7 -15 1313.93 410.054   3
   2  -7  15 931.398 218.270  14
  -2  -7  15 727.944 328.569  16
   7  -2  15 930.867 425.906   6
   7   2 -15 473.149 253.867  14
  -7   2 -16-136.839 254.912  19
  -2  -7  16 742.980 477.218   6
   2  -7  16 993.396 429.177   6
  -2   7 -16 792.140 406.848  13
   2   7 -16 874.536 481.878  13
  -2   7 -16 755.603 327.003   3
   2   7 -16 1077.90 322.257  12
   7   2 -16 584.790 304.006   1
  -2   7 -16 1031.11 327.890  12
   2   7 -16 965.971 385.179  11
  -2   7 -16 1078.77 293.332  11
   7  -2  16 1223.61 284.161   2
   7   2 -16 305.174 228.405  11
  -7  -2  16 1092.64 319.949   5
  -2  -7  16 419.779 215.865   2
   2   7 -16 1238.93 396.484  18
  -7  -2  16 1273.02 310.364   4
  -2   7 -16 827.476 238.201  18
   7   2 -16 480.134 271.926  18
   7  -2  16 974.424 358.654   8
  -2  -7  16 756.118 337.468  17
   2  -7  16 965.808 299.766  17
  -7  -2  16 1125.56 445.147  17
  -2  -7  16 570.956 321.060  16
   2  -7  16 853.358 442.995  16
   7  -2  16 1401.11 552.247  16
  -7  -2  16 867.407 334.150  16
  -7  -2  16 1025.82 421.433   2
   2   7 -16 773.945 427.254  15
   2   7 -16 1373.28 469.152   3
   7  -2  16 1008.97 464.469   6
   7   2 -16 170.230 160.887  14
   2  -7  16 742.307 203.680  14
  -2  -7  17 141.641 281.507   6
   2  -7  17 202.699 178.281   6
  -2   7 -17-57.8881 127.395  13
   2   7 -17 190.321 212.528  13
   2   7 -17 87.9565 149.508   3
  -2   7 -17 99.6726 145.380   3
   7   2 -17 80.7648 157.769   1
  -2   7 -17 65.0864 92.3347  12
   2   7 -17-21.3500 43.4360  12
   2   7 -17 61.3783 113.326  11
  -2   7 -17 228.666 134.886  11
   7   2 -17-89.4072 139.219  11
   2   7 -17 34.0275 269.095  20
  -7   2 -17-103.950 185.286  19
   2   7 -17-28.8003 19.9076  18
  -2   7 -17 50.4414 17.6066  18
   7   2 -17 34.3656 134.706  18
   7  -2  17 5.08147 88.6724   8
  -2  -7  17-24.5371 73.3326  17
   2  -7  17 81.0799 115.484  17
  -7  -2  17-9.59090 115.527  17
  -2  -7  17 136.239 144.579  16
   2  -7  17 220.978 265.235  16
  -7  -2  17 33.2278 35.3491   4
   7  -2  17 90.7400 60.9317  16
  -7  -2  17-175.900 203.456   5
  -7  -2  17-5.72753 86.4018  16
   2   7 -17 208.251 379.507   7
  -7  -2  17-4.08505 45.3891   2
   2   7 -17-49.7308 275.058  15
  -2   7 -17 207.904 285.940  15
   7  -2  17 54.2910 144.264   6
  -2  -7  17-15.9405 180.224   2
  -7   3   0 2409.23 429.684   5
  -7  -3   0-135.933 321.935  19
   7  -3   0 1751.99 387.282   1
   7   3   0 1991.79 521.139   8
   7   3   0 1949.18 602.977   1
   7  -3   0 1706.55 375.959   8
  -7   3   0 2449.24 429.659   4
  -7   3   0 2325.65 416.530  19
   7   3   0 2213.71 546.234  18
   7  -3   0 1867.29 440.777   6
   7  -3   0 1945.27 395.701  14
  -7   3   1 479.690 201.316  19
   7  -3   1 506.851 194.569  14
   7  -3  -1 427.110 182.542  14
   7   3  -1 387.914 369.476   1
  -7  -3   1 156.211 164.399  17
   7  -3   1 406.329 177.848   6
   7  -3  -1 431.324 219.057   1
   7  -3  -1 186.276 242.101   6
  -7   3  -1 553.074 202.396  19
  -7   3  -1 580.690 285.016  12
  -7  -3   1-11.7028 121.350  19
  -7   3   1 490.381 182.664   5
   7   3  -1 715.418 309.486  18
   7   3   1 449.177 275.568   8
   7   3  -1 544.715 266.338   8
  -7   3  -1 588.015 200.569   5
   7  -3   1 394.164 162.426   8
   7  -3  -1 411.978 177.739   8
  -7   3  -1 556.473 194.185   4
   7  -3   1 534.361 205.066   1
   7  -3  -2 664.499 255.149  14
   7  -3  -2 714.332 283.367   1
  -7   3  -2 1035.07 322.299  12
  -7   3  -2 985.019 255.825   5
   7  -3   2 1004.44 264.000   1
  -7   3  -2 867.827 249.912  19
  -7  -3   2-1.14937 121.568  19
   7   3  -2 1215.78 391.978  18
   7  -3   2 755.016 222.112   8
  -7   3  -2 853.215 250.143   4
   7   3   2 468.536 247.789   8
   7   3  -2 1145.89 346.987   8
  -7   3   2 1034.45 301.241  19
  -7  -3   2 163.771 160.386  17
   7   3  -2 647.590 413.448   1
   7  -3  -2 422.403 139.891   8
   7  -3   2 924.714 262.389   6
   7  -3   2 914.590 266.743  14
   7   3  -3 518.885 201.779  13
  -7   3  -3 1065.42 310.491  12
  -7   3  -3 1085.47 270.312   5
  -7  -3   3 318.504 298.112   5
   7  -3   3 1248.76 280.789   1
  -7   3  -3 1043.53 269.075  19
  -7  -3   3 84.1607 66.2614   2
  -7  -3   3 659.712 332.441  19
   7   3  -3 1544.28 430.586  18
   7   3  -3 1417.44 363.693   8
   7  -3   3 879.833 239.297   8
  -7   3  -3 1086.69 273.298   4
   7   3   3 288.181 206.586   8
  -7  -3   3 579.796 293.006  17
   7   3  -3 918.700 410.738   1
   7  -3   3 1213.45 289.186   6
   7  -3   3 1126.45 299.856  14
   7  -3  -3 647.183 286.067  14
  -7   3  -3 785.014 437.575   3
   7  -3   4 30.9719 75.3636  14
  -7   3  -4-21.7314 99.4327   3
   7   3  -4-64.7808 117.733  13
   7  -3   4-40.3893 50.1075   6
  -7   3  -4-21.7299 48.6677  12
  -7  -3   4-22.3612 88.6054   5
   7  -3   4 31.8566 55.8510   1
  -7  -3   4-6.43151 91.1554  19
  -7   3  -4-27.3051 57.1399   5
   7   3   4-111.253 291.829   8
   7   3  -4 2.17289 49.3311   8
  -7  -3   4 34.5422 151.223  17
   7  -3   4 47.0760 70.1028   8
  -7   3  -4 19.6132 54.4849  19
  -7   3  -4 45.2567 64.7043   4
  -7  -3   4-118.461 140.585   2
   7   3  -4-101.127 114.121  18
   7   3  -4-83.8199 113.443   1
   7  -3   5 446.057 152.371   1
  -7   3  -5 320.322 207.423   3
  -7   3  -5 451.799 173.416  19
   7   3  -5 436.356 174.591  13
   7  -3   5 543.711 200.896   6
  -7   3  -5 433.603 200.331  12
  -7  -3   5 127.504 151.348   5
  -7   3  -5 470.289 168.298   5
  -7  -3   5 203.866 141.777   2
   7   3  -5 561.600 248.807  18
   7   3  -5 606.258 183.725   8
  -7  -3   5 219.399 165.351  17
   7  -3   5 377.651 162.131   8
  -7   3  -5 407.835 169.455   4
  -7  -3   5 229.466 175.326  19
   7   3  -5 156.441 257.590  14
   7   3  -5 495.572 298.210   1
   7  -3   5 470.171 184.769  14
   7   3  -6 214.942 259.053   1
   7   3  -6 444.497 290.014  13
   7  -3   6 437.148 174.401   6
  -7   3  -6 339.719 234.207   3
  -7   3  -6 230.772 140.805  12
  -7  -3   6-6.53868 70.1259   5
   7   3  -6 127.484 124.264  20
  -7   3  -6 253.670 126.814   5
  -7  -3   6 143.077 236.708  19
  -7   3  -6 244.123 119.503  19
   7   3  -6 462.815 190.501   8
   7   3  -6 360.550 205.560  18
  -7  -3   6 284.224 265.856   2
  -7  -3   6-138.704 171.939   4
  -7  -3   6 28.5929 98.4126  17
   7  -3   6 395.391 148.100   1
   7  -3   6 412.202 176.117   8
  -7   3  -6 289.618 148.485   4
   7   3  -6-93.9655 325.727  14
   7  -3   6 337.414 152.615  14
   7   3  -7 1241.22 301.174  13
  -7   3  -7 1314.12 367.269  12
  -7   3  -7 1239.72 327.755   5
   7   3  -7 1861.44 505.506  11
   7   3  -7 1626.08 526.017   1
  -7  -3   7 1198.76 345.950   2
   7  -3   7 1331.59 295.549   1
  -7  -3   7 1595.12 483.889   5
  -7   3  -7 1098.41 315.223  19
   7   3  -7 1691.12 420.769  18
  -7  -3   7 1729.54 600.865   4
  -7   3  -7 1190.49 349.831   4
   7   3  -7 1701.55 287.005   8
   7  -3   7 1278.74 308.395   8
  -7  -3   7 1329.16 420.787  17
   7  -3   7 2030.40 562.871  16
   7  -3   7 1379.65 337.352   6
   7  -3   7 1247.37 304.391  14
  -7   3  -7 1174.91 412.546   3
   3   7  -8-290.673 456.664  13
   7  -3   8 296.187 152.515   6
  -7   3  -8-170.786 225.270  13
   7   3  -8 269.139 168.260  13
   7  -3   8 343.743 184.215   1
  -7   3  -8 168.680 95.8574  12
  -7   3  -8 107.243 89.4584   3
   7   3  -8 264.340 204.544   1
   3  -7   8-18.8168 46.8956   6
  -3   7  -8 85.7025 150.840  12
   7   3  -8 326.336 190.742  11
  -7  -3   8 84.7643 67.3922   5
  -7   3  -8 98.5162 104.844  20
  -7   3  -8 230.047 141.598   5
   7   3  -8 112.481 81.0951  10
  -7  -3   8 118.920 121.772   2
  -7  -3   8 209.348 115.035  19
  -7   3  -8 249.225 149.018  19
   7   3  -8 307.029 201.634  18
  -7  -3   8 71.7962 117.673   4
   7   3  -8 399.609 367.094  20
  -7  -3   8 198.386 91.5412  17
   7  -3   8 370.312 172.319   8
  -7   3  -8 224.257 150.501   4
   7   3  -8 347.316 119.475   8
  -7  -3   8 237.825 122.566  16
   7  -3   8 516.388 267.944  16
   7   3  -8 467.334 412.462  14
  -3   7  -8 260.924 54.0351   3
   7  -3   8 303.090 145.337  14
   7   3  -8 343.115 141.064   3
   7   3  -9 3904.29 450.124   8
   3   7  -9 3150.33 775.682  13
   7   3  -9 2936.03 491.133  13
  -7   3  -9 415.283 244.838  13
  -7   3  -9 1856.52 434.430  12
  -3   7  -9 3157.11 564.353  12
   3  -7   9 1038.55 352.196   6
  -3  -7   9 250.243 220.183   6
  -7   3  -9 1996.68 471.299   5
  -7  -3   9 2150.30 552.742   5
   7  -3   9 4045.46 724.383   1
   7   3  -9 4010.22 727.429  11
   7   3  -9 2853.31 634.728   1
  -7  -3   9 2026.28 463.863   2
  -7   3  -9 2230.09 431.942  20
  -7   3  -9 2511.59 434.842  10
   7   3  -9 3287.84 890.010  20
   7   3  -9 4634.32 932.834  10
  -7   3  -9 1852.89 406.281  19
  -7  -3   9 2668.65 389.051  19
  -7   3  -9 2770.41 409.516   9
   3   7  -9 2045.29 514.814  18
   7   3  -9 3148.45 598.972  18
  -7  -3   9 2309.60 519.216   4
  -7   3  -9 2114.24 485.330   4
   7  -3   9 3396.45 536.857   8
  -7  -3   9 2478.57 568.346  17
  -7  -3   9 2308.39 370.342  16
   7  -3   9 4788.77 807.454  16
   7  -3   9 3467.53 593.236   6
  -3   7  -9 3307.74 740.908   3
   7   3  -9 3024.27 365.963   3
   7  -3   9 3207.34 530.041  14
  -7   3  -9 1990.21 483.465   3
   7   3  -9 1466.09 568.149  14
  -3   7 -10 227.409 186.323   3
   7  -3  10 216.389 165.666   6
   3   7 -10 214.129 206.224  13
  -7   3 -10 354.221 273.562  13
   3   7 -10 69.4857 105.173  18
   7   3 -10 111.418 63.1601   3
   3  -7  10 138.195 98.1436   6
  -7   3 -10 126.374 131.162  12
  -3  -7  10-40.5046 75.8326   6
  -3   7 -10 70.4935 99.9227  12
  -7   3 -10 109.537 159.556   3
  -7   3 -10 106.328 126.929   4
   7   3 -10 164.563 135.152  11
  -7   3 -10 13.1485 79.7297   5
   7   3 -10 159.588 183.556   1
  -7  -3  10 67.5266 66.2877   5
  -7   3 -10 17.8508 51.4116  20
   7   3 -10 270.684 303.348  20
  -7   3 -10 224.385 180.341  10
   7   3 -10 489.294 499.903  10
  -7   3 -10 48.0052 65.4777  19
   7   3 -10 567.421 341.968   9
  -7   3 -10 128.103 108.809   9
  -7  -3  10 101.746 79.1192  19
   7   3 -10 168.298 164.619  18
  -7  -3  10 61.2242 117.716   4
  -3  -7  10 30.3896 111.164  17
   7  -3  10 1.79452 57.6127   1
   7  -3  10 157.092 125.895   8
  -7  -3  10 166.515 136.329  17
  -7  -3  10 158.037 167.495   2
   7   3 -10-165.933 315.920   8
  -7  -3  10 169.725 119.030  16
   7  -3  10 178.669 174.086  16
  -7   3 -10 196.158 265.006   7
  -7   3 -10 146.945 192.982  15
   7   3 -10 238.952 309.412  14
   3   7 -10-36.4052 159.745   3
   7  -3  10 142.392 107.055  14
   7  -3  11 1247.04 380.143   6
  -3   7 -11 1035.41 384.536   3
   3  -7  11 1082.08 428.029  14
  -3   7 -11 45.2998 545.917  13
   3   7 -11 906.388 436.044  13
  -7  -3  11 1140.42 371.190   4
  -7   3 -11 297.976 210.636  13
   3  -7  11 541.111 236.297   6
  -3  -7  11 355.878 199.857   6
  -3   7 -11 1119.78 325.243  12
  -7   3 -11 734.561 349.022  12
  -7   3 -11 633.924 319.580   3
   7   3 -11 1344.38 442.181  11
  -7  -3  11 910.473 355.286   5
  -3  -7  11 284.149 235.097  17
   7   3 -11 30.8032 701.998  20
  -7  -3  11 803.614 222.390  19
  -7   3 -11 958.713 334.032  10
   7  -3  11 131.773 152.961   1
   7   3 -11 1309.38 610.971  10
   7   3 -11 1275.88 484.788   9
  -7   3 -11 560.699 213.487  19
   3   7 -11 1378.20 457.147  18
   7  -3  11 1307.12 352.212   8
  -3   7 -11 1140.94 254.814   4
  -7   3 -11 439.274 224.578   4
   3  -7  11 161.692 256.764  17
  -7   3 -11 933.710 328.351  20
  -7  -3  11 756.782 318.841  17
  -3   7 -11 1555.73 497.923  18
   7   3 -11 923.211 340.562  18
  -7  -3  11 869.291 315.858   2
   7  -3  11 1660.72 499.043  16
  -7  -3  11 990.000 267.358  16
   7   3 -11 750.626 328.981   1
  -7   3 -11 810.696 402.637   7
   3   7 -11 1166.54 381.703   3
  -7   3 -11 698.651 240.171   9
  -7   3 -11 638.088 250.549  15
   7   3 -11 1127.29 241.153   3
   7   3 -11 380.768 374.634  14
   7  -3  11 1058.57 330.056  14
   3  -7  12 910.062 274.799  14
  -3   7 -12 1217.05 420.375   3
   7  -3  12 1469.78 379.322   8
  -3   7 -12 587.709 555.284  13
   3   7 -12 980.008 403.865  13
  -3  -7  12 422.459 199.570   6
  -7   3 -12 367.608 219.819  13
   3  -7  12 822.082 340.607   6
  -3   7 -12 1270.96 347.271  12
   7   3 -12 1431.45 463.903  11
  -7  -3  12 1159.35 384.406   2
  -7  -3  12 1112.11 378.630   5
  -7   3 -12 836.089 324.368  20
  -7   3 -12 590.259 285.276  10
   7   3 -12 1476.53 654.896  10
  -7  -3  12 917.452 384.788  17
  -7   3 -12 615.281 263.527   9
   7   3 -12 1483.43 573.827   9
  -3   7 -12 1700.29 448.466  18
   3   7 -12 1703.88 513.782  18
   7   3 -12 1176.49 390.069  18
  -7  -3  12 1361.29 402.894   4
  -7   3 -12 611.873 250.620  19
  -3   7 -12 1437.46 285.792   4
  -7   3 -12 192.260 53.0026   4
   3  -7  12 979.902 440.986  17
  -3  -7  12 314.859 243.809  17
   7   3 -12 915.040 383.907   1
   7   3 -12-592.474 1081.24  20
   7  -3  12 1775.95 512.674  16
  -7  -3  12 1096.48 289.001  16
  -7   3 -12 637.277 360.955   7
   7  -3  12 1561.00 457.504   6
   3   7 -12 1061.61 382.497   3
  -7   3 -12 779.710 328.852  15
   7  -3  12 1413.03 430.016  14
   7   3 -12 1423.58 292.090   3
   7   3 -12 275.413 166.932  14
  -7  -3  12 853.966 259.747  19
   3   7 -13 930.461 319.531   3
  -3   7 -13 848.028 591.527  13
  -3   7 -13 988.442 370.355   3
  -3  -7  13 237.074 137.164   6
   3   7 -13 1018.69 420.891  13
   3  -7  13 1002.21 414.896   6
  -7   3 -13 477.815 301.805  13
  -3   7 -13 880.976 279.278  12
  -3   7 -13 1056.08 152.773   5
   7   3 -13 981.296 391.442  11
  -7   3 -13 685.363 324.250  20
  -7  -3  13 960.366 377.164   5
  -3  -7  13-149.289 355.273   2
   7   3 -13 346.141 159.426  10
  -7   3 -13 347.163 175.530  19
   7  -3  13 1318.85 377.137   8
   7   3 -13 1394.03 600.553   9
  -7   3 -13 431.642 227.061   9
   7   3 -13 756.739 343.413   1
  -7   3 -13 255.685 110.662  10
   3   7 -13 1148.32 391.137  18
  -3   7 -13 1219.31 306.537   4
   7   3 -13 881.754 328.742  18
   3  -7  13 774.641 297.176  17
  -3  -7  13 636.041 341.247  17
  -7  -3  13 1026.63 332.225   4
  -7  -3  13 1142.20 422.196  17
   3  -7  13-25.7238 263.662  16
  -7  -3  13 847.091 315.743   2
  -7  -3  13 1070.48 308.767  16
   7  -3  13 1496.45 486.828  16
  -7   3 -13 460.275 356.818   7
  -3   7 -13 1257.69 307.941  18
  -7   3 -13 531.341 299.675  15
   3  -7  13 781.244 221.511  14
   7   3 -13 454.933 434.751  14
   7  -3  13 1059.28 397.788  14
   7  -3  13 1076.47 416.166   6
  -3  -7  14 597.892 319.706   6
  -3   7 -14 1144.01 657.132  13
   3  -7  14 1076.52 440.454   6
  -3   7 -14 1212.77 426.980   3
   3   7 -14 1271.10 488.767  13
  -3   7 -14 1314.01 353.695  12
   3   7 -14 1368.11 349.118  12
  -7  -3  14 1667.76 468.077   5
   7   3 -14 1129.58 579.183   9
   7   3 -14 1214.33 443.877  11
  -7   3 -14 251.645 228.531  20
  -7   3 -14 646.222 330.704  10
   7   3 -14 1122.02 804.380  10
  -7   3 -14 501.323 247.242  19
   7  -3  14 1016.15 315.402   2
  -3  -7  14 337.979 195.409   2
  -3   7 -14 1253.75 292.853  18
  -7   3 -14 349.435 184.846   9
  -7  -3  14 1412.58 364.038   4
   7  -3  14 1671.51 443.695   8
  -3   7 -14 1864.19 412.125   4
   3   7 -14 1664.00 479.475  18
   7   3 -14 869.609 395.796   1
   7   3 -14 1162.87 412.882  18
  -3  -7  14 312.320 180.769  16
   3  -7  14 1158.36 330.757  17
  -7  -3  14 1536.00 499.692  17
  -3  -7  14 579.775 355.469  17
  -7  -3  14 1343.46 365.613  16
   7  -3  14 1815.05 580.603  16
  -7  -3  14 1209.63 433.154   2
   3  -7  14 894.852 361.372  16
   3  -7  14 1013.60 123.597   8
  -7   3 -14 271.343 271.086   7
   7  -3  14 1768.37 542.620   6
  -7   3 -14 427.057 314.864  15
   3   7 -14 1281.49 373.231   3
   3  -7  14 1066.87 243.818  14
   7   3 -14 452.025 352.286  14
   7  -3  14 1291.03 522.851  14
  -3  -7  15 214.265 218.947   6
   3  -7  15 390.249 269.239   6
   3   7 -15 641.580 300.080   3
  -3   7 -15 662.858 438.950  13
   3   7 -15 545.594 290.570  13
  -3   7 -15 552.660 282.774   3
  -3   7 -15 641.904 252.925  12
   3   7 -15 677.987 245.225  12
   7   3 -15 469.514 302.737  11
  -7   3 -15 438.854 287.482  20
  -7  -3  15 893.112 356.821   5
  -7   3 -15 252.154 324.261  10
  -7   3 -15 11.7253 131.862  19
  -3  -7  15 195.377 138.255   2
   7   3 -15 278.826 213.693   9
   7  -3  15 751.108 287.401   2
   3   7 -15 908.210 346.284  18
  -3   7 -15 610.580 192.845  18
   7   3 -15 551.317 269.033  18
   7   3 -15 340.802 217.661   1
   7  -3  15 1007.73 335.133   8
  -3  -7  15 497.770 297.431  17
   3  -7  15 500.741 191.805  17
  -3   7 -15 974.609 367.502   4
  -7  -3  15 715.301 263.831   4
  -7  -3  15 777.562 352.562  17
   7   3 -15 669.615 621.362  10
  -3  -7  15 179.117 55.9722  16
   3  -7  15 522.725 305.590  16
   3  -7  15 346.127 236.144   8
  -7  -3  15 724.460 306.766   2
  -7   3 -15-12.2453 267.514   7
   7  -3  15 1041.83 424.538  16
  -7  -3  15 717.842 285.649  16
  -7   3 -15-95.7267 260.886  15
   7  -3  15 864.724 456.274  14
   7   3 -15 130.615 293.573  14
   7  -3  15 688.036 354.445   6
   3  -7  15 530.628 172.871  14
  -3  -7  16 405.265 413.434   6
   3  -7  16 583.548 313.430   6
   3   7 -16 538.480 289.939   3
  -3   7 -16 316.961 278.897  13
   3   7 -16 568.709 364.067  13
  -3   7 -16 333.214 214.339   3
  -3   7 -16 360.736 201.899  12
   3   7 -16 540.694 160.678  12
   3   7 -16 368.283 238.483  11
  -3   7 -16 640.247 231.620  11
   7   3 -16 390.138 274.439  11
  -7   3 -16-368.446 417.302  20
  -7  -3  16 459.001 218.310   5
  -7   3 -16 92.4071 75.0286  10
  -7   3 -16-44.6454 185.054  19
  -3  -7  16 1045.58 565.725   2
   7   3 -16 1110.75 655.544   9
   3   7 -16 536.950 252.658  18
  -3   7 -16 374.444 134.121  18
  -3   7 -16 375.181 207.057   4
   7   3 -16 489.781 302.799   1
   7  -3  16 674.772 358.564   8
   7   3 -16 374.872 225.451  18
  -3  -7  16 588.446 457.558  17
   3  -7  16 412.342 168.356  17
   7   3 -16 439.166 281.180  10
  -7  -3  16 588.258 211.790   4
  -7  -3  16 644.083 332.574  17
   3  -7  16 389.601 81.9951   8
  -3  -7  16 476.660 383.698  16
   3  -7  16 537.397 360.744  16
  -7  -3  16 401.690 273.794   2
  -7   3 -16-303.290 505.066   7
   7  -3  16 767.904 458.043  16
  -7  -3  16 439.010 245.233  16
   3   7 -16 507.239 417.605   7
   3   7 -16 701.395 442.544  15
   7  -3  16 521.001 422.540  14
   7  -3  16 697.135 311.293   6
   3  -7  16 482.489 177.234  14
   3  -7  17 1001.02 490.619   6
   7   3 -17-921.689 1558.75  10
  -3   7 -17 1501.42 653.100  13
   3   7 -17 1114.62 409.001   3
   3   7 -17 939.635 461.195  13
  -3   7 -17 544.491 286.265   3
   3   7 -17 1187.99 318.442  12
  -3   7 -17 1012.01 352.540  12
   3   7 -17 1493.40 484.885  11
  -3   7 -17 1264.66 321.280  11
  -7   3 -17-322.308 489.314  10
   7   3 -17 734.452 344.855  11
   3   7 -17 670.536 607.080  20
  -7   3 -17-1120.33 620.531  20
  -7  -3  17 1235.51 400.934   5
  -3  -7  17 578.045 379.227   2
   7   3 -17-82.7850 257.985   9
  -3   7 -17 927.160 248.465  18
   3   7 -17 1078.46 377.404  18
   7   3 -17 683.069 373.191  18
   3  -7  17 1073.45 295.233  17
   7  -3  17 1425.00 438.464   8
   7   3 -17 402.423 274.389   1
  -3  -7  17 882.346 419.933  17
  -7  -3  17 1308.65 476.855  17
   3  -7  17 1068.54 395.582   8
  -3  -7  17 895.081 398.682  16
   3  -7  17 1144.65 525.037  16
  -7  -3  17 1155.68 469.469   2
   7  -3  17 1444.80 568.172  16
  -7  -3  17 1309.75 428.919  16
   3   7 -17 1277.71 676.807   7
  -7   3 -17 135.181 141.301  19
   3   7 -17 1463.65 625.970  15
   7  -3  17 975.248 457.572   6
  -3  -7  17 375.967 409.519   6
   7  -4   0 43.2993 101.876  14
  -7   4   0-123.019 164.751  19
   7   4   0-178.118 237.655   8
  -7  -4   1-75.9927 87.9342  17
   7  -4   1 986.675 440.546   6
   7  -4   1 1010.46 302.766   1
  -7   4  -1 1397.39 355.936  19
   7   4  -1 1155.78 374.298  18
   7   4  -1 402.143 166.499   8
   7  -4   1 847.481 276.299   8
   7  -4   1 869.475 312.494  14
   7  -4   2 131.532 30.0318  14
   7  -4   2 81.3573 115.080   6
  -7   4  -2 30.4665 199.830  12
   7  -4   2 146.244 96.6955   1
   7   4  -2-29.3100 195.053   1
  -7   4  -2 215.601 127.962  19
  -7   4  -2 135.009 71.2828   5
   7   4  -2 43.2389 23.2047  18
   7   4  -2 274.363 208.835   8
  -7  -4   2-193.624 187.976  17
   7  -4   2 170.127 122.808   8
  -7   4  -2 174.968 92.9394   4
   7  -4   3 167.537 120.498  14
   7  -4   3 244.608 146.035   6
  -7   4  -3 206.845 144.034  12
  -7  -4   3-315.292 343.628  19
  -7   4  -3 302.825 154.493  19
  -7   4  -3 353.425 152.318   5
   7   4  -3 257.006 213.992  18
   7   4  -3 182.706 245.575   1
   7  -4   3 200.932 107.892   1
   7   4  -3 197.467 148.539   8
  -7  -4   3 74.4764 176.631  17
   7  -4   3 130.937 103.502   8
  -7   4  -3 246.368 143.319   4
   7  -4   4 402.401 187.973  14
   7   4  -4-291.673 376.407  13
   7  -4   4 409.917 187.273   6
  -7   4  -4 456.274 232.077  12
   7   4  -4 350.713 220.675  18
  -7  -4   4 101.118 226.302  19
  -7   4  -4 478.731 193.513  19
   7   4  -4 400.318 214.090   8
   7   4  -4 194.986 260.104   1
  -7  -4   4-24.5660 72.0240  17
   7  -4   4 414.201 173.634   1
   7  -4   4 417.612 182.721   8
  -7   4  -4 443.581 180.275   5
  -7   4  -4 313.906 156.893   4
  -7   4  -4 404.184 266.547   3
   7  -4   5 23.6183 43.9386  14
   7  -4   5 21.7726 21.3572   1
   7   4  -5 352.967 176.333  13
   7  -4   5-4.59405 54.9890   6
  -7   4  -5-12.1768 89.6014  12
  -7   4  -5 17.0848 38.7049   5
  -7  -4   5 1154.37 470.335  19
  -7   4  -5 57.4876 77.8476  19
   7   4  -5 236.283 153.070   8
   7   4  -5 264.936 179.537  18
  -7  -4   5 454.733 338.802  17
  -7  -4   5 12.0599 246.931   2
   7   4  -5 837.450 477.311   1
   7  -4   5 59.0845 89.4271   8
  -7   4  -5-37.2035 88.6053   4
  -7   4  -5-3.54312 103.355   3
   7  -4   6 349.353 169.692  14
  -7   4  -6 265.552 226.265   3
   7   4  -6 316.598 220.196  13
   7  -4   6 340.731 146.371   6
  -7   4  -6 290.688 175.138  12
  -7  -4   6 53.4270 81.5403   2
  -7  -4   6 136.598 226.614  19
  -7   4  -6 314.395 139.591   5
  -7   4  -6 311.475 148.542  19
   7  -4   6 333.418 121.888   1
   7   4  -6 400.326 247.867  18
   7   4  -6 337.799 171.698   8
  -7  -4   6 145.945 235.691  17
   7  -4   6 259.021 137.201   8
   7   4  -6 491.496 328.737   1
  -7   4  -6 266.477 149.470   4
   7  -4   7 470.214 161.679   1
  -7   4  -7 523.982 284.287   3
   7   4  -7 497.163 225.736  13
   7  -4   7 470.593 212.453   6
  -7   4  -7 475.565 210.117  12
  -7  -4   7 1.39222 220.420   5
  -7   4  -7 459.644 165.752   5
  -7  -4   7 423.670 210.241  19
  -7   4  -7 373.855 172.262  19
  -7  -4   7 315.226 224.246   2
   7   4  -7 569.017 187.369   8
   7   4  -7 512.788 256.510  18
  -7  -4   7 287.902 239.713  17
   7  -4   7 521.652 201.543   8
  -7   4  -7 417.635 194.012   4
   7   4  -7 563.924 357.769   1
   7  -4   7 486.938 191.769  14
   7   4  -8 970.028 305.156  13
   4   7  -8 242.851 86.9321  13
  -7   4  -8 846.875 339.421   3
  -4   7  -8 1157.46 334.161  12
   4  -7   8 409.083 229.166   6
  -7   4  -8 762.922 280.315  12
  -7   4  -8 821.885 232.800   5
  -7  -4   8 247.978 100.574   5
   7  -4   8 1067.36 239.829   1
  -7   4  -8 935.231 270.181  19
   7   4  -8 1256.60 415.542  18
   4   7  -8 386.366 183.726  18
   7   4  -8 1293.28 246.253   8
  -7   4  -8 941.098 277.762   4
  -7  -4   8 470.335 233.782   2
   7  -4   8 838.981 254.391   8
  -4  -7   8-125.495 160.451  17
  -7  -4   8 612.867 304.703  17
  -7  -4   8 695.064 224.811  19
   7  -4   8 1144.41 287.401  16
   7  -4   8 1154.49 327.931   6
   7   4  -8 994.225 425.250   1
   7  -4   8 997.240 280.937  14
  -4   7  -8 1262.94 499.756   3
   4   7  -9-110.622 228.493  13
   7  -4   9 2.57963 39.5517   6
   7   4  -9 60.7387 112.858  13
  -7   4  -9 25.1283 159.122   3
   4  -7   9 37.6399 110.765   6
  -7   4  -9-36.4670 58.5205  12
  -4  -7   9 48.8474 89.2818   6
  -4   7  -9-0.35824 73.1563  12
   7   4  -9-143.025 186.770  11
  -7  -4   9-78.5181 149.266   5
   7  -4   9 50.9806 65.1638   1
   7   4  -9 57.7401 75.9162  20
  -7   4  -9 0.47954 16.0675   5
   4   7  -9-69.7352 103.981  18
  -7  -4   9 51.8548 63.0166  19
  -7   4  -9 34.7351 71.6456  19
   7   4  -9-74.1337 67.4016  18
  -7  -4   9 81.5395 103.303   2
  -7  -4   9 143.023 164.901  17
  -4  -7   9 30.5287 102.777  17
   7   4  -9 4.05658 15.7994   8
   7  -4   9-7.05528 39.6709   8
  -7   4  -9 71.9410 93.7748   4
   7  -4   9-64.1328 249.931  16
   7   4  -9 119.892 184.479   1
   7   4  -9-61.4961 153.326   3
  -4   7  -9-69.1243 106.646   3
   7  -4   9 25.7271 22.5705  14
   7   4 -10 1040.57 424.593   1
  -4   7 -10 1342.39 456.276   3
   4  -7  10 1035.54 436.431  14
   7   4 -10 1204.93 349.489  13
  -7   4 -10 168.732 204.346  13
   4   7 -10 1092.32 450.636  13
   4  -7  10 618.216 295.095   6
  -4   7 -10 1174.03 348.273  12
  -7   4 -10 749.493 302.066   3
  -4  -7  10 176.524 130.438   6
  -7   4 -10 760.349 284.240  12
   7   4 -10 1663.84 508.496  11
   7  -4  10 1287.90 383.068   1
  -7  -4  10 608.927 362.134   5
  -7   4 -10 794.116 291.033   5
  -7   4 -10 327.749 107.947  11
   7   4 -10 1728.92 591.144  10
  -7  -4  10 794.300 231.788  19
   7   4 -10 1349.32 415.745  18
   7  -4  10 1166.92 316.721   8
   7   4 -10 1471.27 257.800   8
  -4   7 -10 1375.65 319.887   4
  -7  -4  10 869.707 325.936   2
  -4  -7  10 183.400 264.617  17
   7   4 -10 1975.16 655.415  20
  -7  -4  10 540.138 300.228  17
  -7   4 -10 873.877 317.512   4
  -7  -4  10 719.062 239.100  16
   7  -4  10 1647.19 537.424  16
   7  -4  10 1362.93 377.581   6
   7   4 -10 1165.32 295.236   3
   7  -4  10 1078.98 300.251  14
  -7   4 -10 836.559 261.022  19
   4   7 -10 889.399 336.247  18
  -4   7 -11 599.759 287.948   3
   4  -7  11 450.485 242.221  14
   7  -4  11 644.442 273.538   6
   7   4 -11 464.564 306.836   1
   7   4 -11 526.695 186.488   3
   4   7 -11 356.690 276.137  13
  -7   4 -11-11.7219 234.803  13
   7   4 -11 356.714 185.304  13
   4  -7  11 268.091 199.725   6
  -4  -7  11 91.4090 76.0972   6
  -7   4 -11 391.952 210.325  12
  -7   4 -11 300.736 185.522   3
  -4   7 -11 485.305 219.661  12
   7   4 -11 699.205 334.436  11
  -7  -4  11 492.110 285.545   5
  -7   4 -11 379.017 270.249   5
  -7   4 -11 469.857 233.512  20
   7   4 -11 687.881 384.286  20
  -7   4 -11 537.340 221.468  10
   7   4 -11 849.477 373.726  10
  -4   7 -11 1019.68 394.048  18
   4   7 -11 713.573 343.176  18
   7   4 -11 645.330 309.809  18
  -7  -4  11 420.868 166.302  19
  -7  -4  11 371.633 221.129   2
   4  -7  11 43.0117 190.447  17
  -4  -7  11 46.3093 111.775  17
  -7   4 -11 478.386 254.506   4
  -7  -4  11 539.432 297.570  17
   7  -4  11 549.831 224.726   8
   7  -4  11 564.690 303.210   1
   7   4 -11 539.200 135.539   8
  -7  -4  11 465.058 198.740  16
   7  -4  11 655.827 345.952  16
  -4   7 -11 642.417 213.179   4
  -7   4 -11 312.870 151.610  19
   4   7 -11 524.522 244.237   3
   7  -4  11 468.170 191.756  14
   4  -7  12 303.811 166.192  14
   7  -4  12 385.703 229.403   6
  -4   7 -12 277.749 178.424   3
  -4   7 -12-1082.70 707.275  13
   4   7 -12 187.852 104.831  13
  -7   4 -12 93.7464 191.717  13
  -4  -7  12 101.825 99.9324   6
   7   4 -12 307.048 281.042   1
   7   4 -12 284.214 141.635   3
   4  -7  12 195.983 146.648   6
   7   4 -12 370.207 225.434  13
  -7   4 -12 217.029 166.723  12
  -7   4 -12 96.8205 143.726   3
  -4   7 -12 272.867 185.827  12
   7   4 -12 322.020 152.021  20
  -7   4 -12-23.0663 356.938   5
   7   4 -12 427.127 265.308  11
   7   4 -12 964.740 586.685  10
  -7  -4  12 65.1152 102.955   5
  -7   4 -12 164.668 165.601  20
  -7   4 -12 246.826 163.687  10
  -4  -7  12 5.44386 49.1313  19
  -4   7 -12 322.243 102.694   5
   7   4 -12 1020.87 480.282   9
  -7   4 -12 477.122 241.533   9
  -7   4 -12 182.473 150.702  19
  -7  -4  12 233.933 116.198  19
  -4   7 -12 341.421 142.304  18
   4   7 -12 391.705 250.501  18
  -7   4 -12 157.890 149.290   4
  -4  -7  12 251.642 210.235  17
  -7  -4  12 152.049 146.797  17
  -7  -4  12 147.259 135.763   2
   7  -4  12 230.857 146.349   8
   4  -7  12 362.655 309.813  17
  -7  -4  12 147.000 88.4933  16
   4  -7  12-316.790 470.350   8
   7  -4  12 420.841 328.274  16
  -4   7 -12 346.988 171.217   4
   7   4 -12 325.952 213.143  18
  -7   4 -12 261.661 256.691   7
   7  -4  12-30.3265 87.8587   1
  -7   4 -12 178.274 198.777  15
   7  -4  12 264.983 157.262  14
   4   7 -12 178.876 160.791   3
   4   7 -13 1731.22 533.771  13
   7   4 -13 2318.56 535.236  13
  -4   7 -13 1777.89 879.081  13
  -4  -7  13 471.639 223.839   6
   4  -7  13 1398.05 478.015   6
  -7   4 -13 824.726 445.748  13
  -4   7 -13 1922.02 445.873  12
   7   4 -13 1775.46 579.983   1
  -7   4 -13 778.021 344.632  12
  -7   4 -13 936.184 392.683   3
   7   4 -13 3078.72 834.049   9
  -4   7 -13 2017.61 262.924   5
   7   4 -13 2310.43 625.911  11
  -7  -4  13 1782.18 591.707   5
   7   4 -13 2097.03 927.813  20
  -7   4 -13 1387.14 415.460  10
   7   4 -13 2894.42 984.915  10
  -7  -4  13 1219.43 309.011  19
  -4  -7  13 164.979 193.072   2
  -7   4 -13 1036.60 315.976  19
  -7   4 -13 1318.84 382.224   9
  -4   7 -13 2156.00 369.503  18
   4   7 -13 2625.93 622.163  18
   7   4 -13 2240.85 560.207  18
   7  -4  13 2201.44 466.005   8
  -4   7 -13 2294.40 419.056   4
   4  -7  13 1328.48 343.437  17
  -7   4 -13 796.090 299.402   4
  -7   4 -13 1001.08 413.500  20
  -4  -7  13 700.376 356.146  17
  -7  -4  13 1420.47 446.000   2
  -7  -4  13 1469.26 484.530  17
  -7  -4  13 1742.72 407.103  16
   7  -4  13 2876.52 749.866  16
   4  -7  13 1636.53 422.000   8
  -7   4 -13 1338.46 531.732   7
   7  -4  13 2271.20 570.047   6
   4   7 -13 1970.32 488.083   3
  -7   4 -13 877.604 379.028  15
  -4   7 -13 1839.30 554.452   3
   7  -4  13 1885.49 480.148  14
   4  -7  13 1615.10 331.681  14
   7   4 -13 2134.12 381.081   3
   7  -4  14 208.712 168.309   6
   4  -7  14 287.592 134.785  14
   4   7 -14 119.945 79.3828   3
  -4  -7  14 82.3536 120.678   6
  -4   7 -14 233.272 362.501  13
   4  -7  14 299.927 238.647   6
  -4   7 -14 124.641 133.725   3
   4   7 -14 327.882 221.879  13
  -7   4 -14 221.177 294.397  13
  -7   4 -14 319.408 244.636  12
   7   4 -14 336.236 166.214   3
   7   4 -14 148.112 170.074   1
  -4   7 -14 199.903 142.117  12
  -7   4 -14 190.304 248.169   3
   7   4 -14 218.076 51.6936  11
  -7  -4  14 314.771 255.144   5
  -7   4 -14 447.080 260.441  10
  -7   4 -14 400.523 330.057  20
   7   4 -14 671.434 644.432  20
   7   4 -14 350.140 354.238  10
  -4  -7  14-71.8489 213.453   2
  -7   4 -14 154.718 148.549  19
   7   4 -14-4.30416 113.377   9
  -7   4 -14 374.601 214.890   9
  -4   7 -14 267.394 122.743  18
   7   4 -14 323.436 224.448  18
  -7   4 -14 2.86262 306.082   4
   4  -7  14 200.832 119.981  17
  -4  -7  14 165.919 137.441  17
  -7  -4  14 52.8474 118.115   2
   7  -4  14 348.481 200.215   8
  -7  -4  14 196.736 130.100  17
  -4   7 -14 286.393 162.834   4
   4  -7  14 140.872 110.747   8
  -7  -4  14 280.073 167.605  16
   7  -4  14 288.034 212.914  16
  -7   4 -14-110.026 262.344   7
  -7   4 -14 255.286 191.593  15
   4   7 -14 239.510 138.860  18
   7  -4  14 273.013 178.889  14
   4  -7  14-399.512 452.324  16
  -4  -7  15 254.939 357.970   6
  -7   4 -15 409.090 241.437   9
   4   7 -15 586.356 260.632   3
   4  -7  15 569.337 334.497   6
  -4   7 -15 615.154 492.524  13
   4   7 -15 325.534 167.526  13
  -4   7 -15 566.773 290.664   3
  -7   4 -15 165.690 393.407  13
  -7   4 -15 650.681 442.181  12
  -4   7 -15 556.438 254.351  12
   4   7 -15 245.735 246.451  12
   7   4 -15 764.626 575.189   1
  -7   4 -15 514.968 429.736   3
  -4   7 -15 1004.41 257.565  11
   7   4 -15 959.787 510.935  11
  -7  -4  15 975.510 570.125   5
  -7   4 -15 522.276 411.124  20
  -4   7 -15 762.035 194.028  18
  -7   4 -15 490.197 341.589  10
  -4  -7  15 253.955 136.422   2
  -7   4 -15 353.375 224.255  19
   4   7 -15 801.379 259.740  18
   7   4 -15 627.339 1246.01  10
   7   4 -15 709.315 357.836  18
  -7  -4  15 1320.04 512.507   2
  -4  -7  15 581.089 344.723  17
   4  -7  15 623.056 221.738  17
   7  -4  15 828.943 314.440   8
  -4   7 -15 910.524 358.037   4
   7   4 -15 704.668 798.013   9
  -4  -7  15-73.3207 411.539  16
   4  -7  15 476.211 350.274  16
   7  -4  15 1318.00 527.931  16
  -7   4 -15 510.385 479.512   7
   4   7 -15 1019.45 374.585   7
  -7   4 -15 898.868 504.042  15
   4   7 -15 904.052 362.585  15
   7   4 -15 949.056 323.224   3
   7  -4  15 868.895 420.846  14
   4  -7  15 674.422 215.685  14
   4  -7  15 673.162 325.955   8
   7  -4  15 949.450 418.376   6
   4  -7  16 51.6595 112.643   6
   4   7 -16 295.474 144.156   3
  -4   7 -16 216.199 293.530  13
   4   7 -16 331.069 283.356  13
  -4   7 -16 177.330 145.794   3
  -7   4 -16-140.347 42.7770  13
  -7   4 -16 283.946 292.314  12
  -4   7 -16 310.919 211.425  12
   7   4 -16 388.173 187.899   3
   4   7 -16 274.869 112.167  12
  -7   4 -16 361.992 374.813   3
   4   7 -16 274.384 111.806  11
  -4   7 -16 398.386 173.750  11
   7   4 -16 190.829 194.881   1
   7   4 -16 404.281 303.389  11
  -7  -4  16 801.731 455.456   5
   7   4 -16-871.347 1480.55  20
   7   4 -16-371.760 266.024  10
  -7   4 -16-100.383 163.456  10
  -7   4 -16 135.804 121.624  19
  -4  -7  16 434.457 327.278  17
   7   4 -16-21.6976 351.357   9
   4   7 -16 478.180 282.064  18
  -4  -7  16 52.7825 134.348   2
  -7   4 -16-0.84187 170.492   9
   7   4 -16 195.275 194.743  18
  -4   7 -16 672.335 409.116   4
   7  -4  16 390.094 184.815   8
   4  -7  16 386.117 154.374  17
  -7  -4  16 369.402 288.225   2
  -7  -4  16 438.008 298.434  17
   4  -7  16 399.947 230.769   8
  -4  -7  16-109.989 183.790  16
   4  -7  16 542.199 394.915  16
   7  -4  16 774.835 419.484  16
  -7  -4  16 648.139 314.165  16
  -7   4 -16 65.6359 291.791   7
   4   7 -16 236.192 281.936   7
  -7   4 -16 36.9514 98.9504  15
   4   7 -16 74.8892 198.407  15
  -7   4 -16 29.0259 60.3508  20
   7  -4  16 274.136 170.370  14
   4  -7  16 350.048 151.719  14
   7  -4  16 234.221 206.343   6
  -4  -7  16-53.4586 224.793   6
   7  -5   2-168.932 383.406   8
   7  -5   3 53.5328 122.778  14
   7  -5   3 38.1401 11.1975   6
  -7   5  -3-92.0457 155.669  19
   7   5  -3-46.3931 136.755  18
  -7  -5   3 33.9696 100.713  17
   7   5  -3-355.296 249.287   8
   7  -5   3-121.457 230.244   8
   7  -5   4 13.0516 65.2282  14
   7   5  -4 86.5206 107.739  18
   7  -5   4 87.5360 150.200   6
  -7   5  -4 73.7815 63.3918  12
   7  -5   4 27.6667 56.9875   1
  -7   5  -4 94.2475 96.7464  19
  -7   5  -4 17.4695 115.766   5
   7   5  -4 104.098 82.7066   8
  -7  -5   4-27.4318 68.7208  17
   7  -5   4 52.9239 20.4363   8
  -7   5  -4-40.6041 122.988   4
   7  -5   5 63.4050 100.085  14
   7  -5   5 23.4999 76.8670   6
  -7   5  -5 108.158 125.705  12
  -7  -5   5-130.231 212.881  19
  -7   5  -5 48.6483 89.7809  19
   7   5  -5 96.3736 127.132   1
  -7   5  -5 35.0207 58.0438   5
   7   5  -5-37.2507 156.714  18
   7   5  -5 96.6266 150.725   8
  -7  -5   5 96.7712 188.799  17
   7  -5   5 56.2886 79.9379   8
  -7   5  -5 76.1000 43.8570   4
   7  -5   5 51.9484 46.8470   1
  -7   5  -5-269.813 576.749   3
   7  -5   6 192.762 131.429  14
   7   5  -6 140.432 27.1807  13
   7  -5   6 128.718 87.5696   6
  -7  -5   6-20.1060 137.515  19
  -7   5  -6 232.213 184.749  12
  -7   5  -6 223.656 157.455  19
  -7   5  -6 251.566 129.535   5
   7   5  -6 214.620 176.328  18
  -7  -5   6 137.667 125.727  17
   7  -5   6 122.547 113.911   8
   7   5  -6 89.0556 111.899   1
  -7   5  -6 186.577 124.578   4
   7   5  -6 151.146 103.703   8
   7  -5   6 193.714 119.425   1
  -7   5  -6 16.0310 37.2304   3
  -7   5  -7 53.2177 122.601   3
   7  -5   7 89.3543 122.590  14
   7  -5   7 63.0720 56.7958   1
   7   5  -7 48.8130 114.026  13
   7  -5   7 39.6837 78.4560   6
   5  -7   7 109.493 196.742   6
  -7   5  -7 8.95929 48.1894  12
  -7  -5   7-86.4562 198.412   2
  -7  -5   7-1.77050 64.1693  19
  -7   5  -7 58.4138 82.5574   5
  -7   5  -7 85.7202 80.0227  19
   5   7  -7-85.5049 135.399  18
   7   5  -7-8.02075 35.5410  18
   7   5  -7 13.8274 116.786   1
   7   5  -7 4.40313 18.3245   8
  -7  -5   7 24.6390 128.594  17
  -5  -7   7-23.0737 89.6273  17
   7  -5   7 36.7785 55.4261   8
  -7   5  -7 22.0379 32.9091   4
   7  -5   8 34.0874 49.4533  14
  -7  -5   8 60.3323 97.7794  19
  -7   5  -8 131.345 149.573   3
   5   7  -8-468.258 424.678  13
   7   5  -8 80.1903 42.7748  13
   7  -5   8 174.870 138.616   6
   5  -7   8 10.6161 79.9342   6
  -7   5  -8 195.672 149.969  12
  -5   7  -8 205.102 125.820  12
   7  -5   8 130.684 72.3764   1
  -7   5  -8 63.2692 55.6179   5
  -7  -5   8 17.4723 78.2541   2
  -7   5  -8 180.256 129.541  19
   7   5  -8 201.826 114.397   8
   5   7  -8 93.6511 110.888  18
   7   5  -8 125.985 139.300  18
  -5  -7   8 115.083 183.278  17
   7   5  -8 84.9754 249.338   1
  -7  -5   8 63.4482 169.957  17
   7  -5   8 58.5352 51.8331   8
  -7   5  -8 125.778 127.296   4
  -5   7  -8-21.2716 226.333   3
   7  -5   9 323.948 176.847  14
   5   7  -9 127.473 142.321  13
  -7   5  -9 390.589 284.261   3
   7   5  -9 242.543 186.483  13
   7  -5   9 258.209 180.726   6
   5  -7   9 240.679 200.785   6
  -5  -7   9-52.2453 135.525   6
  -7   5  -9 345.760 209.544  12
  -5   7  -9 388.089 203.857  12
  -7   5  -9 269.704 145.739   5
  -7  -5   9 122.387 97.6418  19
  -7  -5   9 69.8470 124.449   2
   5   7  -9 256.795 164.983  18
   7   5  -9 357.324 245.843  18
  -5  -7   9 111.327 180.462  17
   7   5  -9 395.264 141.493   8
  -7  -5   9 35.7942 129.630  17
   7   5  -9 142.694 162.240   1
   7  -5   9 222.486 104.803   8
  -7   5  -9 255.178 144.811   4
  -5   7  -9 370.782 127.196   4
   7  -5   9 259.098 108.225   1
  -7   5  -9 272.698 157.224  19
  -5   7  -9 193.818 202.974   3
  -5   7 -10 22.1356 77.8479   3
   5  -7  10 157.299 187.042  14
   5   7 -10 104.939 123.106  13
   7  -5  10 156.290 128.878   6
  -7   5 -10 85.6765 117.452   3
   7   5 -10 138.480 127.728  13
   5  -7  10 142.263 203.187   6
  -5  -7  10 84.2648 124.695   6
  -7   5 -10 150.965 149.162  12
  -5   7 -10 170.470 155.787  12
  -7   5 -10 124.029 51.8218  11
  -7   5 -10 166.865 122.010   5
  -7  -5  10 122.457 110.925  19
   7  -5  10 106.692 76.9203   1
  -7  -5  10 149.883 170.950   2
   5   7 -10 281.811 200.637  18
   7   5 -10 199.146 207.090  18
  -5  -7  10-94.4025 136.729  17
  -7  -5  10 69.2207 150.425  17
   7   5 -10 208.299 89.3251   8
   7  -5  10 192.963 158.685   8
  -7   5 -10 166.018 147.920   4
   7   5 -10 173.451 250.279   1
   7  -5  10-617.498 630.893  16
   5  -7  10-227.874 568.486   8
  -7   5 -10 49.9836 33.8679  19
  -5   7 -10 285.819 165.469   4
   7   5 -10-176.020 370.910   3
   7  -5  10 138.720 118.702  14
   5  -7  11-2.63177 62.1729  14
  -5   7 -11 54.3578 16.4195   3
  -7   5 -11-468.222 656.183  13
   7  -5  11 84.3808 142.516   6
   5   7 -11 107.156 139.640  13
   7   5 -11-15.5707 96.2838  13
   7  -5  11 39.5651 45.8679   1
  -7   5 -11 42.9523 109.266   3
  -5  -7  11-7.32581 63.5902   6
   5  -7  11-98.3595 125.744   6
  -7   5 -11 37.1458 65.1977  12
  -5   7 -11-17.3312 69.2083  12
   7   5 -11-38.5481 147.416  11
  -7   5 -11 10.1524 44.3769  11
  -7   5 -11 60.1315 47.3951   5
  -7  -5  11-4.95446 30.2007  19
  -7   5 -11 79.1697 81.6294  19
  -5   7 -11 66.4995 75.0141   5
  -5  -7  11-46.7967 64.5674  19
   5  -7  11-75.5716 143.268   1
   5   7 -11-7.33764 48.4841  18
  -7  -5  11-10.5066 23.0051   2
   7   5 -11 13.1721 89.5324  18
  -5  -7  11-121.325 181.802  17
  -7  -5  11-100.769 109.713  17
   5  -7  11-405.854 385.134   8
  -7   5 -11 58.1849 92.3974   4
   7  -5  11 79.7216 113.062   8
   7   5 -11 12.8706 22.1604   8
   7  -5  11-248.548 395.796  16
   7   5 -11-26.2032 169.746   1
  -5   7 -11-18.3266 32.9766   4
   7   5 -11-11.3426 118.345  20
   7   5 -11 28.5549 22.4863   3
   7  -5  11 14.6948 64.2535  14
   5  -7  11 36.0087 206.617  17
   5  -7  12 800.484 267.247  14
   7   5 -12 806.692 267.294   3
  -5   7 -12 979.777 425.958   3
   7  -5  12 995.035 346.941   6
  -7   5 -12 200.138 457.519  13
  -5  -7  12 191.036 109.550   6
   5   7 -12 887.496 369.040  13
   7   5 -12 979.797 335.875  13
   5  -7  12 531.759 297.506   6
  -7   5 -12 466.675 305.130   3
  -7   5 -12 408.997 239.991  12
  -5   7 -12 785.411 300.540  12
  -5   7 -12 1030.67 212.647   5
  -7   5 -12 808.348 183.061  11
   7   5 -12 1235.24 444.618  11
  -7   5 -12 736.214 328.287   5
   7   5 -12 1720.56 673.846  20
   5  -7  12 629.238 154.545   1
  -5  -7  12-323.549 380.807   2
  -7  -5  12 493.167 285.539   2
  -5  -7  12 329.984 153.295  19
  -7  -5  12 697.570 201.205  19
  -7   5 -12 638.235 241.138  19
  -5   7 -12 1015.13 272.425  18
   5   7 -12 894.418 384.528  18
   7  -5  12 907.308 295.240   8
  -5   7 -12 955.129 290.232   4
   7   5 -12 1091.24 397.175  18
   5  -7  12 760.665 283.870  17
  -5  -7  12 142.533 122.140  17
  -7  -5  12 470.370 326.811  17
  -7   5 -12 553.254 268.246   4
  -7  -5  12 341.475 128.380  16
   7  -5  12 1032.22 472.238  16
   5  -7  12 730.286 269.748   8
   7  -5  12 848.541 400.665   1
   7   5 -12 707.467 416.682   1
   5   7 -12 734.932 349.538   3
   7  -5  12 903.771 293.401  14
   5  -7  13-53.2353 83.7842  14
   7  -5  13-81.1335 141.901   6
  -5  -7  13-35.5087 107.883   6
   7   5 -13 60.8641 112.062   3
  -5   7 -13-20.7667 41.4328   3
  -7   5 -13 181.997 366.201  13
   5   7 -13 94.9100 148.433  13
   5  -7  13 7.11175 111.257   6
   7   5 -13 62.0823 106.566  13
  -7   5 -13 49.4663 93.3683   3
  -7   5 -13 30.8922 48.9828  12
  -5   7 -13 63.3070 140.328  12
   7   5 -13 89.4786 191.531  11
  -7   5 -13 62.2059 130.707   5
   7   5 -13 12.9307 189.073  20
  -7   5 -13-125.730 182.773  20
   7   5 -13 176.065 245.788  10
  -7   5 -13 278.008 195.643  10
  -5   7 -13 46.2982 46.6006   5
  -5  -7  13-527.313 323.270   2
  -7  -5  13-10.4826 51.8026  19
  -7   5 -13 49.0449 75.8385  19
   7  -5  13 19.4130 108.904   1
  -5   7 -13 6.73787 40.8447  18
   7   5 -13 11.0553 77.4598  18
  -7  -5  13 128.234 192.743   2
   5  -7  13 22.9303 31.6086  17
  -7   5 -13 146.401 214.356   4
  -5  -7  13 0.85720 49.3780  17
  -7  -5  13 179.349 205.145  17
   7  -5  13-25.7699 122.411   8
  -5   7 -13 19.1417 64.6076   4
   5  -7  13 53.8225 18.1035   8
  -7  -5  13-15.7262 59.8474  16
   7  -5  13 36.7971 114.892  16
   7   5 -13 274.896 373.564   1
   5   7 -13 132.281 164.370  18
   7  -5  13 25.1424 72.0439  14
   5   7 -13-24.3578 98.4172   3
  -5  -7  14 58.9095 235.031   6
   7  -5  14 1104.03 410.214   6
  -5   7 -14 818.872 759.900  13
   5  -7  14 656.187 323.501   6
  -5   7 -14 870.692 396.496   3
  -7   5 -14 70.9201 452.541  13
   5   7 -14 1114.89 405.122  13
  -7   5 -14 488.189 278.127   3
  -7   5 -14 408.580 235.832  12
  -7  -5  14 848.487 1220.36   5
  -5   7 -14 903.547 334.649  12
   7   5 -14 1899.38 710.815  11
  -7  -5  14 800.206 632.202   2
   7   5 -14 1023.19 1448.59  20
  -7   5 -14 857.181 297.306  10
   7   5 -14 1275.70 890.387  10
  -5  -7  14 9.16281 136.919   2
  -7   5 -14 1005.25 357.957   9
  -7   5 -14 687.546 280.110  19
  -5   7 -14 1347.86 439.615   4
   5   7 -14 1286.99 485.065  18
   5  -7  14 1027.30 385.535   8
   5  -7  14 925.141 220.877  17
   7   5 -14 1186.84 482.094  18
  -7   5 -14 686.801 396.704   4
  -5  -7  14 706.935 439.498  17
   7  -5  14 935.728 301.816   8
   5  -7  14 174.076 427.271  16
   7  -5  14 1345.86 537.706  16
  -7   5 -14 521.730 289.733  20
  -7   5 -14 721.732 437.470   7
   5   7 -14 1140.79 400.458   3
   5   7 -14 1522.75 456.559  15
  -7   5 -14 375.193 280.903  15
   7   5 -14 984.388 906.449   1
   7  -5  14 1046.79 319.283  14
   5  -7  14 895.923 261.037  14
   7  -5  15-43.0246 33.8251   6
   5   7 -15-55.4962 130.301   3
   5  -7  15 22.8515 53.1065   6
  -5   7 -15 733.676 709.672  13
  -7   5 -15 67.6999 148.140  13
  -5   7 -15 50.1171 121.928   3
   5   7 -15-102.998 110.264  13
   7   5 -15 466.145 314.017   3
   7   5 -15-66.0184 222.241  13
  -7   5 -15-86.6644 146.487  12
  -7   5 -15-229.443 229.824   3
  -5   7 -15-7.03321 50.8559  12
   5   7 -15-446.709 414.417  11
  -5   7 -15-29.9440 105.698  11
  -7  -5  15 1723.39 1189.36   5
   7   5 -15 103.837 282.719  11
  -7   5 -15-110.151 184.455  10
   7   5 -15 224.575 720.762  10
  -7   5 -15 26.2821 122.169   9
  -7   5 -15 25.9592 52.4061  19
  -5  -7  15 244.491 328.689   2
   5   7 -15 309.676 197.310  18
   7   5 -15-54.3377 159.102  18
  -7   5 -15-55.1561 171.876   4
  -7  -5  15 343.256 416.954   2
  -5  -7  15 126.950 142.237  17
  -5   7 -15-143.456 190.293   4
  -7  -5  15-378.388 217.810  17
   7  -5  15 65.9032 65.7854   8
   7   5 -15 1703.09 921.860   9
   5  -7  15 79.4214 96.8983   8
   5  -7  15-453.326 509.743  16
  -7  -5  15 1095.72 463.340  16
   7  -5  15-46.5737 248.757  16
   5   7 -15 269.121 358.142   7
  -7   5 -15 85.7792 177.700   7
   5   7 -15 173.773 229.209  15
  -7   5 -15-61.9687 204.307  20
  -7   5 -15 96.2102 133.196  15
   7   5 -15 272.654 432.266   1
   7  -5  15 89.6327 155.718  14
   5  -7  15-59.4500 105.038  14
  -5  -7  15-215.406 185.129   6
   5   7 -16 195.746 158.820  11
  -5   7 -16 257.710 149.487  11
  -7  -5  16 588.353 504.242   5
   7   5 -16 295.107 295.594  11
  -7   5 -16 310.021 281.676  10
  -7   5 -16 244.105 185.258  19
  -5  -7  16 248.174 323.379   2
   5   7 -16 361.569 268.755  18
   7   5 -16 35.6320 84.8230  18
  -7  -5  16 209.094 231.549   2
  -5   7 -16 40.2071 81.2879   4
  -5  -7  16 372.024 307.045  17
   7  -5  16 171.922 126.445   8
   5  -7  16 170.669 154.589   8
  -5  -7  16-341.885 274.076  16
  -7  -5  16 323.054 266.525  16
   7   5 -16 668.319 732.734  10
  -7   5 -16 90.7246 226.328   7
  -7   5 -16 123.642 208.129  15
   7   6  -4 10.2757 68.7991  18
  -7  -6   4 71.8564 140.967  17
   7  -6   5 66.3436 155.705   6
  -7   6  -5-27.7636 248.439  12
   7   6  -5 107.111 131.619  18
  -7  -6   5-73.4462 179.820  17
   7  -6   5-165.407 324.558   8
   7  -6   6 38.1251 120.784  14
   7  -6   6 28.9094 119.716   6
  -7   6  -6-24.1355 70.5819  12
   6   7  -6-74.7970 116.339  18
  -7   6  -6-203.191 261.503  19
  -7   6  -6-145.112 192.354   5
   7   6  -6 0.52849 69.5262  18
   7   6  -6-46.3931 153.560   8
  -6  -7   6 57.5129 103.106  17
  -7  -6   6 76.6607 212.815  17
   7  -6   6-113.865 175.329   8
  -7   6  -6-109.208 159.643   4
   7  -6   7 314.681 199.951  14
   7   6  -7 96.3162 264.154  13
   7  -6   7 361.531 261.239   6
   6  -7   7 122.620 167.846   6
  -7   6  -7 607.819 283.564  12
  -6   7  -7 339.507 153.342  12
  -7  -6   7-35.7940 184.650  19
  -7   6  -7 602.942 239.580  19
  -7   6  -7 604.731 231.648   5
   6   7  -7 204.101 136.894  18
  -6  -7   7 47.0661 47.8142  17
   7   6  -7 458.651 274.622  18
   7   6  -7 309.280 208.944   8
  -7  -6   7-178.204 258.142  17
   7  -6   7 301.270 191.722   8
  -7   6  -7 579.255 246.686   4
  -7   6  -7 552.539 330.718   3
   7  -6   7 322.647 174.607   1
   7  -6   8 30.6717 32.2081  14
   7   6  -8-52.8120 112.444  13
   7  -6   8 68.4732 108.286   6
   6  -7   8-2.75552 71.6327   6
  -7  -6   8 21.9751 39.3840   6
  -7   6  -8-19.2134 34.3646  12
  -6   7  -8-3.15369 43.6590  12
  -7   6  -8 29.9565 87.4686  19
  -7  -6   8-23.1965 99.8882  19
  -7   6  -8 32.9583 90.8438   5
   6   7  -8 23.2097 35.8119  18
   7   6  -8 35.7894 71.8539  18
   7   6  -8 29.3717 83.5320   8
  -7  -6   8 86.2980 188.273  17
  -6  -7   8 80.9332 174.008  17
   7  -6   8 11.3331 41.2346   8
  -7   6  -8 75.1161 92.6281   4
  -6   7  -8-163.966 248.359   4
   7  -6   8 9.48730 75.2328   1
  -6   7  -8-91.1803 297.300   3
  -7   6  -8-9.57734 91.5795   3
   7  -6   9 35.2817 84.2545  14
  -7   6  -9 57.8115 49.1618   3
   6  -7   9-70.0269 139.985  14
   6   7  -9-288.686 271.133  13
   7   6  -9 14.2451 60.1858  13
  -7  -6   9 4.45554 37.2402   6
   7  -6   9-61.2970 103.161   6
   6  -7   9 79.1511 136.204   6
  -6  -7   9-22.6258 53.1000   6
  -7   6  -9 107.254 95.4286  12
  -6   7  -9 65.5366 132.431  12
  -7  -6   9-239.191 319.010   2
  -7   6  -9 70.9406 101.043   5
   7   6  -9-281.422 358.061   1
  -7   6  -9-35.5978 97.3552  19
  -6   7  -9-75.7182 200.732   5
   6   7  -9-12.8135 41.1111  18
  -7  -6   9 124.721 259.710  17
  -7  -6   9 123.165 95.4097  19
   7   6  -9 49.2848 88.1317   8
   7   6  -9 58.4358 132.190  18
  -6  -7   9 43.7442 50.4714  17
   7  -6   9 28.4885 86.4077   8
   6  -7   9-445.629 428.034   8
  -7   6  -9 141.129 140.317   4
  -6   7  -9 127.675 161.400   4
   7  -6   9 62.5998 78.6272   1
  -6   7  -9-34.3886 120.903   3
   7  -6  10-5.21991 69.0011  14
  -7  -6  10 62.2997 83.9538   6
   6  -7  10 13.0776 74.9433  14
  -7   6 -10-112.866 152.106   3
   6   7 -10-28.2156 110.010  13
   7   6 -10 31.3761 167.035  13
   7  -6  10-34.9752 62.3960   6
   6  -7  10-94.4788 102.894   6
  -6  -7  10 61.4739 104.930   6
  -7   6 -10 25.3425 77.7615  12
  -6   7 -10-55.4584 115.320  12
   7  -6  10 17.2758 48.5610   1
   6  -7  10-28.3930 106.818   1
  -6  -7  10 161.461 165.218  19
  -7  -6  10-40.9407 97.9580  19
  -7   6 -10-33.3010 89.2744   5
  -7  -6  10-60.6332 214.982   2
  -7   6 -10 4.53254 105.617  19
   7   6 -10 143.077 153.769   1
   6   7 -10 26.4337 62.7560  18
   7   6 -10 1.37037 52.2434  18
   6   7 -10-73.7143 81.7532   8
   7  -6  10-32.4819 78.3522  17
  -6   7 -10-39.4312 82.4812   5
   7   6 -10-16.0964 26.1038   8
  -6  -7  10-106.637 200.296  17
  -7  -6  10 84.9432 114.857  17
   7  -6  10 67.7754 106.905   8
   6  -7  10-133.431 306.020   8
  -7   6 -10 20.8248 61.8103   4
  -6   7 -10 19.6649 6.15115   4
  -6   7 -10 54.2223 172.810   3
   6  -7  11 138.436 153.735  14
  -6   7 -11 253.868 241.913   3
  -7  -6  11 87.4041 54.8219  19
  -7   6 -11 188.165 220.071   3
   6   7 -11 28.7155 57.5680  13
   7   6 -11 46.5237 40.5730  13
   7  -6  11 82.9463 113.467   6
  -6  -7  11 66.2756 78.8055   6
   6  -7  11-11.2473 69.0642   6
  -7   6 -11 72.4016 137.461  12
  -6   7 -11 112.200 156.641  12
  -7   6 -11 149.146 65.3718   5
  -6  -7  11 69.0103 105.014  19
   7   6 -11 198.379 332.314   1
  -6   7 -11 194.081 130.710   5
  -7   6 -11 77.1050 104.298  19
  -7  -6  11-69.4085 124.404   2
   6   7 -11-83.3702 169.084  18
   7   6 -11 186.944 191.869  18
   6  -7  11 69.2075 80.9489   1
   6  -7  11 239.628 341.696  17
  -6  -7  11 22.4027 175.541  17
  -7  -6  11-101.354 148.811  17
   7  -6  11 48.3882 58.9600   1
   7  -6  11 77.0599 135.967   8
  -7   6 -11 86.4143 61.5103   4
   6  -7  11-17.1044 154.798   8
  -6   7 -11 194.073 159.015   4
  -7  -6  11-32.7324 29.9875   6
   7  -6  11 95.8913 79.0036  14
   6  -7  12 106.713 124.764  14
  -6   7 -12 27.3044 96.8397   3
  -6  -7  12 52.3847 91.4994   6
   7  -6  12 82.9214 89.6639   6
   6   7 -12 67.7626 111.034  13
  -7   6 -12 82.7882 136.244   3
   7   6 -12 51.6745 93.9080  13
   6  -7  12 107.757 186.931   6
  -7   6 -12 61.4064 106.507  12
  -6   7 -12 40.0350 63.9834  12
   7  -6  12 57.3519 79.0742   1
  -7   6 -12 106.222 128.158   5
  -6  -7  12-596.602 331.748   2
   6  -7  12 47.3526 58.4672   1
  -6  -7  12 49.4609 57.6172  19
  -6   7 -12-32.6681 96.7594   5
  -7  -6  12-0.62956 7.35027  19
  -7   6 -12 30.9684 85.7338  19
   6   7 -12 149.982 82.4884  18
   7   6 -12 130.247 135.833  18
   7   6 -12-300.028 362.284   1
  -6  -7  12-181.242 200.706  17
  -7  -6  12-92.8219 111.068  17
  -7   6 -12 54.5347 113.640   4
   7  -6  12 67.6206 39.2285   8
   6  -7  12 88.5059 105.834   8
  -6   7 -12 57.9863 108.465   4
  -7  -6  12-73.9649 166.259   2
   7   6 -12 21.4919 176.665   3
   7  -6  12 91.6023 114.871  14
   6  -7  13 631.363 219.223  14
  -6  -7  13-53.0459 255.938   6
   7   6 -13 1425.76 593.495  13
  -7   6 -13-459.466 870.529  13
  -6   7 -13 616.534 346.337   3
   7  -6  13 619.548 309.993   6
   6   7 -13 764.299 354.639  13
   6  -7  13 467.713 308.825   6
  -7   6 -13 635.700 361.621   3
  -7   6 -13 471.810 248.960  12
  -6   7 -13 532.747 262.526  12
  -7  -6  13 617.587 236.068  19
   7   6 -13 243.852 218.227  11
  -7   6 -13 658.775 290.435   5
  -6   7 -13 769.869 233.222   5
  -6  -7  13-494.499 461.164   2
  -7   6 -13 739.469 292.911  19
  -6   7 -13 480.139 107.906  19
  -7  -6  13 598.093 484.396   2
   6   7 -13 879.928 402.998  18
   7   6 -13 982.976 436.386  18
   7   6 -13 336.541 573.708   1
  -6  -7  13 554.849 393.250  17
  -7  -6  13 946.923 483.742  17
  -7   6 -13 558.976 280.338   4
   7  -6  13 779.166 287.376   8
  -6   7 -13 687.895 284.433   4
   6  -7  13 643.187 289.190   8
   7  -6  13-78.2059 486.530  16
   7   6 -13-113.288 173.313  20
   6   7 -13 442.975 222.588   3
   7  -6  13 654.164 248.245  14
   7   6 -14 12.1395 134.812   3
   7  -6  14 37.3314 97.7699   6
  -6   7 -14-548.657 799.123  13
  -7   6 -14-52.7564 223.949  13
   6  -7  14-64.2971 95.3978   6
  -6   7 -14-25.6196 58.4361   3
   6   7 -14-145.923 158.779  13
   7   6 -14 130.580 252.384  13
  -7   6 -14-41.2421 170.401   3
  -7   6 -14-54.1273 49.2842  12
  -6   7 -14 20.3261 95.1088  12
  -6   7 -14-158.711 262.665  19
   7   6 -14-325.233 256.914  11
   7   6 -14 1116.13 535.853  20
  -7   6 -14-11.4068 79.3357  19
  -7  -6  14 230.384 332.497   2
   6   7 -14 108.511 156.454  18
   7   6 -14 181.238 277.377  18
  -6  -7  14-38.4341 123.345  17
  -7   6 -14-33.7531 108.444   4
   7   6 -14 303.313 337.158   1
  -7  -6  14 172.720 345.595  17
  -6   7 -14-102.592 78.0516   4
   7  -6  14-28.5361 60.8521   8
   6  -7  14-17.0723 84.3205   8
   7  -6  14-69.3520 458.516  16
  -6  -7  14-181.190 217.499   2
   7  -6  14-37.2570 28.0692  14
   6   7 -14-21.9917 26.6951   3
   6  -7  14 69.3119 103.618  14
   6   7 -15 91.9087 62.3574  11
   7   6 -15 479.332 352.412  11
  -7   6 -15 293.573 234.425  10
   7   6 -15 595.908 424.835  10
   6   7 -15 296.022 214.363  18
   7   6 -15 661.610 356.855  18
  -7   6 -15 387.356 323.779   4
  -6   7 -15 417.349 321.819   4
   7  -6  15 476.546 268.996   8
   6  -7  15 436.193 256.787   8
   7   7  -5-94.4114 130.215  18
  -7  -7   5 24.6075 104.667  17
   7   7  -6 299.264 172.862  18
  -7  -7   6 1.30852 83.2876  17
   7  -7   7 105.999 149.691   6
  -7   7  -7-391.847 245.023  12
   7   7  -7-34.6427 92.7103  18
  -7  -7   7 150.085 194.774  17
  -7   7  -7-200.297 275.461   4
   7  -7   8 483.092 311.654  14
   7  -7   8 293.883 216.542   6
  -7   7  -8 779.984 333.481  12
  -7   7  -8 1131.49 341.259   5
   7   7  -8 522.257 273.014  18
   7   7  -8-47.8903 184.568   8
  -7  -7   8 18.2504 129.468  17
   7  -7   8-95.9482 311.710   8
  -7   7  -8 992.437 361.359   4
  -7   7  -8 303.981 221.734   3
   7  -7   9-24.4076 30.5674  14
   7   7  -9-269.309 322.641  13
   7  -7   9 131.166 197.013   6
  -7  -7   9 0.22234 38.3516   6
  -7   7  -9 107.837 169.644  12
  -7  -7   9 77.2280 133.355  19
   7   7  -9 96.0386 181.345  18
   7   7  -9 30.9077 50.7294   8
  -7  -7   9 35.2099 86.5251  17
   7  -7   9-221.043 328.672   8
  -7   7  -9-60.6020 96.1872   5
  -7   7  -9 25.6833 55.5550   4
   7  -7   9 54.0239 127.269   1
  -7   7  -9-31.8455 75.0828   3
   7  -7  10 97.1173 82.4221  14
   7   7 -10-36.9603 164.380  13
  -7  -7  10-3.68168 29.4547   6
   7  -7  10 91.0231 119.328   6
  -7   7 -10 59.1311 96.2357  12
  -7   7 -10 161.242 152.854   5
   7   7 -10 6.47961 135.303  18
   7  -7  10 153.609 100.446   1
  -7  -7  10 64.1027 206.462  17
   7  -7  10-77.5580 177.728   8
  -7   7 -10 150.612 98.7243   4
  -7  -7  10-31.2248 103.259  19
  -7   7 -10 44.0948 224.850   3
   7  -7  11-2.29528 33.1680  14
  -7   7 -11-125.296 148.770   3
   7   7 -11 123.714 193.405  13
  -7  -7  11-274.590 256.436  17
   7  -7  11-30.5292 67.2235   6
  -7   7 -11-18.6510 58.8235  12
  -7  -7  11-82.6254 116.980  19
  -7   7 -11-28.4109 102.431   5
  -7   7 -11-257.470 375.190  19
   7   7 -11 18.1512 99.1377  18
   7  -7  11-11.3264 36.3267   1
   7  -7  11 58.4919 75.1544   8
  -7   7 -11 87.8192 140.127   4
   7  -7  12 86.1962 103.995  14
  -7   7 -12 2.11346 119.160   3
   7   7 -12 144.615 143.722  13
   7  -7  12 16.1577 148.257   6
  -7   7 -12 136.943 103.379  12
  -7   7 -12 41.8936 37.4745   5
  -7  -7  12 88.9616 61.5893  19
  -7   7 -12-59.3356 205.736  19
   7   7 -12 18.0514 67.6109  18
  -7  -7  12 212.013 216.093  17
   7  -7  12 19.5773 38.0443   8
  -7   7 -12 184.904 160.483   4
  -7   7 -13 117.143 188.797   3
   7  -7  13-52.2028 155.770   6
   7   7 -13-83.0130 141.336  13
  -7   7 -13 5.38254 11.1485  12
  -7  -7  13-346.637 372.606   2
  -7  -7  13 140.992 207.062  17
  -7   7 -13-89.9779 221.593  19
   7   7 -13-162.941 247.026  18
  -7   7 -13-51.3219 51.4525   4
   7  -7  13-2.85625 29.5552   8
   7  -7  13 9.26990 31.6250  14
   8   0   0 292.548 135.649   6
  -8   0   0 156.399 87.6617  12
   8   0   0 505.852 211.986  11
  -8   0   0 246.031 184.831   5
   8   0   0 218.617 160.447   1
   8   0   0 288.848 139.831  18
  -8   0   0 200.298 104.444   2
   8   0   0 266.318 151.561   8
  -8   0   0 276.139 150.376  17
  -8   0   0 196.275 142.620   4
  -8   0   0 191.168 123.346  19
  -8   0   0 214.493 107.670  15
  -8   0   0-78.5132 189.329   3
   8   0   0 220.592 148.782  14
   8   0   1-16.7902 70.8631   6
   8   0  -1 24.6166 43.9260   6
  -8   0  -1 0.34448 48.5290   3
   8   0  -1-14.3934 11.0962  13
  -8   0  -1-16.8865 49.5704  12
  -8   0   1-23.1452 58.8033  12
   8   0   1 4.29461 12.7963   1
   8   0   1-52.8151 5.97778  11
   8   0  -1 5.60734 120.003  11
  -8   0   1 45.3907 104.830   5
  -8   0  -1-55.0275 63.3601  19
  -8   0   1 10.6162 24.9752  19
   8   0  -1 11.9548 42.8350   1
  -8   0  -1 37.4102 45.8035   2
   8   0   1-11.4498 51.5162  18
   8   0  -1 8.35078 40.1154  18
  -8   0  -1-15.8342 15.5289  17
  -8   0   1 46.8010 63.7893   2
   8   0   1-14.9891 62.3605   8
  -8   0  -1-3.58905 66.2456   4
   8   0  -1 10.8364 12.2333   8
  -8   0   1 81.2074 132.718  17
  -8   0   1 12.9188 44.6092   4
  -8   0  -1-82.6823 96.5977   5
  -8   0  -1 65.0306 95.5862   7
  -8   0  -1 23.1185 85.7963  15
   8   0   1-51.9794 103.310  14
   8   0  -1-54.2909 23.9924  14
   8   0   2 744.408 238.900   6
   8   0   2 756.486 285.284   1
  -8   0  -2 375.944 189.771  12
  -8   0  -2 278.599 129.516   3
  -8   0   2 507.800 224.545  12
   8   0   2 1206.60 238.596  11
   8   0  -2 874.332 284.414  11
  -8   0  -2 293.504 158.951   5
  -8   0   2 532.971 218.886   5
  -8   0  -2 529.985 258.594  19
  -8   0   2 585.764 216.198  19
   8   0   2 950.500 222.981  18
   8   0  -2 645.821 205.435   8
   8   0   2 697.417 241.874   8
   8   0  -2 881.306 271.625  18
  -8   0  -2 446.067 224.269   4
  -8   0  -2 386.484 144.784  17
   8   0  -2 648.638 242.478   1
  -8   0   2 517.654 225.603  17
  -8   0   2 481.179 148.878   2
  -8   0   2 491.352 207.987   4
  -8   0  -2 375.593 208.508   7
   8   0  -2 871.952 192.179   6
  -8   0  -2 419.859 188.038  15
   8   0   2 767.795 299.846  14
   8   0  -2 720.877 258.199  14
   8   0  -3-68.1553 50.8428   6
   8   0   3-19.9259 28.0818  11
  -8   0  -3-42.1022 118.826   5
   8   0  -3-245.193 225.585  11
  -8   0  -3 31.8733 28.6332  19
  -8   0   3-55.1482 113.536  19
   8   0   3-39.8621 45.1351   8
   8   0   3 17.4598 35.4956  18
   8   0  -3-102.152 120.972  18
  -8   0  -3-9.68693 147.398   4
  -8   0  -3 10.6044 33.6842  17
  -8   0   3-60.2775 78.5214  17
   8   0  -3-57.3565 83.4354   8
  -8   0   3-45.8535 78.3870   4
  -8   0   3-90.9336 92.2842   5
   8   0   3-69.2204 60.8724  16
  -8   0   3-79.7243 62.7669   2
  -8   0  -3 14.9483 56.1105   7
   8   0  -3-172.870 121.547   1
  -8   0  -3-27.2417 52.9126  15
   8   0   3-35.4457 94.1954  14
   8   0  -3-71.5641 111.281  14
   8   0   3-51.3056 63.7005   6
   8   0   3-53.9293 100.962   1
   8   0  -4 172.474 75.8629   6
  -8   0   4 180.743 174.104   5
   8   0   4 244.028 89.5644  11
  -8   0  -4 3.50045 92.4164   5
   8   0  -4-48.4506 220.112  11
  -8   0  -4 65.7631 115.088  19
  -8   0   4 221.141 158.639  19
   8   0   4 175.692 96.2166  18
   8   0  -4 193.604 210.604  18
  -8   0  -4-35.3110 142.766   4
   8   0   4 146.823 124.375   8
  -8   0  -4 167.514 114.278  17
  -8   0   4 209.734 198.973  17
   8   0  -4 222.541 128.383   8
  -8   0   4 137.436 94.8007   4
   8   0   4 277.059 91.3085  16
  -8   0  -4 93.3167 213.829   7
  -8   0   4 190.216 114.564   2
   8   0   4-7.45166 175.293   1
  -8   0  -4 148.023 167.677  15
   8   0   4 41.5867 49.7231  14
   8   0   4 228.957 202.358   6
   8   0  -4 311.816 167.301   1
   8   0  -4 266.216 193.769  14
   8   0  -5 161.454 66.7421   6
   8   0  -5 159.724 148.777   1
  -8   0  -5 259.156 314.235   5
   8   0  -5 890.844 321.673  11
  -8   0  -5 224.715 184.127  19
  -8   0   5-18.6210 59.9877   5
   8   0   5 162.943 112.249  18
  -8   0   5-67.7042 67.5133  19
   8   0  -5 261.327 234.616  18
  -8   0  -5 172.206 241.855   4
   8   0   5 183.651 205.948   8
  -8   0  -5 189.215 134.996  17
  -8   0   5-13.9066 60.2941  17
   8   0  -5 132.921 78.4617   8
   8   0   5 355.682 256.190   1
  -8   0   5-4.41476 55.0958   4
  -8   0  -5 65.7640 151.554   7
   8   0   5 174.315 150.390  16
  -8   0   5 23.4466 32.3254  16
  -8   0  -5-46.8149 179.227  15
  -8   0   5-36.4742 66.2434   2
   8   0   5 237.163 222.814  14
   8   0   5 96.4278 200.045   6
   8   0  -5 284.537 169.398  14
   8   0  -6 292.317 96.7394   6
   8   0  -6 209.406 127.374   1
   8   0  -6 221.609 311.557  11
  -8   0  -6-187.139 206.872  19
  -8   0   6 141.866 97.0491   5
  -8   0   6 229.269 142.509  19
   8   0   6 386.375 154.622  18
  -8   0  -6-235.098 286.946   4
   8   0  -6 334.970 224.671  18
   8   0   6 217.147 243.980   1
   8   0   6 270.665 155.238   8
  -8   0  -6-124.285 96.6425  17
  -8   0   6 178.737 117.327  17
   8   0  -6 342.320 199.155   8
  -8   0   6 359.784 170.321   4
   8   0   6 421.064 190.372  16
  -8   0   6 264.305 117.117  16
  -8   0   6 292.380 149.937   2
   8   0   6 370.140 258.832  14
   8   0   6 208.506 184.841   6
   8   0  -6 132.063 165.452  14
   8   0  -7-195.816 137.291   6
   8   0  -7 66.7448 131.975  11
   8   0  -7 57.4100 98.7526   1
  -8   0   7 26.0209 58.0776   5
  -8   0   7 66.0115 85.7517  19
   8   0   7-134.286 253.114   1
   8   0   7 12.2211 26.1329  18
   8   0  -7-13.9269 121.260  18
   8   0   7-30.7808 72.8131   8
  -8   0  -7 113.673 91.7952  17
  -8   0   7 9.08579 39.2853  17
  -8   0  -7 5.24601 53.6040  19
  -8   0   7-12.3177 32.5935   4
   8   0   7-5.36827 15.1725  16
  -8   0   7-10.1851 22.4114  16
  -8   0   7 2.64361 53.7338   2
   8   0   7-66.2449 109.221  14
   8   0   7-85.7398 178.401   6
   8   0  -7 81.9227 129.777  14
   8   0  -8 66.7554 199.898  11
  -8   0  -8 45.1891 146.212  19
  -8   0   8 13.6764 64.9529  19
   8   0   8 133.312 76.1140  18
   8   0  -8 54.9804 148.413   1
   8   0  -8 41.4594 63.5929  18
   8   0   8-52.2310 86.6415   8
  -8   0  -8 97.9283 134.574  17
  -8   0   8 73.3904 125.508  17
  -8   0   8 39.2757 59.5724   4
   8   0   8-16.4121 104.290  16
  -8   0   8 78.3267 107.665  16
  -8   0   8 132.047 125.410   5
   8   0   8 257.018 222.575  14
   8   0   8-91.8381 144.837   6
  -8   0   8-131.943 141.877   2
   8   0  -8 13.1647 37.8672  14
   8   0  -9 74.0469 180.255  11
  -8   0  -9-49.6753 52.9418  19
  -8   0   9-33.0766 72.1580   5
   8   0  -9 71.0626 108.539  18
   8   0   9 79.4345 146.997   8
  -8   0  -9 64.7833 85.5179  17
  -8   0   9-202.379 242.949  19
   8   0  -9 20.0612 83.0256   1
  -8   0   9 41.1338 109.728  17
   8   0   9-31.4670 39.6970  16
  -8   0   9-1.83824 19.9963   4
  -8   0   9 111.655 145.657  16
   8   0   9-17.1771 88.8113  14
   8   0   9 74.7590 117.753   6
  -8   0   9-181.348 139.031   2
   8   0  -9-39.0687 68.1268  14
   8   0 -10 224.105 137.531  14
   0  -8  10 202.901 208.251   6
   8   0 -10 219.626 204.179  11
  -8   0 -10 28.9341 180.201  19
   8   0 -10 105.494 116.074  18
   8   0  10 197.610 203.803   8
  -8   0  10 373.889 222.278   5
  -8   0  10 367.919 229.666  17
   8   0 -10 292.359 199.513   1
   8   0  10 236.524 107.256  16
  -8   0  10 279.344 173.134   4
  -8   0  10 340.840 239.182  16
   8   0  10 305.131 286.174   6
   0   8 -10 174.812 170.807   3
  -8   0  10 416.862 241.492   2
   8   0 -11-79.2516 92.2418  14
  -8   0  11-42.0129 79.4298   2
   0  -8  11 115.959 191.246   6
   8   0 -11 120.719 197.233  11
  -8   0 -11 245.145 245.144  19
   0   8 -11-242.837 257.041  18
   8   0 -11 99.2551 122.252  18
   8   0  11-29.1887 184.231   8
   0  -8  11-77.8986 189.437  17
  -8   0  11-20.5977 84.8807  17
   8   0  11 127.922 196.298  16
  -8   0  11-61.8195 105.809   4
  -8   0  11 145.743 172.768  16
   8   0  11 76.0696 195.967   6
  -8   0  11 20.9764 78.1808   5
   8   0 -11 105.965 180.047   1
   0   8 -11-11.9833 123.629   3
   8   0 -12 855.941 311.868  14
   8   0 -12 912.857 400.272   1
   0   8 -12 1122.02 583.723  13
   0  -8  12 421.544 311.294   6
  -8   0  12 1862.01 503.153   5
   8   0 -12 146.456 113.801  11
  -8   0 -12-40.7545 194.011  19
   0   8 -12 1616.43 557.695  18
  -8   0  12 1415.45 474.056   2
  -8   0  12 1574.28 380.707   4
   8   0 -12 438.449 218.244  18
   8   0  12 1263.69 492.526   8
   0  -8  12 108.532 141.696  17
  -8   0  12 1390.61 519.891  17
   8   0  12 1425.19 494.266  16
  -8   0  12 1037.54 432.186  16
   0   8 -12 1367.54 455.422   3
   8   0  12 939.481 411.378   6
   8   0 -13-20.7902 67.8999  14
   0   8 -13 13.9386 11.4477   3
  -8   0  13-143.096 214.738   2
   0   8 -13 120.822 243.086  13
   0  -8  13-10.5108 13.5949   6
   8   0 -13 65.7964 195.550   1
  -8   0 -13 54.2662 231.282  19
   0   8 -13-79.4012 156.130  12
   8   0 -13-341.338 436.865  11
  -8   0  13-64.5793 133.980   5
   0   8 -13 29.7282 208.778  18
   8   0 -13-234.810 338.832  18
   8   0  13-20.7688 85.1457   8
   0  -8  13 119.372 247.617  17
  -8   0  13-75.6443 140.031  17
   8   0  13-110.354 172.543  16
  -8   0  13-111.847 137.373  16
   8   0  13-302.065 367.207   6
   8   0 -14 620.592 270.975  14
  -8   0  14 1412.25 497.040   2
   0   8 -14 1260.06 422.502   3
   0   8 -14 1144.09 599.021  13
   0  -8  14 642.616 327.609   6
   0   8 -14 1690.64 533.007  18
   0   8 -14 1320.08 377.646  12
   8   0 -14 440.763 300.972   1
  -8   0  14 2195.22 611.109   5
   8   0 -14-273.456 488.374  11
  -8   0 -14 354.524 327.741  19
   8   0 -14-115.003 388.078  18
   8   0  14 1212.66 519.527   8
   0  -8  14 599.144 359.438  17
  -8   0  14 1345.34 501.528  17
   8   0  14 1282.49 506.973  16
  -8   0  14 1004.04 447.668  16
   8   0  14 773.641 35.5314   6
   8   0 -15 75.0164 158.526  14
  -8   0  15 66.3501 183.960   2
   0   8 -15-83.5333 133.231   3
   0   8 -15 193.277 361.820  13
   0  -8  15 77.6303 184.974   6
   0   8 -15 11.7680 136.237  12
   8   0 -15 54.1222 183.553   1
   8   0 -15-539.961 632.491  11
  -8   0 -15-127.906 170.558  19
  -8   0  15 195.313 230.058   5
   0   8 -15 91.2741 192.060  18
   8   0  15 37.5119 151.480   8
   0  -8  15-45.0422 39.8867  17
  -8   0  15-206.675 340.008  17
   8   0  15 69.4195 152.956  16
   8   0  15-728.628 736.102   6
   8   0 -16 99.4969 142.785  14
  -8   0  16 590.510 379.572   2
   0   8 -16 277.231 217.859   3
   0  -8  16 199.160 184.725   6
   0   8 -16 78.0113 50.8295  13
   0   8 -16 254.252 168.801  12
   8   0 -16 433.170 331.398   1
   8   0  16 122.010 100.842   8
   0  -8  16 177.599 193.975  17
  -8   0  16-137.117 365.254  17
   0  -8  16-234.300 424.347  16
   0   8 -16 324.285 185.121  18
  -8   0 -16 0.51141 114.249  19
   8   0  16 209.123 223.154  16
   8   1   0 250.343 183.889   1
   8  -1   0 201.733 92.6237   6
  -8  -1   0-7.08924 32.3412   3
  -8  -1   0 273.841 156.333  12
  -8   1   0 134.562 103.775  12
   8   1   0 213.477 68.7762  11
  -8  -1   0 83.1221 118.638   5
   8  -1   0-343.252 371.788  11
  -8   1   0 196.907 125.175   5
  -8  -1   0-16.7731 136.762   2
   8   1   0 219.187 105.379  18
   8  -1   0 270.327 171.677  18
  -8  -1   0-22.8820 123.472   4
   8   1   0 157.011 92.8249   8
  -8  -1   0 23.9208 102.729  17
   8  -1   0 170.181 107.889   8
   8   1   0 381.128 156.608   9
  -8   1   0 142.922 138.770  17
  -8  -1   0-11.9465 75.0555  19
  -8   1   0 127.759 85.8588   4
  -8   1   0 145.299 72.2403   2
   8  -1   0 103.583 73.4227   1
  -8   1   0 188.170 118.371  19
   8   1   0 140.374 125.869  14
   8   1   0 85.1436 85.1922   6
   8  -1   0 114.341 83.3019  14
   8   1  -1-79.7340 243.395  13
  -8   1  -1 739.446 247.946  12
  -8  -1   1 499.764 155.355  12
   8   1  -1 865.331 318.133   1
  -8   1   1 708.949 279.053  12
  -8   1   1 816.475 261.237   5
   8   1  -1 1463.40 317.148  11
  -8   1  -1 637.607 140.908   2
  -8  -1  -1 442.059 237.797   5
   8  -1   1 728.929 236.459   1
  -8   1   1 720.163 172.336   2
   8  -1  -1 829.503 264.083   1
  -8  -1   1 442.369 202.078   5
  -8   1  -1 751.343 159.550  20
   8  -1   1 285.960 240.845  11
   8  -1  -1 105.099 163.597  11
  -8   1   1 800.776 249.095  19
  -8   1  -1 680.057 233.741   5
  -8  -1  -1 397.269 224.993  19
  -8   1  -1 705.989 238.372  19
   8   1  -1 1342.27 317.114   9
   8   1   1 1232.24 297.065  18
   8  -1   1 1200.50 342.312  18
  -8  -1   1 476.736 169.370   2
   8   1  -1 1048.85 281.700   8
  -8   1  -1 745.854 258.687   4
   8  -1   1 790.288 231.616   8
  -8   1   1 786.420 250.731   4
   8  -1  -1 940.274 253.834   8
   8   1  -1 1191.45 303.931  18
   8  -1  -1 1063.00 355.612  18
  -8  -1   1 456.620 189.831  19
  -8  -1  -1 420.174 225.475   4
  -8  -1   1 450.467 238.126   4
  -8  -1  -1 331.124 152.255  17
  -8  -1   1 538.300 233.108  17
   8   1   1 1083.27 326.824   8
  -8   1  -1 475.623 218.312  17
  -8   1   1 697.742 317.302  17
  -8  -1   1 144.250 63.6657   7
  -8  -1   1 273.115 39.8465  15
   8  -1   1 916.225 224.600   6
   8  -1  -1 901.637 209.767   6
   8  -1   1 884.543 276.199  14
   8   1   1 733.514 326.037  14
  -8   1  -1 91.4736 178.201   3
   8   1   1 760.363 280.419   6
   8   1  -1 898.800 348.440  14
   8   1   1 935.745 360.511   1
   8   1  -1 854.446 283.155   6
   8  -1  -1 792.519 264.544  14
  -8   1  -2-97.0225 163.343   3
   8  -1   2-1.22760 47.8574   6
   8   1  -2 81.5051 66.7355  13
   8  -1  -2 61.0211 37.0602   6
  -8   1  -2-5.85363 94.6703  12
  -8  -1   2-36.9219 58.8140  12
   8  -1  -2 36.8102 61.3773   1
   8   1  -2 89.0466 92.3972  11
  -8  -1  -2-26.2334 23.4792   5
   8   1  -2 8.67441 44.6874   1
   8  -1   2-490.187 445.347  11
  -8  -1   2 24.4454 55.1680   5
  -8   1  -2 80.0775 75.5152  20
  -8   1  -2 49.9424 34.5601   5
  -8   1   2 25.3971 70.7918   5
  -8  -1   2 121.166 144.773  19
  -8   1  -2-50.8748 56.1562  19
  -8   1   2 38.3463 19.0872  19
   8   1  -2 80.6165 71.4542   9
   8  -1   2 12.1834 70.8633   1
   8   1   2 63.6393 35.5086  18
   8   1  -2 59.4726 62.5400  18
  -8   1  -2 76.2323 63.8435   2
   8  -1   2 89.9081 94.1291  18
  -8  -1   2 127.316 104.805   2
   8  -1  -2 84.8462 122.866  18
  -8  -1  -2-9.88171 48.9501   4
   8   1   2-51.9926 124.196   8
  -8  -1  -2-2.86982 70.5673  17
  -8  -1   2 30.5291 74.1535   4
   8   1  -2 135.955 108.951   8
  -8  -1   2 182.427 158.650  17
   8  -1   2 69.4609 63.2091   8
  -8   1  -2-83.0754 107.716  17
  -8   1  -2 84.3503 51.7864   4
  -8   1   2-25.4430 101.222  17
   8  -1  -2 25.1780 29.2466   8
  -8   1   2 63.5881 69.8394   4
   8  -1  -2-591.578 507.400  11
  -8  -1   2 94.2307 154.280   7
   8   1   2 73.2783 51.4982  16
   8   1   2 12.7626 143.737   1
  -8  -1   2-45.9083 51.9992  15
  -8   1   2 47.6445 53.4519   2
   8   1   2-65.4943 151.652   6
   8   1   2-84.2733 151.896  14
  -8  -1  -2 7.56787 137.910  19
   8   1  -2 112.201 110.964  14
   8   1  -2 131.582 124.911   6
   8  -1   2 41.1505 57.1171  14
   8  -1  -2 98.8540 101.181  14
   8  -1   3 348.739 163.516   6
   8   1  -3 428.930 165.510  13
  -8   1  -3 122.133 86.2602   3
   8  -1  -3 294.102 120.101   6
  -8   1  -3 120.135 118.959  12
  -8  -1   3 350.595 298.835  12
  -8  -1  -3-89.7037 273.197   5
   8   1  -3 522.033 309.994  11
  -8  -1   3 480.531 221.154   2
   8  -1   3 284.658 157.994   1
   8  -1   3-462.553 466.263  11
   8  -1  -3-526.723 471.415  11
  -8   1  -3 199.214 142.745   5
  -8  -1   3 519.490 296.333   5
  -8   1  -3 142.471 69.4042  20
  -8  -1   3 701.509 334.878  19
  -8   1  -3-77.3563 173.012   2
   8   1  -3 380.240 276.335   1
  -8  -1  -3 34.4992 112.697  19
   8  -1  -3 324.344 176.179   1
  -8   1   3 356.261 176.798   5
  -8   1  -3 201.883 149.228  19
  -8   1   3 273.776 147.168  19
   8   1  -3 1805.92 655.060   9
   8   1   3 339.804 155.728  18
   8   1  -3 606.253 233.416   8
   8   1  -3 502.907 229.635  18
   8  -1   3 473.537 174.507  18
  -8  -1  -3-5.09439 18.6596   4
   8  -1  -3 211.342 155.659  18
  -8  -1   3 696.082 346.497  17
   8   1   3 331.917 227.389   8
  -8  -1  -3 9.51391 47.6330  17
   8  -1   3 285.077 148.493   8
  -8  -1   3 396.489 233.312   4
  -8   1  -3 89.1319 48.7772   4
  -8   1  -3 129.713 105.734  17
  -8   1   3 176.846 142.041  17
   8  -1  -3 320.860 147.408   8
   8   1   3 159.212 192.196   1
  -8   1   3 359.143 181.308   4
  -8  -1   3 237.372 186.586   7
   8   1   3 293.959 107.793  16
  -8  -1   3 565.156 214.555  15
   8   1   3 277.714 285.224   6
   8   1   3 311.761 259.316  14
  -8   1   3 295.013 128.782   2
   8   1  -3 291.947 288.683  14
   8  -1   3 299.316 128.683  14
   8   1  -3 402.373 188.526   6
   8  -1  -3 222.701 143.384  14
   8  -1  -4 99.3773 120.064  14
  -8   1   4 200.127 129.063   2
   8  -1   4 313.620 211.243   6
   8  -1   4 339.102 290.497   1
  -8   1  -4 296.436 286.268  12
  -8   1  -4 145.700 232.137   3
   8  -1  -4 202.897 104.771   6
   8   1  -4 1226.32 423.178   1
  -8   1  -4 139.469 213.121   5
   8  -1  -4-927.258 526.325  11
  -8   1  -4 64.2102 275.133  20
  -8   1   4 195.819 170.067   5
  -8   1   4 319.919 173.484  19
   8   1   4 455.862 304.188  18
   8   1  -4 927.232 397.874  18
   8   1  -4 631.262 271.690   8
  -8  -1  -4 102.477 302.170  19
   8  -1   4 245.507 205.655  18
   8  -1  -4 179.389 201.361  18
   8   1   4 294.037 261.909   8
   8   1   4 149.802 366.739   1
  -8  -1  -4 180.519 194.250  17
   8  -1  -4 317.732 166.797   1
   8  -1   4 218.934 176.320   8
  -8   1  -4 202.666 238.544  19
  -8   1  -4 46.0827 170.168   4
  -8   1  -4 606.118 269.155  17
  -8   1   4 164.707 282.321  17
   8  -1  -4 190.918 133.876   8
   8  -1   4 248.823 307.403  16
  -8   1   4 177.397 129.064   4
  -8  -1   4 31.2726 225.795   7
   8   1   4 205.886 193.614  16
  -8   1  -4 25.4295 162.595   7
   8   1  -4 195.540 239.727   6
  -8   1  -4 131.078 162.908  15
   8   1   4 310.484 505.177   6
   8   1   4 334.742 429.547  14
   8  -1   4 175.300 184.356  14
   8  -1  -5 169.658 134.111  14
   8  -1   5 157.739 186.160   1
  -8   1   5 114.358 118.886   2
   8   1   5-75.6027 296.893   1
  -8   1  -5 729.565 397.416  12
  -8   1  -5 270.126 279.586  19
   8  -1  -5 106.165 48.0624   6
  -8   1  -5 467.198 227.787   3
  -8   1  -5 292.690 239.938   5
  -8   1  -5 1193.92 670.315  20
   8  -1  -5 95.9326 466.705  11
  -8  -1  -5 161.395 123.464  19
   8   1   5 105.564 104.658  18
  -8   1   5 200.412 175.267   5
  -8   1   5 107.101 95.3675  19
   8  -1   5 243.033 137.105  18
   8  -1  -5 337.851 184.099  18
   8   1   5 90.8458 301.597   8
  -8  -1  -5-109.529 150.034  17
  -8   1  -5 522.367 245.428   4
   8  -1   5 305.187 167.804   8
  -8   1  -5 499.606 211.034  17
  -8   1   5 158.565 221.288  17
   8  -1  -5 68.5838 103.227   8
   8  -1   5 246.406 168.714  16
  -8   1   5 10.4221 41.9502   4
  -8   1  -5 193.133 228.171   7
   8   1   5 136.144 93.8643  16
   8  -1  -5 70.1903 133.424   1
  -8   1  -5 149.810 170.522  15
   8   1   5 221.257 289.744   6
   8   1   5 535.439 535.437  14
   8  -1   5 187.732 179.615  14
   8  -1   6 40.5350 58.4180   6
   8  -1  -6-7.46103 67.7953  14
   8   1  -6 41.4752 35.2776   6
  -8   1   6 248.064 140.676   2
   8  -1  -6 96.2556 140.419   1
  -8   1   6 88.6929 83.9814  19
  -8   1  -6 33.5606 137.697   5
   8   1  -6 182.677 323.004  11
  -8   1  -6-1031.64 537.957  20
  -8  -1   6 190.142 246.870   5
  -8   1   6 179.612 158.526   5
  -8  -1  -6-129.053 212.733  19
  -8   1  -6-51.6903 114.691  19
  -8  -1   6 165.297 195.613  19
   8   1  -6-302.420 706.342   9
   8   1   6 21.5925 92.6439  18
   8  -1   6 139.756 88.1429  18
   8   1  -6 139.051 239.050  18
   8  -1  -6-372.267 242.744  18
   8   1   6 176.122 260.690   8
  -8  -1  -6-90.9998 121.129  17
  -8   1  -6-79.1593 91.6503   4
   8  -1   6 83.6567 98.6843   8
  -8   1  -6-41.8898 52.9884  17
  -8  -1   6 216.372 265.152  17
  -8   1   6 82.0193 149.303  17
   8   1  -6 196.855 157.755   8
  -8  -1   6 70.1534 138.303   4
   8   1  -6 143.323 141.987   1
  -8  -1   6 150.558 167.321   2
   8  -1   6 150.255 142.333  16
  -8  -1   6 42.5812 52.5717  16
  -8   1  -6 66.8896 142.335   7
  -8   1   6 180.715 111.885   4
   8   1   6 111.790 172.948  16
   8  -1   6 69.5234 98.9720   1
  -8   1  -6 101.080 112.353  15
   8   1   6 108.206 232.569   6
   8   1   6 167.293 298.816  14
   8  -1   6 164.100 133.596  14
   8   1  -6 281.348 206.502  14
   8  -1  -7 95.6602 119.967  14
  -8   1   7 158.102 117.680   2
   8   1  -7 140.606 50.0674   6
  -8   1  -7-14.4199 40.4860  13
  -8   1  -7-109.317 166.042   5
   8  -1  -7 128.425 161.579   1
   8   1  -7 215.227 196.729  11
  -8   1  -7-610.111 467.222  20
  -8  -1  -7 101.228 173.628  19
  -8   1  -7 64.9489 120.791  19
  -8   1   7 173.441 163.591   5
  -8   1   7 71.0451 55.7053  19
   8   1  -7-921.932 700.932   9
   8  -1   7 258.744 98.9049  18
   8   1  -7 150.658 135.489  18
   8  -1  -7-453.641 273.337  18
   8   1   7-168.039 226.024   8
  -8   1  -7 21.1523 100.031   4
  -8  -1   7 242.623 162.247   5
   8  -1   7 206.778 159.466   8
  -8  -1   7 66.7366 75.4758  19
  -8   1  -7 68.7904 66.2969  17
  -8  -1   7 159.631 126.236  17
   8  -1   7 252.057 214.710   1
  -8   1   7 357.678 263.703  17
   8   1  -7 207.940 117.053   8
  -8  -1   7 77.8901 67.1375   4
   8  -1   7 256.958 169.086  16
  -8  -1   7 118.888 60.9346  16
  -8  -1   7 122.400 92.3438   2
  -8   1  -7 139.860 161.316   7
   8   1  -7 52.1909 107.721   1
   8   1   7 80.8514 34.4597  16
  -8   1   7 136.231 89.2903   4
  -8   1  -7 90.4261 66.5059  15
   8   1   7-81.6545 285.652   6
   8  -1   7 203.554 161.241  14
   8   1  -7 170.790 145.528  14
   8  -1   7 268.661 182.197   6
   8  -1  -8 251.835 211.976  14
  -8   1   8 453.816 263.333   2
   8  -1  -8 260.575 224.891   1
   8   1  -8 528.759 307.217  11
  -8  -1  -8 18.4747 76.9950  19
  -8  -1   8 524.617 241.090   5
  -8   1  -8 131.514 172.231  19
  -8  -1   8 472.890 203.361  19
  -8   1   8 430.902 258.850   5
   8  -1   8 521.352 123.591  18
   8  -1   8 499.227 343.700   1
   8   1  -8 533.898 258.783  18
  -8   1  -8 102.738 20.8412   4
   8   1   8 346.702 285.541   8
   8  -1  -8-396.692 366.623  18
   8  -1   8 497.733 261.361   8
  -8   1  -8 58.2913 39.1565  17
  -8  -1   8 281.277 181.709  17
  -8   1   8 294.797 250.187  17
  -8  -1   8 471.266 176.886   4
   8   1  -8 259.829 69.9058   8
   8  -1   8 682.166 287.860  16
  -8   1  -8 58.1190 61.4326   7
  -8  -1   8 421.439 141.738  16
  -8  -1   8 263.430 157.768   2
   8   1   8 582.099 328.828  16
  -8   1   8 217.100 117.867   4
  -8   1  -8 8.93261 35.6436  15
   8   1  -8 286.075 68.6217   6
   8   1   8 50.3259 271.635   6
   8   1  -8 240.737 192.444   1
   8  -1   8 498.242 253.784  14
   8   1  -8 375.104 204.922  14
   8  -1   8 517.325 263.599   6
   8  -1  -9 104.628 133.761  14
  -8   1  -9 144.075 170.355  19
   8   1  -9 185.456 164.090   1
  -8   1   9 149.445 137.205   2
   8   1  -9 61.0324 10.9365   6
   8   1  -9 103.453 114.426  11
  -8  -1  -9 23.7782 36.3414  19
  -8  -1   9 197.738 142.833   5
  -8  -1   9 176.272 149.564  19
  -8   1   9 179.596 176.003   5
   8  -1   9 273.637 83.2763  18
   8   1  -9 101.775 116.717  18
   8   1   9 133.740 181.446   8
   8  -1  -9-536.610 435.345  18
   8  -1   9 185.290 180.736   8
  -8   1  -9 46.5447 40.1637  17
  -8  -1   9 231.284 196.800  17
   8  -1  -9 14.4901 86.4367   1
  -8   1   9 20.2733 118.255  17
  -8  -1   9 166.815 109.818   4
  -8   1  -9-114.137 263.724   7
   8  -1   9 258.356 144.046  16
  -8  -1   9 216.198 107.685  16
   8   1   9 233.862 209.704  16
  -8  -1   9 178.407 143.156   2
  -8   1  -9-77.2233 185.113  15
   8   1   9-212.205 435.017   6
   8  -1   9 290.733 259.798  14
   8  -1   9 351.645 239.871   6
   8   1  -9 190.452 157.069  14
   8  -1 -10 188.712 190.601  14
   1   8 -10-394.674 665.803  13
  -8   1  10 370.495 247.500   2
   8   1 -10 304.982 213.812   1
   1  -8  10-22.3084 77.2277   6
  -1  -8  10 43.3400 127.442   6
   8   1 -10 255.873 214.915  11
  -8  -1 -10-218.196 302.996  19
  -8   1 -10-99.6991 169.405  19
  -8  -1  10 217.893 120.256   5
  -8  -1  10 193.630 114.374  19
  -8   1  10 277.257 236.864   5
   8   1 -10 294.529 214.280  18
   8   1  10 248.640 183.365   8
   8  -1  10 469.976 272.042   8
  -8  -1  10 165.919 145.625  17
  -8   1  10 134.093 68.6688  17
  -8  -1  10 293.466 176.337   4
   8  -1  10 471.110 254.600  16
  -8  -1  10 200.556 125.926  16
   8   1  10 314.600 210.756  16
  -8  -1  10 258.033 166.335   2
   8   1  10-167.017 467.983   6
   8  -1 -10 203.309 245.480   1
   8  -1  10 340.198 248.800  14
  -1   8 -10 132.810 75.0791   3
   8  -1  10 276.595 213.294   6
   8   1 -10 279.932 195.492  14
   8  -1 -11 525.097 321.841  14
   1   8 -11 720.683 238.489  13
   8  -1 -11 882.790 427.342   1
  -8   1  11 864.314 381.332   2
   1  -8  11-0.16881 70.6213   6
  -8  -1 -11-130.757 266.787  19
  -1  -8  11 201.586 229.931   6
   8   1 -11 530.934 263.559   1
   8   1 -11 520.505 348.816  11
  -8   1 -11 110.218 137.367  19
  -8  -1  11 856.154 319.130   5
  -8   1  11 1233.34 474.764   5
  -8  -1  11 858.812 271.251   4
   8   1 -11 397.568 237.660  18
   8   1  11 786.180 457.189   8
  -1  -8  11 113.775 197.632  17
   8  -1  11 1024.12 373.986   8
  -8  -1  11 769.153 338.115  17
  -8   1  11 410.556 186.893  17
   8  -1  11 1301.03 442.078  16
  -8  -1  11 748.183 277.921  16
   8   1  11 724.314 396.745  16
  -8  -1  11 658.371 293.360   2
   1   8 -11 594.993 267.501  18
   8  -1  11 827.825 385.006  14
   8  -1  11 920.789 361.739   6
   1   8 -11 686.643 301.545   3
  -1   8 -11 761.685 372.095   3
   8   1 -11 557.018 252.482  14
  -1   8 -12-63.5251 326.965  13
   1   8 -12 491.739 346.868  13
   1  -8  12 196.315 180.292   6
  -1  -8  12 186.775 251.101   6
  -8  -1  12 258.583 151.091   5
  -1   8 -12 245.298 88.9081  12
   8   1 -12 203.374 193.112   1
   8   1 -12 130.433 72.9788  11
   8  -1  12 343.972 103.636   2
  -8  -1 -12-403.110 361.879  19
  -8   1 -12 23.1410 105.047  19
  -1   8 -12 530.917 327.671  18
   1   8 -12 651.612 327.040  18
   8   1  12 637.195 425.506   8
   8   1 -12 164.204 182.269  18
   1  -8  12-34.9967 126.815  17
   8  -1  12 454.196 272.253   8
  -1  -8  12 115.983 284.219  17
  -8  -1  12 377.924 267.238  17
  -8  -1  12 405.795 184.746   4
   8  -1  12 395.626 270.486  16
  -8  -1  12 292.871 177.776  16
   8   1  12 289.063 272.631  16
  -8  -1  12 178.345 163.797   2
   8  -1  12 473.533 297.547  14
   8  -1  12 294.426 255.803   6
   1   8 -12 357.083 229.537   3
   8   1 -12 285.044 198.933  14
  -1   8 -12 225.801 187.720   3
  -1   8 -13 1148.50 608.079  13
   1   8 -13 1292.56 560.106  13
  -1  -8  13 523.306 278.425   6
   1  -8  13 660.772 340.504   6
  -1   8 -13 1409.40 398.652  12
  -8  -1  13 1890.80 519.991   5
  -8  -1  13 1552.60 477.543   2
   8   1 -13 607.293 375.457  11
   8  -1  13 1706.11 246.398   2
   8   1 -13 1039.19 416.465   1
  -8   1 -13 85.7207 220.723  19
  -1   8 -13 2350.92 698.081  18
   1   8 -13 2119.01 640.276  18
   8  -1  13 1801.66 570.025   8
  -8  -1  13 1742.99 404.994   4
   8   1  13 1357.48 626.775   8
   8   1 -13 915.034 387.478  18
  -8  -1  13 1681.26 551.725  17
   1  -8  13 496.548 385.612  17
  -1  -8  13 305.301 320.711  17
  -8  -1 -13-389.011 557.646  19
   8  -1  13 1850.08 551.474  16
  -8  -1  13 1477.62 438.639  16
   8   1  13 1192.43 506.616  16
   1   8 -13 1444.89 468.676   3
  -1   8 -13 1261.47 445.840   3
   8  -1  13 1651.29 540.532   6
   8   1 -13 750.046 274.717  14
   8  -1  14 187.934 97.8636   2
   1   8 -14 166.553 187.031   3
  -1   8 -14 45.2533 27.8329   3
  -1   8 -14 201.604 273.011  13
   1   8 -14 204.013 253.318  13
  -1  -8  14 84.7821 119.000   6
   1  -8  14-39.3671 65.4087   6
  -1   8 -14 178.221 132.885  12
   1   8 -14 78.6389 128.210  12
  -8  -1  14 268.172 244.329   5
   8   1 -14 124.873 74.3592  11
  -8   1 -14-107.553 231.756  19
   8   1 -14 33.9427 98.3273   1
  -1   8 -14 264.725 240.546  18
   1   8 -14 54.7134 100.852  18
   8   1  14 398.965 420.002   8
   8   1 -14 51.0569 137.625  18
   8  -1  14 158.669 250.736   8
  -1  -8  14 109.250 203.870  17
  -8  -1  14 154.135 180.807  17
   1  -8  14-28.3734 242.536  17
  -1   8 -14 128.500 85.8968   4
   8  -1  14 295.105 254.240  16
  -8  -1  14 122.491 108.506   4
  -8  -1  14 130.792 135.153  16
  -8  -1  14 77.4954 190.366   2
   8  -1  14 197.714 279.525   6
   8   1 -14 135.128 158.312  14
   1  -8  15 593.266 201.798  14
   1   8 -15 976.027 392.562   3
  -1   8 -15 1177.49 428.648   3
  -1   8 -15 1282.14 666.970  13
  -1  -8  15 615.193 347.953   6
   1   8 -15 729.142 386.111  13
   1  -8  15 658.881 370.667   6
  -1   8 -15 1160.06 354.035  12
   1   8 -15 1050.64 341.479  12
  -8  -1  15 1748.03 502.752   5
   8   1 -15 475.751 345.061  11
  -8   1 -15-48.9751 96.2709  19
   8   1 -15 510.159 305.482   1
  -1   8 -15 1438.21 448.616  18
   1   8 -15 1719.71 507.302  18
  -8  -1  15 1432.86 388.454   4
   1  -8  15 572.802 353.237  17
  -1  -8  15 633.572 382.930  17
   8  -1  15 1325.85 527.549   8
  -8  -1  15 1214.16 489.122  17
   8   1 -15 384.471 242.020  18
   8  -1  15 1432.24 551.025  16
  -8  -1  15 1147.82 416.716  16
  -8  -1  15 1474.15 484.829   2
   8  -1  15 1401.17 616.581   6
   8   1 -15 291.060 185.683  14
   1   8 -16 218.857 212.876   3
  -1  -8  16 177.453 230.080   6
  -1   8 -16 115.648 170.513   3
   1  -8  16 40.0139 193.488   6
  -1   8 -16-172.089 337.492  13
   1   8 -16 29.4432 154.867  13
  -1   8 -16 186.800 135.449  12
   1   8 -16 238.135 184.113  12
   8   1 -16-45.7258 172.060  11
  -8   1 -16 28.1376 178.926  19
  -8  -1  16 251.255 186.216   5
   8   1 -16 45.9590 91.8491   1
  -1   8 -16 139.177 119.294  18
   1   8 -16 257.316 175.121  18
   8   1 -16-249.905 283.706  18
   8  -1  16 84.2656 176.094   8
   1  -8  16 145.595 236.971  17
  -1  -8  16 56.9022 62.3500  17
  -8  -1  16 54.7856 102.108  17
  -1  -8  16-465.698 433.262  16
   1  -8  16-434.211 548.273  16
   8  -1  16 120.121 247.124  16
  -8  -1  16 101.567 136.231  16
  -8  -1  16 197.899 136.639   4
   8  -1  16 29.1383 110.366   6
  -8  -1  16 243.135 226.195   2
   8   1 -16 100.625 74.9710  14
  -8   2   0 2563.83 617.712  12
   8   2   0 2727.20 656.370   1
  -8   2   0 2571.67 445.819   5
  -8  -2   0 534.354 226.841   5
   8  -2   0 2469.35 447.549   1
  -8   2   0 2228.76 301.076   2
  -8  -2   0 662.775 351.106  19
  -8   2   0 2371.47 422.951  19
   8   2   0 3491.28 592.381  18
   8   2   0 2965.10 599.041   8
   8  -2   0 2218.39 402.478   8
  -8   2   0 2595.19 447.599   4
  -8  -2   0 618.985 295.047  17
   8  -2   0 2626.33 388.915   6
   8   2   0 1980.58 611.850  14
   8  -2   0 2559.60 471.538  14
   8  -2  -1 440.584 181.068  14
  -8   2   1 569.913 176.046   2
   8  -2   1 499.085 177.193   6
   8  -2  -1 479.002 169.811   6
  -8   2  -1 466.935 229.948  12
  -8   2  -1 370.724 136.834   5
  -8  -2   1 387.286 298.552  19
   8  -2   1 475.677 184.746   1
  -8  -2   1 407.570 317.767   5
  -8  -2  -1 37.6792 171.100  19
  -8   2  -1 470.373 185.358  19
  -8   2   1 505.938 188.947  19
   8   2   1 627.914 203.717  18
   8   2  -1 692.771 237.055  18
  -8  -2   1 13.0678 116.245   4
   8   2   1 467.246 231.194   8
   8   2  -1 597.289 227.456   8
  -8   2  -1 406.024 107.857   2
  -8  -2  -1-27.2222 60.1057  17
  -8  -2   1 234.497 189.610  17
   8   2   1 539.258 346.265   1
   8  -2   1 401.212 158.377   8
   8  -2  -1 406.970 166.624   8
  -8   2   1 645.022 233.576   5
   8  -2  -1 492.011 204.264   1
  -8   2  -1 531.305 201.651   4
  -8   2   1 508.020 198.789   4
   8   2  -1 798.081 315.786   1
   8   2   1 379.437 332.828  14
   8   2  -1 363.145 302.318  14
   8  -2   1 546.737 213.652  14
   8   2  -2-343.109 274.233  13
   8  -2  -2 777.899 270.314   1
  -8  -2   2 921.697 569.153   5
  -8   2  -2 719.657 263.575  12
  -8   2  -2 826.660 253.264   5
  -8   2   2 889.769 269.790   5
   8   2  -2 1323.94 350.377   8
  -8  -2   2 798.342 406.846  17
  -8   2  -2 646.461 119.387   2
   8  -2   2 860.703 252.613   1
  -8   2   2 1008.22 275.405   2
  -8   2  -2 756.241 241.974  19
  -8   2   2 790.604 251.037  19
  -8  -2   2 647.206 407.110  19
  -8  -2   2 374.963 284.367   2
   8   2  -2 1360.71 383.135  18
  -8  -2   2 771.159 506.676   4
   8   2   2 1051.25 363.175  18
   8  -2   2 678.311 221.869   8
   8  -2  -2 715.662 248.617   8
  -8   2   2 808.755 255.367   4
   8   2   2 1050.43 406.825   8
   8   2   2 940.728 525.015   1
  -8  -2  -2 106.698 155.995  17
  -8   2  -2 609.367 210.335   4
   8  -2   2 870.760 235.704   6
   8  -2  -2 730.422 244.732   6
   8  -2  -2 857.283 282.652  14
   8   2   2 829.967 530.836  14
  -8   2  -2-33.5585 397.782   3
   8  -2   2 767.913 259.668  14
   8  -2  -3 381.893 224.187  14
  -8   2  -3 403.200 437.318   3
   8  -2   3 87.7043 112.613   6
  -8   2   3-1.30343 75.4183   2
  -8   2  -3 255.793 264.871  12
   8  -2  -3 109.407 136.085   6
  -8  -2   3 327.549 533.772   5
   8   2  -3-461.844 355.924  11
  -8  -2   3 576.702 477.840  19
   8  -2  -3 231.948 218.326   1
  -8   2  -3 170.128 175.487   5
  -8  -2  -3 157.704 279.537  19
  -8   2  -3 251.547 177.595  19
  -8   2   3 70.8521 67.6598   5
  -8  -2   3 462.916 603.453   4
   8   2   3 157.622 216.914   1
   8   2   3-21.9152 52.4435  18
   8   2   3 173.342 265.934   8
  -8  -2   3 1111.01 539.955  17
  -8  -2  -3 245.021 235.214  17
  -8   2   3 82.5074 78.4351  19
  -8   2  -3 41.7914 49.8723   2
   8  -2   3 73.3467 83.3074   8
  -8   2  -3 97.3343 130.451   4
   8  -2   3 62.6550 71.5922   1
   8  -2  -3 47.0230 52.0119   8
  -8   2   3 43.7248 41.1926   4
   8  -2   3 68.3024 45.9256  14
   8  -2  -4 181.557 160.001  14
   8  -2   4 307.434 123.188   6
  -8   2  -4 355.487 226.238   3
  -8   2   4 362.617 187.065   2
  -8   2  -4 410.354 210.708  12
  -8   2  -4 366.718 186.447   5
  -8   2  -4 200.362 87.3857   2
  -8   2   4 253.746 157.714  19
  -8   2   4 208.607 156.347   5
   8   2   4 584.074 256.182  18
   8  -2   4 303.654 157.530   1
   8   2   4 1106.75 509.737   8
  -8  -2  -4 124.397 203.029  17
  -8  -2  -4 247.009 223.613  19
   8  -2   4 290.256 146.666   8
  -8   2  -4 258.615 163.637   4
   8  -2  -4 192.962 147.662   1
   8  -2  -4-53.7909 255.642   8
  -8   2  -4 442.606 151.787  10
  -8   2  -4 307.720 172.207  19
  -8   2   4 181.499 61.1707   4
   8  -2   4 259.492 141.343  14
   8  -2  -5 315.968 150.628  14
   8   2  -5 354.625 270.291  13
   8  -2   5 408.294 175.641   6
   8  -2  -5 365.835 197.911   1
  -8   2  -5 237.167 214.128   3
  -8   2  -5 302.956 229.509  12
  -8   2   5 477.506 225.233   2
   8   2  -5-8.97793 295.483  11
   8   2  -5 370.679 399.718   1
  -8  -2   5 92.0646 193.635   5
   8  -2   5 369.792 156.919   1
  -8   2  -5 383.535 203.416   5
  -8   2  -5 557.331 169.068  10
  -8  -2  -5-323.262 377.488  19
  -8  -2   5 189.867 295.182  19
  -8   2  -5 241.301 172.139  19
  -8   2  -5 47.7236 88.8710  20
  -8   2   5 397.554 200.746  19
  -8   2   5 394.260 235.441   5
   8   2  -5 71.5614 249.780  18
   8   2   5 505.670 377.861   8
  -8  -2   5 136.767 242.588   2
  -8  -2   5 399.546 344.422   4
  -8  -2   5 181.852 200.582  17
   8  -2   5 282.284 152.290   8
  -8   2  -5 385.960 214.973   4
   8   2  -5 546.982 619.477  14
   8  -2   5 366.293 157.612  14
   8  -2  -6 69.0577 129.264  14
   8  -2   6 169.231 131.592   6
  -8  -2  -6-284.764 358.771  19
   8   2  -6 139.142 104.996  13
   8  -2   6 119.680 123.282   1
  -8   2  -6 129.599 124.062   3
  -8   2  -6 23.9414 41.9229  12
  -8   2   6 65.7874 54.1847   2
   8   2  -6 8.06279 48.6191   1
   8   2  -6 116.914 85.0076  11
  -8   2  -6 54.5638 67.0183   5
  -8  -2   6 0.95263 48.4743   5
  -8   2  -6-50.9075 116.981  20
   8   2  -6-270.167 348.866  10
   8  -2  -6 200.411 185.168   1
  -8   2  -6 18.5152 46.3856  19
  -8  -2   6 84.1478 81.7969  19
   8   2  -6 120.102 153.873   9
  -8   2   6 124.917 104.779   5
   8   2  -6 130.613 152.187  18
   8   2   6-45.7215 225.535   8
  -8   2  -6 81.5349 96.3767  10
  -8  -2   6 69.9345 84.9462   2
  -8  -2   6 106.660 98.4217   4
   8  -2   6 172.902 140.005   8
  -8   2  -6 113.047 111.850   4
  -8  -2   6 58.0458 43.9816  17
   8   2  -6 172.444 97.7813   8
   8  -2   6 157.286 111.019  16
   8   2  -6 63.9099 112.524  14
   8  -2   6 146.158 135.981  14
   8  -2  -7 338.172 238.270  14
   8  -2   7 796.823 274.217   6
  -8   2  -7 482.381 240.682  12
  -8   2  -7 396.285 220.953   3
   8   2  -7 944.501 348.775  11
  -8   2  -7 541.114 234.802   5
  -8   2  -7 743.346 261.162  20
  -8   2  -7 430.740 186.533  10
   8   2  -7 920.927 505.727  10
  -8   2  -7 471.845 212.685  19
  -8  -2   7 505.016 264.340   5
  -8  -2   7 564.435 220.549  19
   8   2  -7 1234.21 482.508   9
  -8   2   7 909.449 323.178   5
   8   2  -7 810.408 225.210   8
   8   2  -7 962.552 325.503  18
   8   2   7 473.783 274.115   8
  -8  -2  -7-138.975 271.688  19
  -8   2  -7 481.336 258.912   4
   8  -2   7 908.564 286.223   8
  -8  -2   7 477.755 229.547   4
  -8  -2   7 548.730 239.699  17
  -8  -2   7 465.654 208.502   2
  -8  -2   7 563.454 147.543  16
   8  -2  -7 629.704 291.529   1
   8  -2   7 1312.95 395.072  16
  -8   2  -7 478.026 231.865   7
  -8   2  -7 602.945 251.081  15
   8   2  -7 601.408 325.631  14
   8  -2   7 773.860 290.822  14
   8  -2   7 1014.24 361.167   1
   8   2  -7 591.927 313.810   1
   8  -2   8 46.0649 110.796   6
  -8  -2   8 37.5147 65.2603  19
  -8   2  -8-2.10057 60.1602  13
   8   2  -8 14.1797 26.5027   3
  -8   2  -8 29.3319 109.961  12
  -8   2  -8 77.8555 155.044   3
   8   2  -8 103.404 133.334  11
  -8   2  -8 78.1363 161.730   5
  -8   2  -8 107.296 118.954  20
  -8  -2   8 34.1917 47.8825   5
  -8   2  -8 154.891 173.100  10
   8   2  -8 582.207 557.075  10
  -8   2  -8-3.14327 81.7699  19
   8   2  -8 226.231 171.415   9
   8   2  -8-37.1093 94.3060   1
   8   2  -8 46.5367 13.3294  18
   8   2   8 92.8334 210.775   8
  -8   2  -8 5.08709 110.504   4
   8  -2   8 33.2671 69.4895   8
  -8  -2   8-10.9766 99.8862   4
  -8  -2   8-46.2413 114.900  17
  -8  -2   8 20.7613 65.8102   2
   8   2  -8-2.09199 51.1204   8
  -8  -2   8 51.8535 50.6999  16
   8  -2   8 93.3541 107.180  16
   8  -2   8 45.9097 107.172   1
  -8   2  -8 57.7455 105.379   7
  -8   2  -8 131.327 133.772  15
   8   2  -8 140.052 115.803  14
   8  -2   8-14.2845 52.0955  14
   8  -2   9 858.355 322.514   6
  -8   2  -9 63.8584 107.544  13
  -8   2  -9 69.9588 251.477   5
   8   2  -9 923.516 361.340  11
  -8   2  -9 522.648 267.151  20
  -8  -2   9 549.564 232.915   5
  -8  -2   9 585.547 229.247  19
  -8   2  -9 232.820 148.714  10
   8   2  -9 1299.04 758.128  10
  -8   2  -9 247.128 167.039  19
   8   2  -9 987.376 320.071   8
   8   2  -9 815.649 305.001  18
   8   2   9 613.369 384.271   8
   8   2  -9 736.887 283.774   1
  -8   2  -9 290.510 185.317   4
   8  -2   9 773.414 458.542   1
   8  -2   9 833.625 307.807   8
   8   2  -9 1077.25 508.964   9
  -8  -2   9 684.081 316.549  17
  -8  -2   9 682.615 263.511   4
  -8  -2   9 608.777 243.030   2
   8  -2   9 1392.53 420.805  16
  -8  -2   9 742.490 195.641  16
  -8   2  -9 385.582 225.317   7
  -8   2  -9 456.205 231.489  15
   8   2  -9 769.439 154.807   3
   8  -2   9 853.828 316.850  14
   8   2  -9 770.829 369.404  14
   2   8 -10-361.625 475.512  13
  -8   2 -10 158.445 95.9206  13
   2  -8  10 114.264 177.376   6
  -2  -8  10 210.701 237.169   6
   8   2 -10 865.747 398.215  11
  -8  -2  10 471.926 254.560   5
  -8   2 -10-192.655 359.017  10
   8   2 -10-423.411 881.807  10
  -8   2 -10 286.529 214.663  19
   8  -2  10 106.668 149.131   1
   8   2 -10 768.109 477.904   9
   2   8 -10 268.256 154.162  18
  -8   2 -10 114.343 114.398  20
  -8  -2  10 405.043 209.134  19
   8   2 -10 434.642 231.575  18
   8   2  10 456.689 460.213   8
  -8   2 -10 322.272 255.809   4
  -2  -8  10 32.0105 130.611  17
   8   2 -10 477.136 253.993   1
   8  -2  10 673.834 289.303   8
  -8  -2  10 411.978 242.034  17
  -8  -2  10 580.496 233.066   4
  -8  -2  10 462.351 210.116   2
   8  -2  10 795.763 314.208  16
  -8  -2  10 433.902 156.649  16
  -8   2 -10 249.001 226.782   7
  -8   2 -10 293.561 241.940  15
   8  -2  10 620.967 290.237  14
   8   2 -10 429.952 280.292  14
  -2   8 -10 504.102 258.367   3
   8  -2  10 554.454 295.760   6
   2   8 -11 453.655 242.578  13
  -8   2 -11 396.331 247.671  13
   2  -8  11 208.077 120.846   6
   8   2 -11-1160.74 1639.28  10
  -2  -8  11 95.3130 173.304   6
  -2   8 -11 522.778 233.501  12
   8   2 -11 704.229 336.928  11
  -8   2 -11-9.63068 165.277  20
  -8  -2  11 658.996 295.513   5
  -8   2 -11 194.683 155.039  19
  -8   2 -11-685.970 646.972  10
  -8  -2  11 410.142 248.897  19
   8   2 -11 1084.77 553.940   9
   2   8 -11 607.009 283.899  18
   8   2 -11 676.244 332.834  18
   8  -2  11 1099.48 378.760   8
  -8  -2  11 769.454 335.193  17
   8   2 -11 694.583 326.976   1
  -8  -2  11 615.248 244.073   4
  -8  -2  11 652.908 286.032   2
   8  -2  11 1156.51 397.965  16
  -8  -2  11 670.839 218.443  16
  -8   2 -11 326.371 159.715   7
  -8   2 -11 187.946 70.2015  15
   8  -2  11 727.346 337.348  14
   2   8 -11 493.876 171.967   3
   8   2 -11 539.577 293.078  14
  -2   8 -11 648.218 332.671   3
   8  -2  11 837.622 349.134   6
  -2   8 -12 262.304 478.076  13
   2   8 -12 1302.59 587.788  13
   2  -8  12 552.922 302.199   6
  -2  -8  12 273.434 268.846   6
  -2   8 -12 1325.58 385.898  12
  -8  -2  12 1484.00 455.202   5
   8   2 -12 1213.19 434.140  11
  -8  -2  12 1187.06 397.142   2
  -8   2 -12-516.569 468.220  20
  -8   2 -12 291.326 192.746  19
   8   2 -12 980.900 557.612   9
  -2   8 -12 2165.91 687.939  18
   2   8 -12 1520.62 487.545  18
   8  -2  12 1999.90 532.603   8
  -8  -2  12 1384.39 358.913   4
   8   2 -12 1136.29 400.551  18
   2  -8  12 128.323 313.640  17
  -2  -8  12-17.1572 110.467  17
  -8  -2  12 1280.51 453.912  17
   8  -2  12 2058.54 570.102  16
  -8  -2  12 1448.27 354.655  16
   8   2 -12 1063.89 383.420   1
  -8   2 -12 104.450 181.191   7
   8  -2  12 1852.15 522.919   6
  -8   2 -12 105.268 189.170  15
   2   8 -12 1318.62 432.968   3
  -2   8 -12 1455.98 502.597   3
   8  -2  12 1541.54 496.524  14
   8   2 -12 768.686 396.413  14
  -2   8 -13 401.782 260.883   3
  -2   8 -13-59.2691 435.207  13
   2   8 -13 385.600 342.392  13
  -2  -8  13 92.3275 138.551   6
   2  -8  13 140.756 156.795   6
  -2   8 -13 370.505 205.186  12
   8   2 -13 158.746 63.3983  11
  -8   2 -13-642.848 473.731  20
  -8  -2  13 424.986 248.780   5
  -8   2 -13-37.7559 130.237  19
   8   2 -13-377.814 549.682   9
  -2   8 -13 692.002 357.402  18
   2   8 -13 399.803 286.873  18
  -2  -8  13 16.2627 115.585  17
   8   2 -13 303.741 243.633  18
   2  -8  13 243.270 336.265  17
   8  -2  13 471.402 290.248   8
  -8  -2  13 302.250 209.602  17
  -8  -2  13 390.191 188.684   4
  -8   2 -13-329.205 415.813   7
   8  -2  13 456.296 288.049  16
  -8  -2  13 455.088 231.582  16
  -8  -2  13 249.185 187.566   2
   8   2 -13 179.577 114.831   1
  -2   8 -13 436.443 150.980   4
  -8   2 -13-555.694 323.964  15
   8  -2  13 554.300 356.316  14
   8   2 -13 327.138 245.237  14
   8  -2  13 342.195 219.536   6
   2   8 -13 405.063 229.293   3
   2  -8  14 938.395 302.920  14
  -2   8 -14 1759.40 774.191  13
   2   8 -14 1509.17 581.399  13
  -2  -8  14 422.184 267.923   6
   2  -8  14 1014.66 414.740   6
  -2   8 -14 1689.59 432.961  12
  -8  -2  14 2084.09 549.950   5
  -8  -2  14 1947.70 515.028   2
   8   2 -14 1188.87 481.391  11
  -2   8 -14 2670.59 605.095  18
   2   8 -14 2392.54 627.020  18
   8   2 -14-370.617 705.366   9
   8  -2  14 2330.43 583.137   8
  -8  -2  14 2191.73 445.354   4
  -2   8 -14 2330.83 384.366   4
   8   2 -14 1216.38 440.967  18
  -8  -2  14 1893.82 572.981  17
   2  -8  14 981.840 419.518  17
  -2  -8  14 714.277 404.365  17
   8  -2  14 2537.35 662.336  16
  -8  -2  14 2015.90 497.309  16
   8  -2  14 1984.39 577.765   6
   2   8 -14 1782.95 496.625   3
  -2   8 -14 1528.98 500.182   3
   8   2 -14 1019.87 414.148   1
   8  -2  14 1795.26 605.972  14
   8   2 -14 722.918 346.296  14
   2  -8  15 261.739 131.158  14
   2   8 -15 432.193 259.388   3
  -2   8 -15 512.905 310.481   3
  -2   8 -15 254.815 381.785  13
  -2  -8  15 45.1879 82.3316   6
   2   8 -15 307.520 169.218  13
   2  -8  15 287.266 277.235   6
  -2   8 -15 527.017 248.387  12
   2   8 -15 129.418 164.799  12
   8   2 -15 447.001 317.309  11
  -8  -2  15 468.564 261.829   5
  -8   2 -15 20.9555 76.4040  19
  -2   8 -15 564.228 256.613  18
   8   2 -15 374.535 221.873  18
   8  -2  15 741.227 337.654   8
   2  -8  15 297.249 214.897  17
  -2  -8  15 272.002 240.401  17
  -8  -2  15 377.396 254.454  17
  -8  -2  15 540.369 212.456   4
   8  -2  15 559.856 362.073  16
  -8  -2  15 437.906 228.268  16
  -8  -2  15 441.517 276.518   2
   8   2 -15 474.359 303.574   1
   8  -2  15 513.062 428.801   6
   2   8 -15 716.868 357.413  18
   8   2 -15 170.033 211.183  14
   2   8 -16 678.568 319.017   3
  -2  -8  16 367.212 263.774   6
  -2   8 -16 777.301 386.348   3
   2  -8  16 454.186 313.822   6
  -2   8 -16 809.191 496.288  13
   2   8 -16 629.062 410.971  13
  -2   8 -16 764.636 299.365  12
   2   8 -16 775.022 302.613  12
   8   2 -16 422.484 196.724  11
  -8  -2  16 1005.26 382.092   5
  -8   2 -16 20.4190 130.977  19
  -2   8 -16 676.403 262.336  18
   2   8 -16 864.537 320.453  18
   8   2 -16 560.394 312.186  18
   8  -2  16 979.958 413.886   8
   2  -8  16 492.107 275.635  17
  -2  -8  16 426.600 311.988  17
  -8  -2  16 800.140 393.849  17
   2  -8  16 20.1089 361.857  16
  -8  -2  16 1039.72 306.269   4
   8  -2  16 1063.81 490.128  16
  -8  -2  16 1132.69 407.476  16
  -8  -2  16 792.473 351.999   2
   8  -2  16 801.511 418.382   6
   8   2 -16 389.303 259.050  14
   8   2 -16 424.145 258.955   1
   8  -3   0 290.769 162.316  14
   8  -3   0 327.838 178.221   6
  -8  -3   0 119.675 83.8864  19
  -8   3   0 466.253 195.970  19
  -8   3   0 395.045 183.487   5
   8   3   0 782.729 340.480  18
   8  -3   0 194.143 112.923   1
   8   3   0 1256.48 554.738   1
   8   3   0 669.049 373.991   8
  -8  -3   0 303.833 224.681  17
   8  -3   0 341.862 160.884   8
  -8   3   0 325.306 168.840   4
  -8   3  -1 3025.43 699.308  12
   8   3   1 2403.52 826.112   1
  -8   3  -1 2708.46 460.806   5
  -8   3   1 2865.43 505.736   5
   8  -3   1 2414.03 449.791   1
  -8   3  -1 2521.85 449.081  19
   8  -3  -1 1962.97 447.262   1
  -8   3   1 2624.24 474.900  19
   8   3   1 3003.81 648.428  18
   8   3  -1 4058.01 712.278  18
   8   3   1 2891.70 721.050   8
   8   3  -1 3219.82 634.162   8
   8  -3   1 2294.43 431.454   8
  -8  -3   1 965.156 532.282  19
   8  -3  -1 2040.10 450.522   8
  -8   3  -1 2580.10 461.499   4
  -8   3   1 2650.74 477.371   4
  -8  -3   1 544.772 317.731  17
   8  -3   1 2807.25 482.374   6
   8  -3  -1 2539.24 545.423   6
   8  -3   1 2288.99 474.615  14
   8  -3  -1 2083.50 461.140  14
   8  -3   2 108.593 109.063  14
   8  -3  -2 2.88117 89.5266  14
   8  -3   2 24.1035 51.0665   6
  -8   3  -2-78.1739 108.120   2
  -8   3  -2 107.196 121.445  12
  -8  -3  -2-156.064 437.495  19
  -8  -3   2 1112.31 616.609  19
  -8   3  -2 8.78437 26.7012  19
  -8   3   2 1.73853 63.9780  19
  -8   3   2 70.7231 75.9601   5
   8   3   2-54.3440 240.917  18
   8  -3  -2 12.1287 79.3119   1
   8   3   2 197.924 232.433   8
  -8  -3   2 1006.16 566.474  17
   8   3  -2 824.130 355.511   8
  -8  -3  -2 36.6962 147.264  17
  -8   3  -2 43.3409 40.4313   5
   8   3  -2 839.258 564.950   1
   8  -3   2 5.06226 18.9867   8
   8  -3   2 85.3336 105.502   1
   8  -3  -2-107.743 248.179   8
  -8   3  -2 34.0218 64.1597   4
  -8   3   2-105.223 163.325   4
   8  -3  -3 652.227 286.327  14
   8   3  -3-234.158 371.804  13
  -8   3  -3 1030.54 311.161  12
   8   3  -3 1384.79 603.361   1
  -8   3  -3 948.617 263.239   5
  -8   3   3 1287.97 364.599   5
  -8  -3   3 222.551 434.477   5
   8  -3   3 1018.76 268.472   1
  -8   3  -3 1044.32 167.245   2
  -8  -3   3 179.252 542.203  19
  -8   3   3 1111.48 345.162  19
  -8  -3  -3-372.617 398.644  19
  -8  -3   3-314.438 252.658   2
   8  -3   3 896.398 268.247   8
  -8   3  -3 1052.56 293.747   4
   8   3   3 848.814 356.795   8
  -8   3  -3 1015.33 284.241  19
  -8  -3   3 513.399 454.752  17
   8  -3   3 980.063 276.138   6
   8  -3   3 1067.03 304.014  14
   8  -3  -3 792.089 314.982   1
  -8   3  -3 322.937 270.286   3
  -8   3  -4-32.3049 122.844   3
   8  -3  -4 231.342 184.335  14
   8   3  -4 151.116 132.937  13
   8  -3   4 228.216 122.160   1
   8  -3   4 172.950 120.121   6
  -8  -3   4-16.8382 56.7188  12
  -8   3  -4 236.362 158.198  12
  -8  -3   4 72.5499 181.252   5
  -8  -3   4-56.0642 59.6838   2
   8  -3  -4 256.460 241.847   1
  -8   3  -4 150.398 101.894   5
  -8   3  -4 122.795 115.129  19
  -8   3   4 48.3043 139.512   5
   8   3  -4 164.206 204.312  18
   8   3   4 58.8020 127.149   8
   8   3  -4 199.006 140.952   8
  -8  -3   4 77.7975 213.948  17
   8  -3   4 137.518 100.769   8
  -8  -3   4 128.138 299.214  19
  -8   3  -4 130.879 104.851   4
   8   3  -4 162.519 178.257   1
   8   3  -4 38.4424 236.767  14
  -8   3  -4 99.7812 40.1061   2
   8  -3   4 140.324 107.001  14
  -8   3  -5-40.2247 61.3278   3
   8   3  -5-43.6589 43.5127  13
   8  -3   5 30.2004 37.8499   6
  -8   3  -5 108.020 150.249  12
  -8  -3   5-356.829 240.228   5
   8   3  -5-181.359 203.235  20
  -8   3  -5 109.098 175.938   5
  -8  -3   5 46.8046 44.0146  19
  -8   3  -5 46.5000 121.375  19
  -8  -3   5 114.219 130.667   2
   8   3  -5-61.7803 111.552  18
   8   3   5-83.7038 219.222   8
   8   3  -5 20.2636 40.2879   8
  -8  -3   5 53.6082 85.9842  17
   8  -3   5 39.7772 44.8812   8
  -8   3  -5 93.9903 162.384   4
   8  -3   5 53.8299 51.2718   1
   8   3  -5 0.58487 98.0776  14
   8   3  -5 47.6684 118.052   1
   8  -3   5 59.0777 87.6679  14
   8   3  -6 143.935 174.080   1
   8  -3   6 104.133 80.4869   6
  -8   3  -6 181.687 175.435   3
   8   3  -6 276.448 149.016  13
  -8   3  -6 215.487 121.799  12
   8   3  -6 249.663 178.342  11
  -8  -3   6 215.889 152.080   5
   8   3  -6 369.443 193.041  20
  -8   3  -6 312.359 173.060   5
  -8   3  -6 190.233 120.933  19
   8   3  -6 386.370 214.830  18
  -8  -3   6 85.2839 118.101   2
   8  -3   6 229.142 143.167   1
   8   3   6 86.7409 225.981   8
  -8  -3   6 108.410 143.064   4
  -8  -3   6 172.758 128.920  19
  -8  -3   6 154.793 145.007  17
   8   3  -6 247.794 134.026   8
   8  -3   6 218.521 124.564   8
  -8   3  -6 182.215 176.425   4
   8   3  -6 80.5337 130.092  14
   8  -3   6 199.337 133.277  14
   8  -3   7-8.26337 44.8171   6
   8   3  -7 32.0869 70.9055   1
   8   3  -7 45.2717 75.1736  13
  -8   3  -7-70.4456 122.209   3
  -8   3  -7-38.7525 93.5779  12
   8   3  -7 109.931 181.140  11
  -8  -3   7-9.33409 46.0805   5
   8   3  -7-73.7361 212.775  20
  -8   3  -7 6.58924 57.8083   5
   8   3  -7 400.806 282.962  10
  -8  -3   7-2.32237 60.7112  19
  -8   3  -7 69.9412 97.8501  19
   8   3  -7 24.4861 64.1745  18
  -8  -3   7 18.4779 76.5587   2
  -8  -3   7-43.8453 166.124   4
  -8  -3   7 0.70251 82.8860  17
   8   3  -7-15.2315 40.8128   8
   8  -3   7 31.2675 20.9579   8
  -8   3  -7 18.7616 40.1222   4
   8  -3   7-203.808 394.269  16
   8  -3   7 19.8934 44.6776   1
   8   3  -7 123.758 157.993  14
   8  -3   7-13.0377 32.7374  14
   8   3  -8 896.501 265.396  13
  -8   3  -8 782.669 333.032   3
   8   3  -8 1328.65 420.853   1
  -8   3  -8 755.549 264.604  12
   8  -3   8 1287.85 352.238   1
   8   3  -8 1475.72 467.495  11
  -8  -3   8 662.677 304.366   5
  -8   3  -8 779.033 259.659   5
  -8   3  -8 1094.29 284.587  20
   8   3  -8 940.310 434.743  20
  -8   3  -8 1244.84 302.460  10
  -8  -3   8 714.698 261.186  19
   8   3  -8 2085.30 593.007  10
  -8   3  -8 1107.38 249.940   9
  -8   3  -8 677.783 266.003  19
   8   3  -8 1542.04 420.142  18
   8  -3   8 1078.03 309.310   8
   8   3  -8 1367.51 282.118   8
  -8  -3   8 618.949 309.434   4
  -8  -3   8 617.799 258.998   2
  -8  -3   8 607.610 317.737  17
  -8   3  -8 726.591 289.332   4
   8  -3   8 1690.14 560.275  16
   8  -3   8 1313.23 366.466   6
   8   3  -8 807.080 438.247  14
   8  -3   8 891.755 285.693  14
   8  -3   9 163.350 149.882   6
  -8   3  -9-94.8626 197.070  13
   8   3  -9 212.512 161.253  13
  -8   3  -9 153.068 147.537  12
  -8   3  -9 44.4318 59.0487   3
  -8   3  -9 83.9780 95.5210  19
   8   3  -9 146.958 165.246   1
   8   3  -9 274.161 214.677  11
  -8   3  -9 100.526 136.953   5
  -8  -3   9 16.7390 90.1436   5
  -8   3  -9-18.2013 100.320  20
   8   3  -9-154.788 456.835  20
  -8   3  -9 322.005 192.862  10
   8   3  -9 519.997 420.357  10
   8   3  -9 551.984 337.792   9
  -8  -3   9 185.955 133.037  19
  -8   3  -9 296.828 176.599   9
   8   3  -9 256.419 188.384  18
  -8  -3   9-19.6934 112.383   4
  -8  -3   9 114.240 73.9121   2
  -8   3  -9 157.129 162.451   4
  -8  -3   9 139.484 158.646  17
   8  -3   9 218.609 157.364   8
   8   3  -9 169.448 98.7929   8
  -8  -3   9 105.639 49.6989  16
   8  -3   9 254.317 63.2307  16
  -8   3  -9 94.7389 162.895  15
   8  -3   9 176.209 141.736   1
   8   3  -9 127.816 122.634  14
   8  -3   9 204.622 143.414  14
   8   3  -9 149.278 99.2380   3
   8  -3  10 380.542 208.470   6
   3   8 -10-36.3880 365.918  13
   8   3 -10 430.262 147.345   3
  -8   3 -10 169.598 278.786  13
   8   3 -10 516.060 251.274  13
  -8   3 -10 355.044 227.508  12
   3  -8  10 188.185 213.743   6
  -3  -8  10 166.603 198.799   6
  -8   3 -10 299.494 209.889   3
  -3   8 -10 173.894 134.829  12
   8   3 -10 540.540 289.914  11
  -8   3 -10 13.2824 67.1508   5
   8   3 -10 484.623 278.081   1
  -8  -3  10 323.067 235.821   5
  -8   3 -10 492.084 252.638  20
  -8   3 -10 721.116 305.047  10
   8   3 -10 743.284 464.871  10
  -8   3 -10 347.044 190.607  19
   8   3 -10 791.804 413.821   9
  -8  -3  10 281.940 162.417  19
   3   8 -10 180.141 118.191  18
   8   3 -10 493.057 252.479  18
  -3  -8  10 122.706 169.905  17
  -8  -3  10 331.076 239.794   4
  -8   3 -10 162.702 161.089   4
  -8  -3  10 253.986 198.711   2
   8  -3  10 442.617 228.205   8
  -8  -3  10 304.957 221.964  17
   8  -3  10 429.483 315.170   1
   8   3 -10 664.028 255.127   8
  -8  -3  10 331.775 148.259  16
   8  -3  10 622.154 314.752  16
  -8   3 -10 458.569 305.686   7
  -8   3 -10 242.771 215.008  15
   8   3 -10 109.010 177.756  14
   8  -3  10 423.604 224.125  14
  -3   8 -10 434.438 295.852   3
  -8   3 -10 164.790 174.178   9
   3   8 -11 771.003 361.271  13
  -8   3 -11-50.6010 153.596  13
  -3   8 -11 1277.51 378.027  12
   3  -8  11 595.313 348.201   6
  -8   3 -11 808.735 338.397  12
  -3  -8  11 99.6220 186.356   6
  -8   3 -11 738.542 367.418   3
   8   3 -11 1709.65 565.044  11
  -8   3 -11 57.7988 258.194   5
   3   8 -11 1164.96 402.466  18
  -8  -3  11 1070.73 403.939   5
   8   3 -11 1472.31 484.286   1
  -8   3 -11 1228.21 392.949  20
  -8  -3  11 1174.15 305.007  19
  -8   3 -11 839.782 299.303  10
   8   3 -11 1414.90 626.443  10
  -8   3 -11 754.391 276.057  19
   8   3 -11 1725.83 652.886   9
  -8   3 -11 547.029 212.370   9
   8   3 -11 1374.06 435.964  18
   8  -3  11 884.862 444.718   1
   8  -3  11 1646.01 414.745   8
  -8   3 -11 413.973 198.385   4
  -8  -3  11 972.233 362.156   4
  -3  -8  11-147.247 162.199  17
  -8  -3  11 991.183 402.982  17
  -8  -3  11 1076.07 352.692   2
  -8  -3  11 1299.84 315.595  16
   8  -3  11 2126.27 593.934  16
  -8   3 -11 706.095 385.274   7
   8  -3  11 1475.09 434.991   6
  -3   8 -11 1611.36 547.277   3
  -8   3 -11 669.878 329.712  15
   8  -3  11 1547.88 435.214  14
   8   3 -11 1401.18 257.459   3
   8   3 -11 521.576 304.014  14
  -3   8 -12 224.495 210.534   3
   3   8 -12 226.667 229.269  13
  -8   3 -12 289.355 285.512  13
   3  -8  12 105.716 78.9110   6
  -3  -8  12 45.4933 60.7188   6
  -8   3 -12 559.129 361.319  12
   8   3 -12 321.200 136.371   3
  -3   8 -12 320.791 196.056  12
  -8   3 -12 383.001 273.896   3
   8   3 -12 338.844 275.826  11
  -8  -3  12 323.635 209.161   5
  -8   3 -12 775.055 366.178  20
  -8   3 -12 369.442 214.178  10
   8   3 -12 188.052 175.668   1
   8   3 -12 250.334 564.853  10
  -8   3 -12 308.375 187.591  19
   8   3 -12 599.795 359.521   9
  -8   3 -12 48.1895 249.154   9
  -3   8 -12 553.852 346.919  18
   3   8 -12 342.538 267.863  18
   8   3 -12 376.299 264.032  18
  -8   3 -12 337.404 276.908   4
   3  -8  12 232.984 327.521  17
  -8  -3  12 166.854 100.595  19
  -3  -8  12 54.2435 178.079  17
  -8  -3  12 245.552 231.683   4
   8  -3  12 419.556 215.146   8
  -8  -3  12 153.178 153.520  17
  -8  -3  12 351.636 237.792   2
  -8  -3  12 405.400 195.870  16
   8  -3  12 575.530 357.755  16
  -8   3 -12 290.665 303.619   7
  -3   8 -12 293.153 106.923   4
  -8   3 -12 442.454 328.659  15
   8   3 -12 178.604 281.205  14
   3   8 -12 162.722 67.4691   3
   8  -3  12 393.337 236.614  14
   8  -3  12 452.772 253.636   6
   3   8 -13 2061.18 680.439  13
  -3   8 -13 1028.15 112.266  13
  -8   3 -13 493.571 267.392  13
  -3  -8  13 354.389 213.298   6
   3  -8  13 1249.25 466.545   6
  -3   8 -13 2177.71 497.974  12
  -8  -3  13 2313.18 594.292   5
   8   3 -13 2355.76 668.766  11
   8   3 -13 1817.51 594.447   1
  -8  -3  13 1931.01 519.536   2
  -8   3 -13 852.788 404.321  20
  -8   3 -13 1023.20 418.445  10
  -8   3 -13 956.668 335.958  19
   8   3 -13 1624.02 696.968   9
  -8  -3  13 1212.82 323.259  19
  -3   8 -13 3532.73 818.092  18
   3   8 -13 2680.36 709.811  18
   8   3 -13 2039.02 546.287  18
   8   3 -13 1883.05 1075.43  10
  -8  -3  13 1927.24 501.881   4
  -3   8 -13 2716.33 431.515   4
   8  -3  13 2903.51 591.651   8
  -8  -3  13 2277.92 595.874  17
   3  -8  13 893.773 503.617  17
  -3  -8  13 41.0164 178.736  17
   8  -3  13 3521.21 798.377  16
  -8  -3  13 1950.98 421.628  16
  -8   3 -13 678.260 379.931   7
   8  -3  13 2674.53 634.281   6
   3   8 -13 2080.17 556.713   3
  -8   3 -13 966.927 398.548  15
  -3   8 -13 2148.51 606.606   3
   8  -3  13 2690.24 621.702  14
   3  -8  13 1537.43 458.381  14
   8   3 -13 2500.45 394.838   3
   8   3 -13 1209.40 614.198  14
   3  -8  14 127.467 71.8658  14
  -3   8 -14 174.811 240.782   3
  -3   8 -14 41.9756 367.406  13
   3   8 -14 310.298 288.840  13
  -3  -8  14 12.3660 84.9153   6
   3  -8  14-13.5083 55.6247   6
  -8   3 -14-11.4539 179.979  13
  -3   8 -14 289.492 250.830  12
   8   3 -14 150.032 46.4834  11
  -8  -3  14 173.133 126.092   5
  -8   3 -14 11.7112 79.2957  20
  -8   3 -14-47.0554 196.598  10
  -8   3 -14 101.070 160.166  19
   8   3 -14 405.075 348.435   9
   8   3 -14 183.285 199.244   1
  -3   8 -14 320.344 280.467  18
   3   8 -14 319.857 231.153  18
   8   3 -14 157.964 157.675  18
   3  -8  14 41.6753 124.410  17
  -3  -8  14 60.8043 208.835  17
   8  -3  14 296.797 187.215   8
  -8  -3  14 170.640 164.947   4
  -8  -3  14 271.770 235.342  17
  -8  -3  14 3.18900 17.6275   2
  -3   8 -14 318.585 184.230   4
   8  -3  14 356.501 249.911  16
  -8  -3  14 175.991 71.3612  16
  -8   3 -14 50.3753 152.080   7
   8   3 -14-106.800 361.823  10
  -8   3 -14-93.2083 242.327  15
   8  -3  14 171.516 155.149  14
   8   3 -14 329.935 205.938  14
   8  -3  14 222.883 188.542   6
   3   8 -14 221.708 202.806   3
  -3  -8  15 328.174 193.305   6
  -3   8 -15 1512.23 884.334  13
   3   8 -15 1357.97 554.528  13
   3  -8  15 873.616 421.793   6
  -8   3 -15 336.793 273.474  13
  -3   8 -15 1693.62 449.707  12
   8   3 -15 1322.01 523.384  11
  -8  -3  15 1788.23 528.846   5
  -8   3 -15 67.9148 177.983  20
  -8   3 -15 599.289 371.015  10
  -8   3 -15 410.933 226.883  19
   8   3 -15 1692.04 841.558   9
  -3   8 -15 1877.07 431.455  18
   3   8 -15 2413.81 627.397  18
   8   3 -15 1809.43 543.958  18
  -8  -3  15 1732.17 459.024   4
   8  -3  15 2074.27 533.414   8
   8   3 -15 1172.69 456.200   1
  -3   8 -15 2262.35 489.175   4
   3  -8  15 951.593 340.479  17
  -3  -8  15 555.818 291.391  17
  -8  -3  15 1529.01 522.898  17
  -8  -3  15 1521.48 424.075  16
  -8  -3  15 1465.17 472.644   2
   8   3 -15-303.312 1147.37  10
  -8   3 -15 45.1229 349.317   7
   8  -3  15 2260.57 651.734  16
  -8   3 -15 52.9349 261.959  15
   3   8 -15 1425.61 491.318   3
  -3   8 -15 1657.24 557.298   3
   3  -8  15 982.540 272.578  14
   8  -3  15 1678.86 588.990  14
   8   3 -15 326.683 334.181  14
   8  -3  15 1929.41 581.887   6
   3  -8  16 308.491 163.395  14
   3   8 -16 292.426 195.987   3
  -3  -8  16 202.770 252.934   6
  -3   8 -16 152.080 149.026   3
   3  -8  16-77.5081 151.683   6
  -3   8 -16 404.822 492.637  13
   3   8 -16 314.017 289.115  13
  -3   8 -16 306.725 188.916  12
   3   8 -16-67.9169 278.528  12
  -8   3 -16 19.1106 110.089  19
   8   3 -16 63.5232 160.829  11
  -8  -3  16 207.742 159.785   5
  -8   3 -16-191.134 294.935  20
  -3  -8  16-208.208 466.437   2
  -8   3 -16-1271.10 594.791  10
   8   3 -16-766.520 1737.77  10
   8   3 -16 164.032 415.509   9
   3   8 -16 231.596 183.169  18
  -3   8 -16 264.379 154.015  18
   8   3 -16 218.268 225.353  18
   8  -3  16 296.620 187.096   8
   3  -8  16 228.808 166.985  17
  -3  -8  16 234.844 221.043  17
  -8  -3  16 149.486 116.881   4
  -8  -3  16 220.686 219.730  17
  -8  -3  16 435.977 298.745   2
   8  -3  16 354.616 248.461  16
  -8  -3  16 253.231 182.197  16
   8  -3  16 333.147 374.659  14
   8  -3  16 311.652 232.413   6
  -8   4   0 3261.36 562.436   5
   8  -4   0 1790.56 465.094   1
   8   4   0 2193.40 481.396  18
   8   4   0 2006.67 530.589   8
   8  -4   0 1590.43 410.851   8
  -8   4   0 2768.01 532.761  19
   8  -4   0 2403.14 773.716   6
   8  -4   0 1574.94 406.563  14
   8  -4   1-17.4428 87.8886  14
   8  -4  -1 57.6583 87.6521  14
   8  -4   1 160.009 155.805   6
  -8  -4   1-325.942 343.550  19
   8   4  -1 234.893 310.281   1
  -8   4  -1 12.6798 24.3385  19
  -8   4   1-65.5204 180.672  19
  -8   4  -1-7.71757 90.0439   5
  -8   4   1-184.354 207.679   5
   8   4  -1 75.5313 136.358  18
   8   4   1-57.3229 68.5077   8
   8   4  -1 20.0562 100.463   8
  -8  -4   1-39.4565 81.8881  17
   8  -4   1-18.1612 100.643   1
   8  -4   1 66.9145 107.536   8
  -8   4  -1-58.1587 141.625   4
  -8   4  -2 2083.48 608.431  12
  -8   4  -2 2422.78 463.895   5
  -8   4  -2 2069.44 442.134  19
   8  -4   2 1753.07 387.048   1
  -8  -4   2-215.479 252.854  19
   8   4  -2 2120.33 577.431  18
   8   4  -2 1888.38 499.379   8
   8   4  -2 1052.02 582.763   1
   8  -4   2 1481.11 379.108   8
   8   4   2 401.650 163.009   8
  -8   4  -2 2343.88 480.963   4
  -8  -4   2 159.803 141.632  17
   8  -4   2 1800.53 462.582   6
   8  -4   2 1569.25 395.112  14
   8  -4   3 54.8475 112.865  14
   8  -4   3 63.1250 61.1242   6
  -8   4  -3-0.25307 47.5891  12
  -8  -4   3 200.633 260.025  19
   8  -4   3-10.5979 27.0538   1
  -8   4  -3-11.7440 68.8115   5
  -8   4  -3 34.5037 41.1435  19
   8   4  -3 765.832 403.441  18
   8   4   3-131.929 233.908   8
   8   4  -3 407.851 373.852   1
   8   4  -3 467.710 294.053   8
  -8  -4   3 95.1129 188.271  17
   8  -4   3 0.95465 68.7787   8
  -8   4  -3-11.9154 46.8191   4
   8  -4   4 306.862 171.880  14
   8  -4   4 251.780 161.281   6
  -8   4  -4 340.595 196.149  12
  -8  -4   4 32.4037 157.458  19
  -8   4  -4 373.721 171.435   5
  -8   4  -4 298.930 158.616  19
   8   4  -4 702.893 358.151  18
   8   4  -4 712.085 275.376   8
  -8  -4   4-12.6925 68.4037  17
   8   4  -4 488.187 425.989   1
   8  -4   4 337.386 170.960   8
  -8   4  -4 275.079 147.757   4
   8  -4   4 331.812 150.712   1
  -8   4  -4-168.811 672.951   3
   8  -4   5 4.47039 46.1037  14
   8   4  -5 11.7304 95.8654  13
   8  -4   5 82.5446 116.151   6
  -8   4  -5-4.60605 64.5829  12
  -8  -4   5-415.662 224.920   2
  -8  -4   5 29.4097 72.9152  19
  -8   4  -5-15.2134 76.9404   5
   8  -4   5-19.9438 37.4565   1
   8   4  -5 24.2186 74.1374  18
   8   4  -5 29.5181 74.6173   8
  -8  -4   5 15.8404 85.3638  17
   8   4  -5 145.394 200.570   1
   8  -4   5 15.9543 38.3415   8
  -8   4  -5-39.1668 101.690  19
  -8   4  -5 34.6224 64.0974   4
  -8   4  -5 65.5398 175.176   3
  -8   4  -6-92.7028 180.304   3
   8   4  -6-92.8707 128.288  13
   8  -4   6 53.1574 48.8591   6
   8  -4   6-14.4665 42.3970   1
  -8   4  -6 29.9758 126.472  12
  -8  -4   6 8.69524 109.227  19
  -8   4  -6 38.8038 52.1695   5
  -8  -4   6 38.5193 18.2182   2
  -8   4  -6 60.2562 94.3396  19
   8   4  -6 101.433 119.586  18
   8   4  -6 72.8551 89.4876   8
  -8  -4   6 14.2071 96.0117  17
   8  -4   6 9.21697 60.7326   8
  -8   4  -6 4.35417 17.5997   4
   8   4  -6 79.3466 205.916   1
   8  -4   6-55.5363 40.9021  14
  -8   4  -7 212.556 229.633   3
   8   4  -7 144.400 119.824  13
   8  -4   7 118.841 125.566   6
  -8   4  -7 82.8977 56.1564  12
  -8  -4   7-237.626 377.462   5
  -8   4  -7 121.863 102.518   5
  -8  -4   7-19.3538 74.5611  19
  -8   4  -7 134.515 75.6747  19
  -8  -4   7 81.3213 101.066   2
   8   4  -7 156.970 139.414  18
   8   4  -7 120.919 80.2251   8
  -8  -4   7 193.419 202.566  17
   8  -4   7 170.038 131.448   8
  -8   4  -7 136.451 129.853   4
   8  -4   7 112.935 82.7431   1
   8   4  -7 36.8867 65.5949   1
   8  -4   7 124.620 97.6612  14
   8  -4   8-20.1734 95.6644   6
  -8   4  -8-59.9320 73.7640   3
   8   4  -8-22.3622 79.9391  13
  -8   4  -8 47.8533 126.465  12
   8   4  -8-92.8055 135.702  11
  -8  -4   8-149.120 264.078   5
   8   4  -8-108.708 205.414  20
  -8   4  -8 63.3070 102.068   5
  -8  -4   8 28.8441 31.7138  19
  -8   4  -8 3.34515 38.3120  19
  -8  -4   8 33.6918 49.9353   2
   8   4  -8-17.8454 75.8568  18
  -8  -4   8 6.63016 55.4747  17
   8   4  -8-7.52502 29.5942   8
   8  -4   8 23.9828 47.4182   1
   8  -4   8 3.20545 24.9649   8
  -8   4  -8-69.7124 76.3715   4
   8   4  -8 133.714 179.071   1
   8  -4   8 39.4338 72.8888  14
   8  -4   9 76.3718 72.1427   6
   8   4  -9 161.010 113.586  13
  -8   4  -9 90.6759 141.795   3
   4  -8   9 100.897 176.695   6
  -8   4  -9 73.6297 114.645  12
   8  -4   9 154.774 115.567   1
   8   4  -9 111.783 173.299  11
  -8  -4   9 38.4379 69.3851   5
   8   4  -9 399.293 404.183  20
  -8   4  -9-20.7156 41.4928   5
  -8  -4   9 158.116 105.681  19
  -8   4  -9 174.405 150.717  19
   4   8  -9-32.5874 91.9271  18
   8   4  -9 115.085 144.124  18
  -8  -4   9 158.611 148.962   2
  -4  -8   9 30.9217 87.7689  17
  -8  -4   9 192.792 159.603  17
   8   4  -9 177.726 95.9685   8
   8  -4   9 49.9393 77.9025   8
  -8   4  -9 205.597 167.244   4
   8  -4   9-266.888 477.790  16
   8   4  -9 58.3188 108.269   1
   8  -4   9 138.426 114.457  14
   8   4 -10 457.179 306.891   1
   8  -4  10 727.984 290.563   1
   8  -4  10 784.428 283.214   6
   4   8 -10 147.249 310.777  13
   8   4 -10 622.569 254.884  13
  -8   4 -10 354.601 222.790   3
   4  -8  10 233.638 199.452   6
  -8   4 -10 454.354 235.142  12
  -4  -8  10 66.4501 123.705   6
  -4   8 -10 603.672 242.911  12
   8   4 -10 911.896 377.246  11
  -8  -4  10 393.004 228.598   5
  -8   4 -10 634.172 260.622   5
  -8   4 -10 643.892 262.954  20
   8   4 -10 1102.32 576.233  20
  -8   4 -10 886.634 272.691  10
   8   4 -10 878.554 441.496  10
  -8  -4  10 435.999 207.511  19
  -8   4 -10 602.574 226.038  19
   4   8 -10 574.382 276.624  18
   8   4 -10 1003.30 244.752   8
   8   4 -10 850.094 365.678  18
  -8  -4  10 497.237 246.567   2
  -4  -8  10 51.3101 97.0999  17
  -8  -4  10 532.519 255.099  17
  -8   4 -10 429.581 226.884   4
   8  -4  10 631.552 243.596   8
  -8  -4  10 114.309 128.088  16
   8  -4  10 989.393 409.394  16
   8   4 -10 1042.93 398.710   3
  -4   8 -10 694.014 359.637   3
   8  -4  10 745.149 258.390  14
   8   4 -11 66.1727 90.7945   3
   8  -4  11 40.7101 43.4138   6
   8   4 -11 248.752 276.904   1
   4   8 -11-38.4159 266.016  13
  -8   4 -11 102.910 171.124  13
   8   4 -11 140.494 157.497  13
   4  -8  11 73.8744 170.339   6
  -8   4 -11 101.380 154.566   3
  -4  -8  11-45.1328 40.4681   6
  -8   4 -11 180.558 151.754  12
  -4   8 -11 6.79739 48.3490  12
   8   4 -11 126.675 167.134  11
  -8   4 -11 199.440 193.693   9
  -8  -4  11 120.246 191.062   5
  -8   4 -11 129.914 170.598   5
   4   8 -11 89.2155 101.238  18
  -8   4 -11 186.437 136.083  20
   8   4 -11 178.328 300.519  20
  -8   4 -11 58.0150 61.2834  10
   8   4 -11 270.507 371.384  10
  -8   4 -11 130.464 111.062  19
  -8  -4  11 117.492 98.2434  19
   8   4 -11 111.049 167.428  18
  -8  -4  11 156.079 162.095   2
  -4  -8  11-79.9524 111.468  17
  -8   4 -11 62.0174 111.581   4
  -8  -4  11 45.7387 125.491  17
   8  -4  11 0.41710 72.3982   8
   8   4 -11 164.083 146.980   8
  -8  -4  11-16.7461 109.070  16
   8  -4  11 56.9916 140.856  16
   8  -4  11 76.4790 101.261   1
   8  -4  11 57.7750 34.7016  14
  -4   8 -11 187.863 220.186   3
   4  -8  12 1520.79 558.618  14
   4   8 -12 1664.64 602.933  13
   8   4 -12 1654.97 433.698  13
  -8   4 -12 369.381 281.658  13
   8   4 -12 1917.88 657.436   1
   4  -8  12 758.087 382.785   6
  -4  -8  12 336.347 229.190   6
  -4   8 -12 1918.52 485.125  12
  -8   4 -12 1007.55 362.014  12
  -8   4 -12 878.131 372.086   3
   8   4 -12 2430.20 647.095  11
  -8   4 -12 828.114 287.104   5
  -8  -4  12 1386.85 549.381   5
  -8   4 -12 1511.56 423.356  20
   8   4 -12 2918.17 1214.80  20
  -8   4 -12 1763.56 432.258  10
   8   4 -12 3268.73 1069.51  10
  -8   4 -12 1048.21 307.839  19
  -8   4 -12 1586.29 391.434   9
   4   8 -12 1938.27 555.632  18
   8   4 -12 2096.35 548.722  18
  -4   8 -12 4046.51 1070.44  18
   8  -4  12 2190.99 480.334   8
   8  -4  12 1201.57 682.180   1
  -4   8 -12 2329.31 446.667   4
  -8  -4  12 1447.80 328.930  19
   4  -8  12 358.377 507.906  17
  -8  -4  12 1217.78 415.289   2
  -8   4 -12 977.643 411.799   4
  -4  -8  12 124.329 183.352  17
  -8  -4  12 1194.67 466.983  17
  -8  -4  12 1455.71 362.897  16
   8  -4  12 2686.48 738.982  16
  -8   4 -12 1077.44 483.330   7
   8  -4  12 2311.58 568.220   6
  -4   8 -12 1768.79 599.780   3
  -8   4 -12 1231.89 429.398  15
   8   4 -12 1997.02 379.708   3
   8  -4  12 2180.02 492.322  14
   8   4 -12 3140.80 912.357   9
   8  -4  13-71.2199 91.6776   6
  -4   8 -13 24.1753 59.3713   3
   4  -8  13 24.3748 45.1562  14
   4   8 -13 64.8075 149.695  13
  -8   4 -13 26.6613 166.260  13
   8   4 -13-20.0273 53.6191   3
  -4  -8  13-61.2623 163.945   6
   4  -8  13-89.0058 165.981   6
   8   4 -13 40.3534 112.164  13
   8   4 -13 91.6992 236.445   1
  -8   4 -13 99.4026 188.323  12
  -8   4 -13-12.5445 78.5484   3
  -4   8 -13-18.4261 66.8378  12
   8   4 -13-95.5302 194.758  11
  -8  -4  13 23.2959 86.9464  19
  -8  -4  13-20.3314 108.856   5
  -8   4 -13 193.697 203.619  20
   8   4 -13-300.695 673.956  20
  -8   4 -13 255.682 244.676  10
  -8   4 -13 18.9352 71.7987  19
   8   4 -13 176.376 415.832   9
  -8   4 -13 112.797 177.425   9
  -4   8 -13 106.733 76.6762  18
   4   8 -13 7.25293 77.0334  18
   8   4 -13 409.615 334.360  10
   8   4 -13 94.2315 79.8635  18
  -8   4 -13 126.640 159.500   4
   4  -8  13 183.000 329.522  17
  -8  -4  13 82.1070 125.363   2
  -4  -8  13-47.0617 202.944  17
   8  -4  13-62.2118 99.2082   8
  -8  -4  13-116.952 228.489  17
  -8  -4  13-70.6695 95.6167  16
   8  -4  13-131.370 233.551  16
  -4   8 -13 43.9391 41.0354   4
  -8   4 -13-29.9406 49.2977   7
  -8   4 -13 73.0697 196.118  15
   4   8 -13-63.8255 165.867   3
   8  -4  13 100.391 102.713  14
   4   8 -14 2061.51 659.172  13
  -4   8 -14 198.934 570.367  13
  -4  -8  14 437.629 162.802   6
  -8   4 -14 1273.81 392.449  13
   4  -8  14 1374.44 480.026   6
   8   4 -14 1567.42 395.002  13
  -4   8 -14 2043.74 501.328  12
  -8   4 -14 1564.20 473.946  12
   8   4 -14 2036.98 666.105   1
  -8   4 -14 1672.43 616.777   3
   8   4 -14 3186.82 807.528  11
  -8  -4  14 1852.64 548.292   2
  -8  -4  14 2041.33 682.515   5
  -8   4 -14 2809.01 746.735  20
   8   4 -14 5646.97 1153.84  20
   8   4 -14 3462.08 1056.66  10
  -8   4 -14 1276.91 402.412  19
   8   4 -14 4286.67 1106.80   9
  -8   4 -14 1278.05 391.767   9
  -8  -4  14 633.186 208.363  19
  -4   8 -14 2418.72 477.609  18
   4   8 -14 2904.52 716.868  18
   8   4 -14 2555.58 640.047  18
   8  -4  14 2933.82 591.049   8
  -4   8 -14 2956.93 515.915   4
  -8   4 -14 1766.98 733.507   4
  -8  -4  14 2512.42 710.575  17
   4  -8  14 1248.08 417.991  17
  -4  -8  14 326.484 210.670  17
  -8   4 -14 1982.04 584.442  10
  -8  -4  14 2360.95 499.982  16
   8  -4  14 3911.87 899.083  16
  -8   4 -14 1504.52 611.016   7
   8  -4  14 3175.25 736.226   6
   4   8 -14 1976.25 551.064   3
  -8   4 -14 1527.85 555.408  15
  -4   8 -14 1777.44 589.903   3
   8  -4  14 3144.48 684.419  14
   4  -8  14 1415.65 354.945  14
   8   4 -14 2306.63 411.323   3
   4  -8  15 144.915 144.607  14
  -4  -8  15 27.0145 158.060   6
  -4   8 -15 5.99996 77.6757   3
  -4   8 -15 40.9157 159.550  13
   4   8 -15-154.121 167.286  13
   4  -8  15-14.0452 99.0932   6
  -8   4 -15-146.708 179.778  13
   8   4 -15 55.2507 85.7268   3
  -8   4 -15 76.2690 153.479  12
  -4   8 -15 1.09917 27.8893  12
   8   4 -15 14.6029 115.802   1
  -8   4 -15 71.7781 192.775   3
   8   4 -15-9.21767 86.1015  11
  -8  -4  15-244.608 295.402   5
  -8   4 -15-51.9281 48.7823  20
   8   4 -15-695.377 881.172  10
  -8   4 -15 118.442 163.592  19
   8   4 -15-114.002 252.202   9
  -8   4 -15 141.903 210.020   9
  -4   8 -15 40.9582 37.2475  18
   4   8 -15-18.3868 105.183  18
   8   4 -15-39.1449 160.928  18
   4  -8  15 96.0078 147.423  17
  -4  -8  15 124.648 122.305  17
  -8  -4  15 1.76085 84.4879   2
   8  -4  15 157.585 174.608   8
  -8  -4  15 155.526 189.969  17
  -4   8 -15 25.1249 114.163   4
  -8  -4  15 51.9071 57.6327  16
   8  -4  15 69.8301 169.957  16
  -8   4 -15 290.843 373.775   7
  -8   4 -15 277.676 338.138  15
  -8   4 -15 92.3854 194.919  10
   8  -4  15 82.9149 167.721  14
   8  -4  15 65.4090 99.0667   6
   4   8 -15 25.5049 94.9340   3
   8   5  -1 330.072 89.8782   8
  -8  -5   1-71.0812 138.217  17
   8  -5   2 385.923 232.836  14
   8  -5   2 504.561 395.793   6
  -8   5  -2 501.848 208.200  19
  -8   5  -2 577.905 219.927   5
   8   5  -2 457.789 229.042  18
   8   5  -2 287.825 130.483   8
  -8  -5   2-92.5527 170.858  17
   8  -5   2 177.067 23.3023   8
   8  -5   3 367.937 204.706   1
   8  -5   3 332.548 182.119  14
   8  -5   3 187.741 90.2625   6
  -8   5  -3 479.200 217.434  19
  -8   5  -3 506.337 212.461   5
   8   5  -3 372.227 233.801  18
   8   5  -3 292.638 202.650   8
  -8  -5   3 103.351 195.350  17
  -8  -5   3-270.353 289.807  19
   8  -5   3 144.620 47.8049   8
  -8   5  -3 479.926 232.357   4
   8  -5   4 115.664 128.512  14
   8  -5   4 84.7613 97.2678   6
  -8   5  -4 324.787 175.871  12
   8  -5   4 189.304 98.4187   1
   8   5  -4 76.3438 168.423   1
  -8   5  -4 145.572 107.076  19
  -8   5  -4 221.127 155.316   5
   8   5  -4 13.0881 75.6563  18
   8   5  -4 207.585 160.411   8
  -8  -5   4 54.9709 127.018  19
  -8  -5   4 151.954 206.950  17
   8  -5   4 145.285 156.540   8
  -8   5  -4 299.692 186.749   4
   8  -5   5-10.5014 70.0531  14
   8  -5   5-19.5651 82.3048   6
  -8   5  -5 10.8115 90.6528  12
  -8  -5   5-55.3694 146.099  19
  -8   5  -5-6.62273 69.4877   5
  -8   5  -5 26.0781 90.6063  19
   8   5  -5 67.3912 114.039   1
   8   5  -5-20.8331 20.5818  18
   8   5  -5-48.9294 113.175   8
   8  -5   5 22.5768 75.6527   1
  -8  -5   5-62.8991 55.5212  17
   8  -5   5-17.9892 15.1817   8
  -8   5  -5 112.154 115.664   4
   8  -5   6 225.382 171.450  14
   8   5  -6-73.0070 261.253  13
   8  -5   6-29.7699 87.6808   6
  -8   5  -6 115.748 106.239  12
  -8  -5   6 27.7234 128.355  19
  -8   5  -6 190.317 135.391   5
  -8   5  -6 117.389 111.418  19
   8   5  -6 273.735 225.848  18
   8   5  -6 119.382 124.385   1
   8   5  -6 167.186 145.854   8
  -8  -5   6-15.7524 39.7912  17
   8  -5   6 140.832 118.033   8
  -8   5  -6 61.6007 76.0418   4
  -8   5  -6 74.4666 180.809   3
   8  -5   6 62.1630 71.4901   1
   8  -5   7-39.5150 54.5205  14
   8   5  -7 120.921 127.531  13
   8  -5   7 31.3055 51.5633   6
  -8   5  -7-7.47604 86.0983  12
  -8  -5   7-125.422 215.242   2
  -8  -5   7 73.2228 135.975  19
  -8   5  -7-21.5433 75.5793   5
  -8   5  -7 61.5207 68.7833  19
   8  -5   7 106.312 101.337   1
   8   5  -7 60.2653 157.837  18
   8   5  -7 80.3480 212.315   1
   8   5  -7 21.7298 47.8117   8
  -8  -5   7-81.0584 157.201  17
   8  -5   7-21.7134 64.8747   8
  -8   5  -7 33.5170 51.1517   4
  -8   5  -7 44.0884 72.7164   3
   8  -5   8-77.9753 101.491  14
  -8   5  -8 2.18493 153.690   3
   8  -5   8-15.6299 42.4493   1
   8   5  -8 53.2684 82.7872  13
   8  -5   8-38.6844 105.692   6
  -8   5  -8 69.9220 93.2229  12
  -8   5  -8 38.3749 61.7957   5
  -8  -5   8 193.599 156.463  19
  -8  -5   8-22.2471 177.129   2
  -8   5  -8-5.07417 33.8802  19
   5   8  -8-66.3785 113.675  18
   8   5  -8 21.7188 37.5032  18
  -5  -8   8-30.3967 63.9276  17
   8   5  -8 72.1169 102.090   8
  -8  -5   8 142.813 238.230  17
   8   5  -8 210.517 221.621   1
   8  -5   8-32.9616 70.0139   8
  -8   5  -8 79.2570 85.0828   4
  -8   5  -9 202.494 201.256   3
   8   5  -9-27.5532 70.4620  13
   8  -5   9-6.44923 68.5650   6
   5  -8   9-37.8699 115.204   6
  -8   5  -9 66.5717 112.170  12
  -8   5  -9-58.0905 69.2333   5
  -8  -5   9-60.2204 106.957  19
  -8   5  -9 6.32774 49.5695  19
  -8  -5   9-85.1972 169.804   2
   5   8  -9-51.4678 98.1178  18
   8   5  -9 1.58714 112.402  18
  -5  -8   9 204.961 161.922  17
  -8  -5   9-5.35706 76.7524  17
   8   5  -9 75.2204 87.5217   8
   8   5  -9 11.3225 154.922   1
   8  -5   9-12.8825 27.7808   1
   8  -5   9 51.5027 111.951   8
  -8   5  -9 33.3043 35.9996   4
   8  -5   9-16.5254 67.4098  14
   5   8 -10-345.475 402.367  13
   8  -5  10-83.2894 95.1178   6
  -8   5 -10 151.008 211.358   3
   8   5 -10 56.5530 84.3221  13
   5  -8  10 76.9172 143.411   6
  -5  -8  10-57.6668 89.2495   6
  -8   5 -10 83.9820 24.5751  12
  -5   8 -10-24.6188 105.437  12
   8   5 -10 60.0495 92.4968  11
   8   5 -10-139.141 181.208  20
  -8   5 -10 81.6672 73.9436   5
   8  -5  10 36.7786 47.1605   1
  -8  -5  10 55.0038 73.1882  19
  -8   5 -10 106.636 110.289  19
  -8  -5  10 51.5394 36.2012   2
   5   8 -10 69.9278 109.059  18
   8   5 -10-6.99521 67.7042  18
  -5  -8  10 10.9553 17.9867  17
  -8  -5  10-77.4915 220.777  17
   8   5 -10 102.445 85.7517   8
   8  -5  10 140.127 152.275   8
  -8   5 -10 82.1146 69.1925   4
   8   5 -10 294.703 365.721   1
  -5   8 -10 60.5904 56.9331   3
   8  -5  10 28.4749 58.1777  14
   5   8 -11 718.953 328.177  13
   8  -5  11 1003.31 332.543   1
  -8   5 -11 952.572 465.781   3
   8   5 -11 926.865 331.135  13
   5  -8  11 415.078 270.705   6
  -5   8 -11 1034.79 368.936  12
  -8   5 -11 569.557 275.626  12
   8   5 -11 1262.82 474.922  11
  -8   5 -11 917.277 304.801   5
   8   5 -11 2060.40 727.907  20
  -8  -5  11 626.261 234.101  19
  -8   5 -11 942.347 286.374  19
   5   8 -11 904.188 368.650  18
  -8  -5  11 521.197 291.993   2
   8  -5  11 1139.71 349.144   8
   8   5 -11 1529.35 291.392   8
   8   5 -11 1278.54 461.961  18
  -5   8 -11 1301.39 363.132   4
  -5  -8  11-80.4198 136.464  17
  -8  -5  11 446.270 286.277  17
  -8   5 -11 810.200 320.168   4
   8  -5  11 964.550 260.011  16
   8   5 -11 836.269 447.344   1
   8  -5  11 1299.12 421.130   6
   8  -5  11 1171.30 350.695  14
   8   5 -11 690.486 368.408   3
  -5   8 -11 830.541 452.143   3
  -5   8 -12 80.0772 147.732   3
   5  -8  12 114.545 139.127  14
   8  -5  12 56.3439 60.5182   6
  -8   5 -12-748.973 748.883  13
   5   8 -12-71.7434 145.608  13
   8   5 -12 33.7145 59.7232  13
  -8   5 -12 21.1244 135.133   3
  -5  -8  12-94.0561 143.982   6
   5  -8  12 36.2255 59.9274   6
  -8   5 -12 74.3741 131.098  12
  -5   8 -12 23.2076 73.0098  12
   8   5 -12 240.586 210.281  11
  -8   5 -12 187.620 174.040   5
  -8   5 -12-102.459 189.141  20
   8   5 -12-280.299 410.713  20
   8   5 -12 185.460 218.168  10
  -8  -5  12 62.9896 99.9283  19
  -8   5 -12 30.2985 67.1339  19
  -5   8 -12 24.5070 114.232   5
  -5   8 -12 215.187 408.034  18
   5   8 -12 58.1549 175.317  18
  -8  -5  12 78.0460 100.553   2
   8   5 -12 114.008 174.352  18
   5  -8  12 132.044 441.313  17
  -5  -8  12-218.175 212.652  17
  -8   5 -12 106.672 77.3459   4
  -8  -5  12 281.208 291.923  17
   8  -5  12 131.927 112.831   8
   8  -5  12-64.8187 493.986  16
  -5   8 -12 132.416 123.224   4
   8  -5  12 167.322 236.864   1
   8   5 -12-179.643 311.726   1
   8   5 -12 31.5608 99.4596   3
   8  -5  12 58.0927 53.2011  14
  -5   8 -13 1037.90 464.929   3
   5  -8  13 868.676 329.295  14
   8  -5  13 1421.19 467.313   6
   8   5 -13 1724.44 507.687  13
  -8   5 -13 282.225 208.769  13
   5   8 -13 832.364 370.042  13
  -5  -8  13 124.900 97.9185   6
   5  -8  13 669.051 346.498   6
  -8   5 -13 955.400 450.621   3
  -5   8 -13 1172.17 388.280  12
  -8   5 -13 754.612 315.129  12
  -8  -5  13 3451.45 1315.34   5
   8   5 -13 2105.44 681.370  11
  -8   5 -13 927.065 402.187   5
  -8   5 -13 379.608 183.711  20
   8   5 -13 3676.90 994.746  20
  -8   5 -13 1065.81 342.182  10
   8   5 -13 2188.16 550.123  10
  -8  -5  13 1240.13 377.475  19
  -8   5 -13 933.747 290.239  19
   8   5 -13 1996.58 622.464  18
   5   8 -13 1181.20 417.794  18
  -5   8 -13 1413.54 377.273   4
   8  -5  13 1080.07 557.271   1
   5  -8  13 723.005 389.387  17
  -8   5 -13 1115.40 450.557   4
  -5  -8  13 366.303 299.894  17
   8  -5  13 1159.87 342.932   8
  -8  -5  13 1388.36 459.243  16
   8  -5  13 2034.84 759.159  16
   8   5 -13 1354.69 552.282   1
   8   5 -13 1919.87 465.180   3
  -8   5 -13 543.433 240.930  15
   8  -5  13 1277.51 367.287  14
   5  -8  14 18.4411 37.5353  14
   8  -5  14-41.0187 148.825   6
  -5   8 -14-26.3414 108.901   3
   8   5 -14 21.9137 63.7312   3
  -5  -8  14-130.116 172.706   6
  -8   5 -14-384.276 341.178  13
   5   8 -14 149.200 227.060  13
   5  -8  14 159.230 252.470   6
   8   5 -14 75.7902 129.773  13
  -8   5 -14-76.6433 53.9299   3
  -5   8 -14 39.6417 125.888  12
  -8  -5  14-292.153 467.447   5
   8   5 -14-11.0033 246.269  11
  -8   5 -14-102.379 198.174  20
   8   5 -14 125.400 494.583  20
  -8   5 -14-40.7066 92.0959  10
   8   5 -14-23.0221 223.014  10
   8   5 -14 67.8784 376.250   9
  -8   5 -14 197.551 181.998   9
  -8   5 -14 76.7157 110.326  19
   5   8 -14 113.233 162.853  18
   8   5 -14-64.2939 71.6633  18
  -8  -5  14-54.8442 108.965   2
  -8   5 -14-64.6385 146.466   4
  -5  -8  14 322.342 317.790  17
  -8  -5  14-138.935 187.338  17
   8  -5  14-90.1012 123.489   8
  -5   8 -14-7.12592 42.0345   4
  -8  -5  14-54.3233 91.9030  16
   8  -5  14 55.6650 129.063  16
  -8   5 -14-24.8628 159.231   7
  -8   5 -14-104.917 86.7222  15
   8   5 -14 142.199 134.766   1
   5   8 -14-101.053 189.483   3
   8  -5  14 77.2497 83.2376  14
   8   6  -3 257.782 132.609  18
  -8  -6   3 59.0716 137.086  17
   8  -6   4 222.827 315.552   6
   8   6  -4 73.6041 126.572  18
   8   6  -4-30.1735 144.676   8
  -8  -6   4 117.484 173.225  17
  -8   6  -4-180.944 279.792   4
   8  -6   5 280.620 199.601  14
   8  -6   5 236.048 199.967   6
  -8   6  -5 89.1952 75.3689  12
  -8  -6   5-11.0194 171.061  19
  -8   6  -5 288.793 32.5779  19
  -8   6  -5 520.325 236.320   5
   8   6  -5 208.479 214.779  18
   8   6  -5 118.284 169.023   8
  -8  -6   5 151.367 242.009  17
   8  -6   5 125.952 116.917   8
  -8   6  -5 515.078 229.807   4
   8  -6   6 353.065 237.708  14
   8  -6   6 168.957 207.589   6
  -8   6  -6 231.594 200.829  12
  -8  -6   6 83.2101 44.0678  19
   8  -6   6 228.702 136.863   1
  -8   6  -6 196.197 142.442  19
  -8   6  -6 377.231 187.443   5
   8   6  -6 90.4665 129.435  18
   8   6  -6 98.6320 107.862   8
  -8  -6   6 48.6731 93.0533  17
   8  -6   6 12.8685 102.382   8
  -8   6  -6 429.408 215.593   4
   8  -6   7 181.330 153.168  14
   8  -6   7 15.1915 55.1295   6
  -8   6  -7 157.798 103.668  12
  -8  -6   7-78.2779 29.9479  19
  -8   6  -7 116.155 87.7288   5
  -8   6  -7 241.896 183.832  19
   8   6  -7 103.782 149.854  18
   8   6  -7 58.8068 18.5879   8
   8  -6   7 145.042 114.906   1
  -8  -6   7 15.6549 163.094  17
   8  -6   7 146.238 153.989   8
  -8   6  -7 116.470 143.077   4
  -8   6  -7-181.827 388.726   3
   8  -6   8 492.890 253.968  14
   8   6  -8 242.529 135.532  13
   8  -6   8 264.121 199.159   6
  -8   6  -8 408.937 224.943  12
  -8  -6   8 137.614 125.096  19
  -8   6  -8 526.985 210.777   5
   8   6  -8 75.7347 139.600   1
  -8   6  -8 440.928 205.721  19
   6   8  -8 117.752 91.8221  18
   8   6  -8 575.744 337.525  18
   8   6  -8 353.739 184.079   8
  -6  -8   8 85.6404 130.133  17
  -8  -6   8 7.48161 136.980  17
   8  -6   8 377.493 210.746   8
  -8   6  -8 499.402 248.011   4
   8  -6   8 338.180 161.418   1
  -8   6  -8 321.149 314.597   3
  -8   6  -9 383.819 348.893   3
   8  -6   9 234.488 138.552  14
   8   6  -9 362.910 227.963  13
   8  -6   9 419.759 254.442   6
   6  -8   9 120.563 192.610   6
  -8   6  -9 304.159 198.784  12
  -6   8  -9 60.5865 133.007  12
   8  -6   9 242.307 128.177   1
  -8  -6   9-102.745 286.668   2
  -8   6  -9 207.503 131.908   5
  -8   6  -9 377.312 188.215  19
  -8  -6   9 34.8646 41.6429  19
   8   6  -9-22.0017 166.995   1
   6   8  -9 81.2510 64.0677  18
   8   6  -9 299.421 215.205  18
  -6  -8   9-111.885 142.749  17
   8   6  -9 373.621 167.303   8
  -8  -6   9 9.91088 158.433  17
   8  -6   9 202.988 143.359   8
  -8   6  -9 240.591 180.659   4
  -8   6 -10 38.7123 92.3204   3
   8   6 -10-148.431 180.105  13
   8  -6  10-29.4752 36.3382   6
   6  -8  10-48.5013 11.4367   6
  -6  -8  10-4.94655 60.2769   6
  -8   6 -10-47.0699 48.6343  12
  -6   8 -10 52.3610 97.5697  12
  -8   6 -10 94.6853 100.594   5
  -8  -6  10-226.891 287.672   2
  -8  -6  10-72.6296 79.2869  19
  -8   6 -10 3.30541 78.4092  19
   6   8 -10 81.8039 114.985  18
   8   6 -10 112.028 136.639  18
   8   6 -10-12.7066 142.408   1
  -6  -8  10 64.4698 185.973  17
   8   6 -10-26.7079 38.7145   8
  -8  -6  10 90.1803 96.5352  17
   8  -6  10-20.1397 49.4975   8
  -8   6 -10-122.174 154.949   4
  -6   8 -10-123.722 180.228   4
   8  -6  10 13.2857 46.4812   1
  -6   8 -10-56.8849 137.599   3
   8  -6  10 35.1095 67.5449  14
   6  -8  11 152.337 245.543  14
  -8   6 -11-14.1798 211.148   3
   6   8 -11-447.907 285.443  13
   8   6 -11 204.680 225.367  13
   8  -6  11 121.054 118.393   6
   6  -8  11-80.8789 109.015   6
  -6  -8  11 33.0188 90.4983   6
  -8   6 -11 296.076 233.262  12
  -6   8 -11 215.746 177.419  12
  -8   6 -11 236.227 133.312   5
  -8  -6  11-15.5727 57.3021  19
  -8  -6  11-272.699 269.271   2
  -8   6 -11 136.972 136.631  19
  -6   8 -11 195.021 97.1422   5
   8  -6  11 112.310 79.8887   1
   6   8 -11 220.865 196.807  18
   8   6 -11 76.4714 188.229  18
   8   6 -11 153.236 417.812   1
  -6  -8  11-219.352 295.530  17
  -8  -6  11-70.7407 147.009  17
  -8   6 -11 184.270 138.507   4
   8  -6  11 152.809 115.609   8
  -6   8 -11 82.5376 65.6007   4
  -6   8 -11-44.9235 206.524   3
   8  -6  11 147.030 59.6569  14
   6  -8  12 389.712 287.367  14
   6   8 -12 451.466 298.156  13
   8  -6  12 270.149 207.156   6
  -8   6 -12 258.376 305.896   3
   8   6 -12 434.316 294.910  13
  -6  -8  12 0.94203 54.2031   6
   6  -8  12 112.036 150.793   6
   8  -6  12 290.550 146.455   1
  -8   6 -12 646.102 314.686  12
  -6   8 -12 398.634 250.251  12
   8   6 -12 392.559 193.210  11
   8   6 -12 1531.91 464.096  20
  -8   6 -12 377.684 220.823   5
  -8  -6  12 327.643 160.177  19
  -6   8 -12 377.758 167.483   5
  -8  -6  12 254.058 241.929   2
  -8   6 -12 390.714 219.457  19
   6   8 -12 402.301 228.915  18
   8   6 -12 760.790 405.639  18
   8   6 -12 477.773 480.765   1
  -6  -8  12-240.931 249.507  17
  -8  -6  12 459.910 415.223  17
  -8   6 -12 340.702 261.676   4
   8  -6  12 309.828 179.659   8
  -6   8 -12 442.218 232.925   4
   8  -6  12 283.595 162.617  14
  -6   8 -12 384.714 344.677   3
  -6   8 -13 104.148 144.702   3
   6  -8  13 201.226 175.384  14
   8  -6  13 441.596 272.164   6
   6   8 -13 280.287 185.148  13
  -8   6 -13 148.938 108.644   3
   8   6 -13 258.235 155.224  13
   6  -8  13 328.821 255.912   6
  -8   6 -13 279.668 212.051  12
  -6   8 -13 320.276 198.118  12
   8   6 -13 328.849 252.303  11
  -8   6 -13 212.884 213.981   5
   8   6 -13 116.746 191.096  20
  -8   6 -13 347.330 224.266  19
  -8  -6  13 206.624 221.920   2
   6   8 -13 268.302 220.676  18
   8   6 -13 218.141 204.002  18
  -6  -8  13-63.0400 140.176  17
   8   6 -13 567.803 489.928   1
  -8  -6  13 5.62671 33.7833  17
  -8   6 -13 354.888 229.626   4
   8  -6  13 265.310 173.950   8
  -6   8 -13 304.340 198.725   4
   8   6 -13-34.0773 337.396   3
   8  -6  13 274.861 170.742  14
  -8  -7   4 121.765 197.206  17
   8   7  -5 406.774 207.550  18
  -8  -7   5 1.74874 151.895  17
   8   7  -6 10.9166 63.3252  18
   8   7  -6-164.615 213.094   8
  -8  -7   6-8.08468 55.0659  17
   8  -7   7 925.433 403.795  14
   8  -7   7 650.287 356.897   6
  -8   7  -7 1149.45 391.143  12
  -8   7  -7 2167.58 549.293   5
  -8  -7   7-91.6893 173.882  19
   7   8  -7 341.092 180.434  18
   8   7  -7 700.574 329.546  18
   8   7  -7 494.420 272.091   8
  -7  -8   7 153.369 208.609  17
  -8  -7   7 96.4091 128.056  17
   8  -7   7 83.1215 256.421   8
  -8   7  -7 1671.81 492.058   4
   8  -7   8 163.369 200.124  14
   8  -7   8 90.7272 176.685   6
  -8   7  -8 128.189 181.523  12
   8  -7   8 107.277 141.758   1
  -8  -7   8-14.3553 48.4868  19
  -8   7  -8 118.959 103.621   5
   7   8  -8 86.8983 133.697  18
   8   7  -8 140.914 167.338  18
   8   7  -8 110.165 153.922   8
  -7  -8   8-71.7615 96.5439  17
  -8  -7   8 3.00072 94.2560  17
   8  -7   8-160.583 326.542   8
  -8   7  -8 149.986 179.372   4
   8  -7   9 489.022 241.018  14
   8   7  -9 58.9798 307.145  13
   8  -7   9 331.666 203.982   6
   7  -8   9 310.840 297.026   6
  -8   7  -9 734.288 342.257  12
  -7   8  -9 598.844 270.398  12
  -8  -7   9 34.2938 110.100  19
   8  -7   9 557.916 211.851   1
  -8   7  -9 1222.65 347.858   5
  -8   7  -9 436.857 185.234  19
   7   8  -9 423.345 238.808  18
   8   7  -9 637.557 322.992  18
   8   7  -9 637.253 238.215   8
  -7  -8   9 43.5822 157.073  17
  -8  -7   9-60.4494 130.331  17
   8  -7   9 509.995 199.063   8
  -8   7  -9 940.547 350.941   4
  -7   8  -9 1380.55 478.778   4
  -8   7  -9 694.187 434.980   3
   8  -7  10 125.218 164.917  14
   7  -8  10 49.3132 124.494  14
   8   7 -10 208.562 122.363  13
   8  -7  10 80.0295 108.804   6
   7  -8  10 75.8407 177.636   6
  -8   7 -10 68.3415 64.8891  12
  -7   8 -10 121.868 156.641  12
  -7  -8  10-326.159 251.713  19
  -8  -7  10-78.6418 156.061  19
  -8   7 -10 151.389 115.414   5
  -8   7 -10-105.169 196.934  19
  -7   8 -10 122.177 74.7991   5
   7   8 -10 176.909 179.781  18
   8   7 -10-16.0073 43.0292  18
  -7  -8  10 134.484 172.437  17
  -8  -7  10 81.1559 182.013  17
   8  -7  10 92.2517 93.1804   1
   8  -7  10 58.6038 110.917   8
  -8   7 -10 162.364 153.014   4
  -7   8 -10 129.331 129.209   4
  -7   8 -10-32.6553 330.041   3
  -8   7 -10 147.629 186.552   3
   8  -7  11 55.0969 55.0259  14
  -8   7 -11 63.6129 149.791   3
   7  -8  11 105.256 166.736  14
   7   8 -11-260.133 333.952  13
   8   7 -11-21.6350 53.3869  13
   8  -7  11 139.617 176.492   6
   7  -8  11-36.5549 168.781   6
   8  -7  11 63.1480 88.3062   1
   7  -8  11 83.4011 143.145   1
  -8   7 -11 103.525 131.919  12
  -7   8 -11 39.7838 98.9127  12
  -8   7 -11 13.8897 43.7919   5
  -8  -7  11 104.349 143.738  19
  -7   8 -11 82.6981 50.9189   5
  -8   7 -11-75.4958 156.852  19
   7   8 -11 7.70888 65.1888  18
   8   7 -11 128.780 179.940  18
  -7  -8  11-204.891 140.196  19
  -7  -8  11-308.153 241.686  17
  -8  -7  11-60.2503 185.501  17
   8  -7  11 95.7639 109.847   8
  -8   7 -11-54.4600 132.455   4
  -7   8 -11 7.96708 112.237   4
  -7   8 -11-11.3002 194.951   3
   8   7 -12 38.5874 57.5812  13
  -8   7 -12 195.356 153.819   5
  -8  -7  12 196.449 124.816  19
  -7   8 -12 270.501 166.831   5
  -8   7 -12 62.0574 84.5973  19
   7   8 -12 151.600 163.423  18
   8   7 -12 122.779 175.185  18
  -7  -8  12 105.143 96.6449  17
  -8  -7  12-37.7071 82.4198  17
  -8   7 -12 115.448 91.0715   4
   8  -7  12 67.4564 121.714   8
   7  -8  12-312.537 549.496   8
  -7   8 -12 171.217 139.166   4
   8   8  -7 27.3680 44.2464  18
  -8  -8   7 84.6802 150.496  17
   8   8  -8 927.104 336.103  18
  -8  -8   8 57.4477 93.6952  17
   8  -8   9 85.4057 195.400   6
  -8   8  -9-258.176 314.485  12
  -8  -8   9-223.988 207.336  19
   8   8  -9 77.1437 104.293  18
  -8  -8   9-239.682 214.266  17
  -8   8  -9-33.5366 93.5495   4
  -8  -8  10 130.789 135.695  19
  -8   8 -10 1548.24 452.718   5
   8   8 -10 515.595 300.760  18
  -8  -8  10 79.9400 119.125  17
   8  -8  10-483.589 718.676   8
  -8   8 -10 1247.26 457.943   4
   8  -8  10 719.658 309.998   1
   9   0   0-15.7742 65.5741   6
  -9   0   0 33.8549 8.69874  12
   9   0   0-27.4936 120.709  11
   9   0   0-3.70539 97.4584   1
  -9   0   0-70.4766 111.792   5
  -9   0   0-2.23028 52.2252  19
  -9   0   0 22.3893 43.3194   2
   9   0   0 1.76677 59.3232  18
   9   0   0-14.9657 29.3164   8
  -9   0   0-14.7904 118.823   4
  -9   0   0-3.05729 35.4986  17
  -9   0   0-7.37046 45.0260   7
  -9   0   0 5.11563 43.4110  15
   9   0   0-11.0006 68.9803  14
   9   0   1 303.860 149.823   6
  -9   0  -1 22.6670 19.8661   3
   9   0  -1 378.042 162.665   6
   9   0  -1 219.995 91.9216  13
  -9   0  -1 9.76477 34.1997  12
  -9   0   1 211.786 108.568  12
   9   0   1 417.240 217.576   1
   9   0   1 572.438 223.633  11
   9   0  -1 607.798 253.967  11
  -9   0  -1 179.276 144.186   5
  -9   0   1 242.491 148.361   5
  -9   0  -1 143.484 85.8763  19
  -9   0   1 187.460 116.724  19
  -9   0  -1 84.9553 69.3247   2
   9   0  -1 230.815 174.697   1
   9   0   1 400.444 157.928  18
   9   0  -1 346.981 173.739  18
  -9   0   1 160.647 96.2363   2
  -9   0  -1 157.593 143.776   4
   9   0   1 273.177 170.547   8
  -9   0  -1 129.410 74.1817  17
   9   0  -1 319.104 178.698   8
  -9   0   1 216.593 144.259  17
  -9   0   1 168.726 129.112   4
  -9   0  -1 206.216 121.370   7
  -9   0  -1 193.737 107.544  15
   9   0   1 122.850 25.2730  14
   9   0  -1 330.194 208.150  14
   9   0  -2 45.1742 74.4991   6
   9   0   2-8.67732 75.0879   1
  -9   0  -2-4.56825 59.3138   3
   9   0  -2 90.9809 60.6411  13
  -9   0  -2 18.4948 51.3893  12
  -9   0   2 102.836 135.693  12
   9   0   2 21.5496 22.8958  11
   9   0  -2-125.573 159.722  11
  -9   0  -2-58.0541 128.467   5
  -9   0   2 67.6471 108.074  19
  -9   0   2 90.2902 98.2486   5
  -9   0  -2-2.31819 56.1918  19
   9   0   2-8.13413 57.0583  18
   9   0  -2 91.2779 125.495  18
   9   0  -2-28.5129 26.1824   1
  -9   0  -2 112.124 142.748   4
   9   0   2 0.94484 54.2601   8
  -9   0  -2 2.28307 26.5384  17
  -9   0   2-2.75628 10.7871   2
  -9   0   2 31.5698 141.911  17
   9   0  -2 15.9127 27.7579   8
  -9   0   2-6.89169 48.6914   4
  -9   0  -2 6.86112 70.3310   7
  -9   0  -2 5.78021 63.8614  15
   9   0   2 50.8877 88.0599  14
   9   0  -2 43.8954 81.7474  14
   9   0   2-25.0400 44.8396   6
   9   0  -3-10.7498 29.3373   6
  -9   0  -3 185.722 180.631  12
  -9   0  -3 25.2794 85.2828   3
   9   0   3 125.245 142.532  11
  -9   0  -3-149.523 173.413   5
   9   0  -3 29.6543 78.0011  11
  -9   0   3 80.0899 68.1559  19
  -9   0   3 158.128 137.435   5
   9   0   3 141.669 111.771  18
   9   0  -3 82.4495 86.8848  18
  -9   0  -3-10.3078 31.4233   4
   9   0   3 112.318 133.470   8
  -9   0  -3 22.0038 72.1161  17
   9   0  -3-11.6802 21.4192   1
  -9   0   3 24.1933 88.3921  17
   9   0  -3 40.3727 87.6215   8
  -9   0   3 9.37440 48.0994   4
  -9   0   3-13.5673 14.6147   2
   9   0   3 24.7644 67.6842  16
  -9   0  -3-8.62193 46.8400   7
  -9   0  -3 27.3063 116.468  15
  -9   0  -3 70.4704 116.822  19
   9   0   3 38.0718 49.0550  14
   9   0  -3-14.4842 21.9986  14
   9   0   3 2.86881 117.603   1
   9   0   3 104.147 130.427   6
   9   0  -4-41.9555 41.3012   6
   9   0   4 40.6576 81.0027  11
  -9   0  -4-75.2287 133.194   5
   9   0  -4 52.5892 91.4979  11
  -9   0   4 59.8342 99.2841   5
  -9   0  -4-95.9366 122.665  19
  -9   0   4 89.1968 94.6284  19
   9   0   4 40.9304 80.5267  18
   9   0  -4-10.4032 108.854  18
  -9   0  -4-87.9943 135.112   4
   9   0   4-21.5864 55.2261   8
  -9   0  -4 26.0853 81.9590  17
  -9   0   4-31.6257 93.8121  17
   9   0  -4 32.3730 15.5544   8
  -9   0   4-11.7840 40.7741   4
   9   0   4 13.0429 50.2037  16
  -9   0   4-10.6357 37.7273   2
  -9   0  -4-49.7377 145.007   7
   9   0  -4 34.9652 74.5922   1
  -9   0  -4-129.337 145.257  15
   9   0   4 105.369 155.822   1
   9   0   4 75.1228 133.987  14
   9   0   4 33.8661 94.9424   6
   9   0  -4-119.803 125.332  14
   9   0  -5 229.000 82.7501   6
   9   0   5 491.814 148.753  11
  -9   0  -5 44.3562 89.7278   5
   9   0  -5 168.011 243.205  11
  -9   0   5 290.856 163.914   5
  -9   0  -5 111.786 104.045  19
  -9   0   5 216.947 140.542  19
   9   0   5 304.416 142.189  18
   9   0  -5 412.180 262.924  18
  -9   0  -5 20.9708 32.7401   4
   9   0   5 362.344 262.458   8
  -9   0  -5 149.857 95.1448  17
  -9   0   5 252.030 228.077  17
   9   0  -5 280.114 142.208   8
  -9   0   5 65.8059 80.7705   4
   9   0   5 230.542 253.982   1
  -9   0  -5-57.8002 272.581   7
   9   0   5 286.370 126.909  16
  -9   0   5 89.3554 41.6881  16
  -9   0   5 122.701 85.2197   2
  -9   0  -5-236.197 318.614  15
   9   0  -5 95.6011 133.192   1
   9   0   5 157.343 158.970  14
   9   0   5 114.708 131.616   6
   9   0  -5 192.780 129.252  14
   9   0  -6 31.7850 95.0464   1
   9   0  -6 53.1378 47.3456   6
   9   0  -6 44.3049 185.086  11
  -9   0   6-24.2617 68.7375   5
  -9   0   6-9.48041 73.3322  19
   9   0   6-38.9804 51.7706  18
   9   0  -6 59.6819 122.707  18
  -9   0  -6-123.040 241.680   4
   9   0   6-15.1487 65.1838   8
   9   0   6-27.1163 120.032   1
  -9   0  -6-27.2440 71.0820  17
  -9   0   6 48.9770 96.2708  17
  -9   0  -6-50.5015 134.445  19
   9   0  -6 51.5774 83.2290   8
  -9   0   6-30.5429 44.7584   4
   9   0   6 25.2938 61.2144  16
  -9   0   6 13.6283 11.1093  16
  -9   0   6-11.2891 46.9349   2
   9   0   6 32.4335 135.006  14
   9   0   6-14.5082 61.8406   6
   9   0  -6-27.2521 71.4322  14
   9   0  -7 143.373 69.9403   6
   9   0  -7 180.837 153.806   1
   9   0  -7 104.284 156.244  11
  -9   0  -7 63.0401 105.975  19
  -9   0   7 146.811 159.418   5
  -9   0   7 107.321 125.059  19
   9   0   7 152.331 95.8399   1
   9   0   7 269.792 115.970  18
   9   0  -7 70.8489 79.5249  18
   9   0   7 111.494 98.9717   8
  -9   0  -7 29.9658 63.6060  17
  -9   0   7 110.929 134.228  17
   9   0  -7-15.3486 159.294   8
  -9   0   7 139.099 101.572   4
   9   0   7 221.523 139.802  16
  -9   0   7 117.783 73.3006  16
  -9   0   7 190.462 146.072   2
   9   0   7 100.078 75.0175  14
   9   0   7 65.9903 118.449   6
   9   0  -7 77.0343 125.885  14
   9   0  -8-27.0492 44.1253   6
   9   0  -8 13.1408 41.1126   1
   9   0  -8 135.241 207.279  11
  -9   0  -8-136.002 193.738  19
  -9   0   8-138.098 188.732   5
  -9   0   8 53.8902 67.6604  19
   9   0   8-1.96461 33.7904  18
   9   0  -8 93.5153 115.799  18
   9   0   8 22.8299 111.505   8
  -9   0  -8 2.68901 48.2175  17
  -9   0   8 88.7810 157.219  17
  -9   0   8-33.0488 66.5215   4
   9   0   8-48.3677 24.2717  16
  -9   0   8-2.32367 60.5182  16
  -9   0   8 96.2340 132.672   2
   9   0   8 135.623 186.326  14
   9   0   8 94.5677 105.853   6
   9   0  -8 14.7555 54.7357  14
   9   0  -9 87.8978 150.546  11
   9   0  -9-35.7413 64.3184   1
  -9   0  -9-12.8854 105.998  19
  -9   0   9 52.4989 121.097   5
  -9   0   9-90.1423 137.278  19
   9   0   9 100.997 79.0230  18
   9   0  -9 39.8379 47.0855  18
   9   0   9 121.608 154.791   8
  -9   0  -9-35.8474 38.1731  17
  -9   0   9 125.336 180.589  17
  -9   0   9 51.4813 86.4156   4
   9   0   9-51.9029 136.905  16
  -9   0   9 164.520 162.396  16
  -9   0   9 88.3718 146.469   2
   9   0   9-22.4762 53.4474  14
   9   0   9 31.5109 84.0595   6
   9   0  -9-28.2077 87.7610  14
   9   0 -10-84.3398 146.356  11
  -9   0 -10 58.6555 171.633  19
  -9   0  10 64.4929 27.9452   5
   9   0 -10-69.8133 156.731   1
   9   0  10 24.2050 42.3030  18
   9   0 -10 45.3794 159.191  18
   9   0  10-53.7673 26.0387   8
  -9   0 -10-61.4363 62.1968  17
  -9   0  10-36.5693 96.5421  17
  -9   0  10-54.5087 106.177   4
   9   0  10 51.7436 109.287  16
  -9   0  10-52.6391 105.143  16
   9   0  10 98.5673 159.454  14
   9   0  10 48.6158 70.4789   6
  -9   0  10-38.3893 62.6501   2
   9   0 -10 64.3740 127.362  14
   9   0 -11-26.1736 234.936  11
  -9   0 -11 127.051 231.371  19
  -9   0  11 396.466 248.137   5
   9   0 -11 153.183 229.979   1
   9   0 -11 97.3234 14.9345  18
  -9   0 -11 8.37217 39.2475  17
   9   0  11 291.707 225.875   8
  -9   0  11 216.464 167.319  17
   9   0  11 292.280 190.408  16
  -9   0  11 314.141 168.959   4
  -9   0  11 139.376 107.593  16
   9   0  11 324.415 325.908   6
  -9   0  11 115.557 113.956   2
   9   0 -11 209.115 190.299  14
   0  -9  12-33.2567 35.7549   6
   9   0 -12-236.429 340.609  11
  -9   0 -12 7.08062 96.6660  19
  -9   0  12-4.21494 70.6960   5
   0   9 -12-92.9975 213.666  18
   9   0 -12-263.277 290.752  18
   9   0  12-98.1409 179.920   8
   0  -9  12 23.1979 195.143  17
   9   0 -12 16.5366 111.252   1
  -9   0  12 5.14815 129.777  17
   9   0  12-8.99275 64.8255  16
  -9   0  12 45.0843 109.326   4
  -9   0  12 120.422 168.664  16
   9   0  12 36.8727 120.961   6
   0   9 -12-185.499 319.331   3
  -9   0  12-49.2311 129.536   2
   9   0 -12 120.797 141.038  14
   0   9 -13 21.7709 580.267  13
   0  -9  13 232.135 265.596   6
   9   0 -13-342.800 506.549  11
  -9   0 -13 19.7950 72.2340  19
  -9   0  13 1412.38 518.293   5
   0   9 -13 1281.95 524.526  18
  -9   0  13 1427.48 410.923   4
   9   0 -13 43.4077 168.879  18
   9   0  13 1230.92 499.906   8
   0  -9  13 259.800 311.970  17
  -9   0  13 1083.43 474.640  17
   9   0 -13 602.662 347.317   1
   9   0  13 1305.23 485.571  16
  -9   0  13 663.236 329.186  16
   9   0  13 437.403 325.594   6
   0   9 -13 930.656 390.520   3
  -9   0  13 1215.66 455.030   2
   9   0 -13 438.021 227.238  14
   9   0 -14 43.8000 95.8507  14
   0   9 -14-194.097 334.368  13
   0  -9  14 209.926 139.725   6
   9   0 -14-562.941 598.629  11
  -9   0 -14-24.4329 199.963  19
  -9   0  14 278.832 266.395   5
   0   9 -14-62.5996 176.416  18
   9   0 -14-453.113 420.384  18
   9   0  14 182.589 218.987   8
   0  -9  14 3.36307 426.580  17
  -9   0  14-83.1162 228.030  17
   9   0 -14-78.8192 181.272   1
   9   0  14-13.9982 129.339  16
  -9   0  14 51.5301 179.644  16
  -9   0  14-86.0242 168.691   4
   9   0  14-844.946 426.345   6
  -9   0  14-97.2889 140.942   2
   0   9 -14 96.7703 147.298   3
   9   0 -15 126.302 132.406  14
   0   9 -15 432.857 392.607  13
   0  -9  15 131.141 245.480   6
   0   9 -15 61.3279 253.108  12
   9   0 -15-428.098 630.151  11
  -9   0 -15 238.897 280.420  19
  -9   0  15 606.843 371.586   5
   0   9 -15 289.912 208.659  18
   9   0  15 444.558 274.911   8
   0  -9  15 123.258 277.948  17
  -9   0  15 137.659 187.816  17
   9   0  15 343.432 337.588  16
  -9   0  15 259.774 200.497  16
  -9   0  15 438.940 214.041   4
   9   0 -15 154.574 242.147   1
  -9   0  15 452.217 315.714   2
   0   9 -15 247.428 218.036   3
  -9  -1   0 44.3762 58.8134   3
   9   1   0 696.342 316.478   1
  -9  -1   0 352.842 139.767  12
  -9   1   0 436.403 211.072  12
   9   1   0 1417.56 327.949  11
  -9   1   0 596.060 163.353   2
  -9  -1   0 334.650 216.905   5
   9  -1   0 100.094 335.389  11
  -9   1   0 613.055 262.870   5
  -9  -1   0 56.2482 114.281   2
  -9  -1   0 468.789 247.666  19
  -9   1   0 647.892 243.629  19
   9   1   0 885.027 298.039   9
   9   1   0 1085.67 310.971  18
   9   1   0 1042.63 329.818   8
   9  -1   0 820.873 263.684   8
   9  -1   0 1046.11 350.552  18
  -9  -1   0 190.326 96.9083   4
  -9  -1   0 560.914 227.954  17
   9  -1   0 754.288 272.957   1
  -9   1   0 557.922 262.515  17
  -9   1   0 752.625 261.659   4
   9  -1   0 862.988 224.239   6
   9   1   0 856.486 362.591  14
   9   1   0 819.392 311.927   6
   9  -1   0 901.190 305.143  14
   9  -1   1 57.9910 69.4014   6
   9  -1  -1 69.7780 65.5419   6
   9   1  -1 36.6526 119.370   1
  -9  -1  -1 32.0688 52.7455   3
  -9  -1   1 42.3458 67.8540  12
  -9   1  -1 47.0851 74.2813  12
  -9   1   1-0.42494 108.360  12
   9   1   1-129.895 151.003  11
   9   1  -1 43.8860 88.1354  11
  -9  -1  -1 88.7645 101.018   5
  -9  -1   1 39.8304 71.2463   5
   9  -1   1-470.841 484.518  11
   9  -1  -1-260.575 388.918  11
  -9   1  -1-40.2734 43.7948  20
  -9   1  -1-32.4581 66.1314   5
  -9   1   1 36.3644 43.5717   5
  -9  -1  -1-108.066 186.415  19
  -9  -1   1-131.175 148.251  19
  -9   1   1 22.2321 60.3728  19
   9   1   1-27.2783 39.5662   9
   9   1  -1 66.4184 109.254   9
  -9  -1   1 4.92805 24.4147   2
   9   1   1-22.1277 86.4002  18
   9   1  -1 7.02078 88.5610  18
   9  -1   1 16.5918 20.3091   1
   9  -1   1-46.6384 108.049  18
   9  -1  -1 156.935 155.252  18
  -9  -1  -1-109.583 165.379   4
  -9   1  -1-10.6461 37.2169   2
  -9  -1   1 24.5515 46.8320   4
   9   1   1 68.2705 83.6343   8
  -9  -1  -1-107.015 136.408  17
   9   1  -1-6.08329 94.4911   8
  -9  -1   1 15.5577 71.0069  17
   9  -1   1 7.30141 43.9744   8
  -9   1  -1-48.5574 158.001  17
   9  -1  -1-15.3258 59.9250   8
  -9   1   1-18.0933 16.8353  17
  -9   1  -1-22.0087 77.4976   4
  -9   1  -1-3.35261 16.5560  19
  -9   1   1-18.7802 45.9252   4
  -9   1   1 9.49470 28.1038   2
   9  -1  -1-78.9592 118.732   1
   9   1   1 7.85180 60.0881   1
   9   1   1-44.6530 138.921  14
   9   1   1-177.626 251.093   6
   9   1  -1-70.6186 127.385  14
   9   1  -1 9.08070 107.705   6
   9  -1   1 33.5654 52.4064  14
   9  -1  -1 44.6353 72.2845  14
  -9   1  -2 2.27234 40.1098   3
   9  -1  -2 349.265 192.911   1
   9  -1   2 347.613 171.943   6
   9   1  -2 179.115 98.7985  13
   9  -1  -2 244.357 115.376   6
  -9   1  -2 65.9945 63.4391  12
  -9  -1   2 236.911 142.881  12
   9   1  -2 298.602 234.690   1
   9   1  -2 595.153 246.859  11
  -9  -1  -2 172.464 177.626   5
  -9  -1   2 198.883 159.488   5
   9  -1   2-345.419 471.114  11
  -9   1  -2 115.384 113.807   5
  -9   1  -2 244.165 5.79422  20
  -9   1   2 261.109 161.756   5
  -9  -1  -2 99.7725 100.702  19
   9  -1   2 238.243 154.267   1
  -9  -1   2 51.0344 96.6786  19
  -9   1  -2 128.620 133.543  19
  -9   1   2 356.278 177.942  19
   9   1  -2-164.355 264.827   9
  -9   1  -2 191.726 101.876   2
   9   1   2 433.514 204.526  18
   9   1  -2 260.227 164.480  18
  -9  -1   2 140.855 119.000   2
   9  -1   2 421.140 210.645  18
   9  -1  -2 296.861 209.679  18
  -9  -1  -2 139.768 183.277   4
   9   1   2 440.234 257.697   8
  -9  -1   2 185.873 161.732   4
  -9  -1  -2-17.6008 78.6662  17
   9   1  -2 236.846 130.792   8
  -9  -1   2 154.970 134.027  17
   9  -1   2 305.336 168.033   8
  -9   1  -2 137.344 131.546   4
  -9   1  -2 19.7417 49.7935  17
  -9   1   2 111.434 151.378  17
   9  -1  -2 180.409 132.273   8
  -9   1   2 252.877 164.128   4
   9   1   2 251.370 104.289  16
  -9  -1   2 3.81526 195.872   7
  -9   1   2 241.011 110.995   2
   9   1   2 259.212 236.612   1
  -9  -1   2-0.67735 169.844  15
   9   1   2 203.307 208.132   6
   9   1   2 304.348 248.900  14
   9   1  -2 222.195 187.314  14
   9   1  -2 256.386 173.866   6
   9  -1   2 287.077 173.734  14
   9  -1  -2 245.495 167.285  14
   9  -1   3 56.8020 72.9327   6
  -9   1  -3 55.4395 115.604   3
   9   1  -3 74.8003 61.6426  13
   9  -1  -3 45.0245 33.3867   6
  -9   1  -3-27.8738 70.3987  12
   9  -1  -3 123.885 95.3946   1
  -9  -1   3-50.1834 54.9479  12
   9  -1   3 38.3449 72.8237   1
  -9  -1  -3-53.1081 156.104   5
   9   1  -3 121.024 166.625  11
  -9   1  -3 40.8555 51.2791   5
   9   1  -3-6.21989 72.4326   1
  -9  -1   3 49.7295 124.424   5
   9  -1  -3-306.452 427.650  11
  -9   1  -3-668.865 380.064  20
  -9  -1  -3-5.69987 119.028  19
  -9   1   3 125.433 107.076   5
  -9   1  -3-106.021 156.543  19
  -9  -1   3 10.7958 74.2757  19
  -9   1   3 158.063 113.956  19
   9   1  -3-681.657 466.135   9
   9   1   3 147.536 135.744  18
   9   1  -3 79.4592 131.214  18
   9  -1   3 144.323 117.367  18
  -9  -1  -3-9.11583 106.192   4
   9  -1  -3 355.650 290.543  18
  -9  -1   3 74.3399 91.9452   2
   9   1   3 137.551 112.273   8
  -9  -1  -3 74.1936 96.1270  17
  -9  -1   3-10.8647 30.4785   4
   9  -1   3 110.304 109.895   8
  -9   1  -3 85.3018 95.5154   4
  -9  -1   3-3.68132 37.8145  17
   9   1  -3 58.1148 76.8440   8
  -9   1  -3 92.6480 91.5191  17
  -9   1   3 345.271 308.215  17
   9  -1  -3 42.1942 63.8141   8
   9   1   3 157.319 151.160   1
  -9   1   3 146.982 152.590   4
  -9  -1   3-21.9637 118.106   7
   9   1   3 66.3189 56.8502  16
  -9  -1   3-37.6676 53.7887  15
  -9   1   3 181.232 129.720   2
  -9   1  -3 87.4301 110.299  15
   9   1   3 313.551 231.533   6
   9   1   3 58.7064 149.105  14
   9   1  -3 94.0202 197.567  14
   9  -1   3 40.9028 43.6330  14
   9   1  -3 86.4800 79.4553   6
   9  -1  -3 92.9373 128.096  14
   9  -1   4 1.03197 67.0009   6
   9   1  -4 51.4386 61.7458  13
   9  -1   4-66.7903 89.1892   1
  -9   1  -4-31.7400 45.2829   3
   9  -1  -4-1.12958 16.9944   6
  -9   1  -4 42.0270 80.6396  12
   9   1  -4 133.615 158.776  11
  -9   1  -4-24.6346 70.5010   5
   9  -1  -4-11.8701 53.2275   1
  -9  -1   4 47.2449 104.582   5
  -9  -1  -4 85.3769 47.1652  19
  -9   1   4-99.9371 87.2716   5
  -9   1  -4-78.9968 148.130  19
  -9  -1   4-20.9233 85.4533  19
   9   1  -4-16.8469 80.4790   1
  -9   1   4-32.1885 32.5529  19
   9   1   4 55.1364 90.9829  18
   9   1  -4-2.97720 55.2859  18
   9  -1   4 22.8701 77.6398  18
   9  -1  -4-26.9770 98.1010  18
   9   1   4-24.2366 31.8913   8
  -9  -1  -4 73.6220 73.4618  17
   9   1   4 67.1973 113.379   1
  -9  -1   4 27.8153 39.8648   2
  -9   1  -4-69.5564 29.8791   4
   9  -1   4-28.6439 90.3445   8
  -9  -1   4-22.5507 45.3844   4
  -9  -1   4-43.7697 81.5826  17
   9   1  -4-60.0229 79.7701   8
  -9   1  -4 72.1836 98.3213  17
  -9   1   4 89.8219 117.477  17
   9  -1  -4 7.66582 43.3958   8
  -9   1   4 52.2781 92.3016   4
  -9  -1   4 71.0821 89.9464   7
   9   1   4-29.9935 70.9303  16
  -9   1  -4 45.6554 124.454   7
  -9  -1   4 28.4328 31.2540  15
  -9   1  -4 5.80308 102.193  15
  -9   1   4 67.3537 54.0893   2
   9   1   4-43.3934 70.2352   6
   9   1   4 33.7103 162.789  14
   9   1  -4-57.5416 124.431  14
   9  -1   4-3.23055 85.5917  14
   9   1  -4 1.04267 41.0114   6
   9  -1  -4-33.7373 43.2385  14
   9   1  -5-29.3373 47.8868   6
   9  -1   5-13.9286 27.9774   6
  -9   1  -5 112.929 173.936  12
   9  -1  -5 32.5196 22.1896   6
  -9   1  -5 47.4673 73.8704   3
   9   1  -5 72.3690 109.465  11
  -9   1  -5 67.2003 118.131   5
  -9  -1   5-76.7664 127.794   5
  -9  -1  -5-67.9816 184.875  19
  -9   1  -5 52.1070 71.4329  19
  -9   1   5 10.1078 30.4468  19
   9  -1  -5-26.1010 19.4085   1
   9   1   5-35.6672 108.861  18
   9   1  -5 25.9635 91.7084   1
   9   1   5-61.1536 188.474   1
   9   1  -5 73.3358 106.192  18
   9  -1   5 27.2031 16.8969  18
   9  -1  -5 4.03764 79.7117  18
   9   1   5 7.00382 117.903   8
  -9  -1  -5-38.1598 87.1602  17
  -9   1  -5-26.7436 66.0469   4
   9  -1   5-54.4034 79.2302   8
  -9  -1   5 3.86338 56.0885  19
  -9  -1   5 62.1482 113.018  17
  -9   1  -5 15.9289 44.5292  17
  -9  -1   5 10.0719 31.5351   2
  -9   1   5 43.3686 115.392   5
  -9  -1   5 6.82209 12.6614   4
   9   1  -5 51.3245 62.8666   8
  -9   1   5-0.65451 110.087  17
   9  -1  -5 16.2957 73.7903   8
   9  -1   5 24.5526 60.5134  16
  -9   1   5 31.6334 19.8935   4
  -9  -1   5 82.4139 87.9198   7
   9   1   5 41.3309 53.4417  16
  -9   1  -5-11.2278 53.5812   7
  -9  -1   5 34.3507 77.5781  15
  -9   1  -5-8.95156 50.7200  15
   9   1   5 6.42930 111.120   6
   9   1   5-102.113 101.005  14
  -9   1   5 7.43192 12.8808   2
   9  -1   5 31.1870 74.3223  14
   9   1  -5-63.3695 112.790  14
   9  -1   5-55.7131 61.1668   1
   9  -1  -5-30.6524 43.1248  14
   9  -1  -6 100.439 153.935  14
  -9   1   6 5.51705 94.9864   2
   9   1  -6 82.8761 55.9984   6
  -9   1  -6 190.687 244.087  12
   9  -1  -6 181.170 118.152   6
  -9   1  -6 220.311 221.110   3
  -9   1  -6 15.2209 54.5753   5
   9   1  -6 283.455 250.177  11
   9  -1  -6-728.004 591.757  11
  -9  -1   6 48.8460 78.7151   5
  -9  -1  -6-63.0889 161.301  19
  -9   1  -6 91.5123 159.821  19
   9   1   6 136.525 142.198   1
  -9   1   6 145.553 190.487   5
  -9  -1   6 34.1627 86.4023  19
  -9   1   6 100.672 97.3113  19
   9   1   6 167.724 105.103  18
   9  -1   6 148.727 96.4727  18
   9   1  -6 93.5175 103.302  18
   9  -1  -6-104.370 182.680  18
   9   1  -6 95.0137 155.516   1
   9   1   6 63.4363 45.4959   8
  -9   1  -6 93.6633 138.514   4
  -9  -1  -6 151.744 143.869  17
   9  -1  -6 160.808 140.657   1
   9  -1   6 180.121 132.768   8
  -9  -1   6 181.520 199.190  17
  -9   1  -6 13.2650 30.8480  17
  -9  -1   6 162.386 126.058   4
   9   1  -6 94.7971 65.5023   8
  -9   1   6 107.704 197.643  17
  -9  -1   6 81.5689 85.6129   2
  -9  -1   6 103.199 49.2528  16
   9  -1  -6-134.572 305.509   8
   9  -1   6 166.636 116.704  16
  -9   1  -6 32.8166 68.0084   7
  -9   1   6 117.870 121.963   4
   9   1   6 186.453 149.085  16
   9  -1   6 182.060 164.912   1
  -9   1  -6 137.227 109.251  15
   9   1   6 77.2561 143.293   6
   9   1   6 154.008 107.165  14
   9  -1   6 104.075 138.217  14
   9   1  -6 114.970 148.282  14
   9  -1   6 10.8003 41.0922   6
   9  -1  -7 85.2766 149.726  14
  -9   1   7 189.458 147.547   2
   9   1  -7 123.211 58.0288   6
  -9   1  -7-232.632 257.883   5
   9   1  -7 16.4131 11.5731  11
  -9  -1   7 79.1952 125.598   5
  -9  -1  -7-77.4674 24.1288  19
  -9   1  -7 90.7015 139.820  19
  -9   1   7 68.6628 102.406   5
  -9  -1   7 25.8020 82.1549  19
  -9   1   7 10.8168 38.2396  19
   9   1   7 201.006 120.149  18
   9  -1   7 184.707 100.658  18
   9   1  -7 86.0767 79.7754  18
   9  -1  -7-80.6985 248.944  18
  -9   1  -7-34.7585 60.5126   4
   9   1   7 111.954 111.838   8
  -9  -1  -7 45.3437 73.5703  17
   9  -1   7 74.6748 150.522   8
  -9   1  -7 114.776 109.219  17
  -9  -1   7 101.869 142.873  17
   9   1  -7 243.796 186.189   1
   9  -1   7 174.010 238.312   1
  -9   1   7-23.2982 33.3405  17
  -9  -1   7 102.523 109.054   4
   9   1  -7 96.3824 90.2278   8
  -9  -1   7 137.428 125.569   2
   9  -1   7 319.709 183.086  16
  -9  -1   7 111.328 61.1784  16
   9  -1  -7 53.3003 27.0195   1
  -9   1  -7 31.9456 94.4093   7
  -9   1   7 61.9608 77.1413   4
   9   1   7 254.226 159.035  16
  -9   1  -7 86.0447 112.303  15
   9   1   7-39.5217 160.360   6
   9  -1   7 124.160 105.485  14
   9   1  -7 154.785 184.937  14
   9  -1   7 113.112 112.190   6
   9  -1  -8 76.2317 143.202  14
  -9   1   8 201.579 182.999   2
   9   1  -8 78.5696 43.7089   6
  -9   1  -8 8.71578 43.0658  13
  -9   1   8-181.872 218.509  19
   9   1  -8-27.2256 169.768  11
  -9  -1   8 79.1654 178.096   5
  -9  -1  -8 89.1020 152.508  19
  -9   1  -8 108.516 158.377  19
  -9   1   8 112.858 131.202   5
  -9  -1   8 126.758 132.415  19
   9   1   8-0.47728 131.400  18
   9  -1   8 128.808 67.4509  18
   9   1  -8 68.0537 83.8081  18
  -9   1  -8-92.6114 127.582   4
   9  -1  -8-322.997 376.129  18
   9  -1   8 177.430 221.529   1
   9   1   8-18.6505 97.7060   8
  -9  -1  -8-17.8262 31.4439  17
   9  -1   8 198.727 134.925   8
  -9   1  -8 84.7663 78.4713  17
  -9  -1   8 152.854 118.025  17
  -9   1   8 28.4747 114.752  17
  -9  -1   8 150.189 124.130   4
   9   1  -8 140.812 85.5738   8
   9   1  -8 3.53303 58.3111   1
   9  -1   8 250.078 162.934  16
  -9  -1   8 108.106 109.977   2
  -9  -1   8 116.115 68.5314  16
  -9   1  -8-41.5394 197.074   7
   9   1   8 135.575 99.3913  16
  -9   1   8 136.250 103.859   4
  -9   1  -8-55.8280 200.163  15
   9   1   8-240.263 373.080   6
   9  -1   8 104.764 126.529  14
   9   1  -8 131.729 179.551  14
   9  -1  -8 43.4666 79.3451   1
   9  -1   8 192.771 161.881   6
   9  -1  -9 27.4519 96.3032  14
  -9   1   9 80.4317 140.729   2
  -9   1  -9 81.7211 112.420  13
   9  -1  -9 67.0856 145.075   1
   9   1  -9 37.5231 24.4088   6
   9   1  -9 19.9042 35.4487  11
  -9  -1   9 11.6303 52.0830   5
  -9  -1  -9 185.574 232.808  19
  -9   1  -9 114.158 182.127  19
   9  -1   9-78.5423 245.162   1
  -9  -1   9 94.2699 107.023  19
  -9   1   9 86.4616 78.3031   5
   9  -1   9 74.6781 50.2946  18
   9   1  -9-13.0464 70.7157  18
   9   1   9 133.163 208.700   8
   9  -1   9 137.575 70.9681   8
  -9   1  -9 18.0468 35.8308  17
  -9  -1   9 53.7652 54.9729  17
  -9   1   9-128.504 246.699  17
  -9  -1   9 51.0691 109.687   4
  -9   1  -9-176.220 278.877   7
   9  -1   9 138.206 125.092  16
  -9  -1   9 54.9883 75.9849  16
  -9  -1   9-37.6708 98.0521   2
   9   1   9 107.248 111.034  16
  -9   1   9 0.80556 44.6649   4
  -9   1  -9-223.488 260.438  15
   9   1  -9-112.445 131.883   1
   9   1   9-340.229 443.454   6
   9  -1   9 136.734 178.927  14
   9  -1   9 112.327 142.376   6
   9   1  -9-14.5630 86.6587  14
   9  -1 -10 82.3420 88.4406  14
  -9   1  10 143.507 180.986   2
   9  -1 -10 169.561 226.339   1
   9   1 -10-32.4797 150.408  11
  -9  -1 -10 74.4319 154.552  19
  -9  -1  10 88.7312 151.522   5
  -9   1 -10 39.0872 145.554  19
  -9  -1  10 72.7819 124.135  19
  -9   1  10 129.795 166.328   5
   9  -1  10 139.436 72.2325  18
   9   1 -10 91.5922 96.8886  18
   9   1  10 34.1502 17.0539   8
   9  -1  10 119.576 140.535   8
  -9  -1  10 65.6841 103.697  17
  -9   1  10-197.052 336.458  17
  -9  -1  10 53.8052 19.4279   4
   9  -1  10 249.489 184.112  16
  -9  -1  10 41.4964 48.6840  16
  -9  -1  10 117.243 124.054   2
   9   1  10 245.135 231.594  16
  -9   1  10-12.2915 120.480   4
   9   1  10-572.463 524.872   6
   9  -1  10 173.572 213.426  14
   9   1 -10 91.4543 99.3839   1
   9  -1  10 231.428 239.262   6
   9   1 -10 63.6415 114.521  14
   9  -1 -11 197.724 229.257  14
   9   1 -11 123.533 131.406   1
  -9   1  11 117.210 172.070   2
  -9  -1  11 180.615 172.074   5
   9   1 -11 20.8172 15.0354  11
   9  -1 -11 92.7629 224.796   1
  -9  -1 -11-85.1921 158.151  19
  -9   1 -11 158.508 203.255  19
  -9   1  11 215.536 245.812   5
   9   1 -11-41.3498 121.037  18
   9   1  11-60.5865 35.3341   8
   9  -1  11 170.595 150.796   8
  -9  -1  11 82.9796 141.331  17
  -9   1  11-235.588 405.804  17
  -9  -1  11 143.492 117.453   4
   9  -1  11 176.272 212.172  16
  -9  -1  11 29.7794 54.6460  16
   9   1  11 128.996 148.285  16
  -9  -1  11 44.4556 89.4277   2
   9  -1  11 157.339 208.758  14
   9  -1  11 48.1240 91.2471   6
   9   1 -11 56.8698 86.2401  14
   9  -1 -12 505.491 326.347  14
   1   9 -12-30.3209 629.141  13
  -9   1  12 807.779 419.718   2
   9   1 -12 461.022 285.107   1
   1  -9  12 44.8519 209.355   6
  -1  -9  12-13.5270 79.1056   6
   9   1 -12 197.775 201.119  11
  -9  -1 -12 207.786 274.233  19
  -9   1 -12-12.3224 132.369  19
  -9  -1  12 712.047 319.354   5
  -9   1  12 1200.80 525.124   5
  -1   9 -12 425.775 42.0080  18
   1   9 -12 318.983 188.396  18
   9  -1 -12 528.061 377.502   1
   9   1 -12 450.465 262.570  18
   9   1  12 854.432 482.381   8
   1  -9  12 117.110 220.887  17
  -1  -9  12-113.121 158.547  17
   9  -1  12 867.997 365.126   8
  -9  -1  12 653.243 334.745  17
  -9  -1  12 779.190 289.850   4
   9  -1  12 1132.66 413.494  16
  -9  -1  12 742.224 276.604  16
   9   1  12 621.779 384.655  16
  -9  -1  12 613.212 294.225   2
   9  -1  12 575.546 342.008  14
   9  -1  12 457.611 266.601   6
  -1   9 -12 451.198 217.592   3
   9   1 -12 413.274 227.145  14
   1   9 -13-378.477 539.036  13
   1  -9  13-50.7406 116.561   6
  -1  -9  13 46.5316 183.121   6
   9   1 -13 78.5078 161.235   1
   9   1 -13-44.3921 192.423  11
  -9  -1 -13-22.4269 74.7999  19
  -9   1 -13-327.702 294.737  19
  -9  -1  13 65.8158 54.0388   5
  -1   9 -13 98.7985 131.987  18
   1   9 -13 147.182 176.185  18
   9   1 -13 160.337 69.2507  18
   9   1  13 295.000 332.641   8
   1  -9  13 282.100 397.330  17
  -1  -9  13-96.5434 145.015  17
   9  -1  13-196.045 230.644   8
  -9  -1  13 102.836 152.300  17
  -9  -1  13 179.944 123.865   4
   9  -1  13 272.622 300.225  16
  -9  -1  13 95.7455 72.5831  16
   9   1  13 4.55329 68.1124  16
  -9  -1  13 12.8722 109.338   2
   9  -1  13-41.1705 105.049   6
   1   9 -13-1.16622 195.112   3
  -1   9 -13 173.116 201.614   3
   9   1 -13 1.72135 30.5134  14
  -1   9 -14-69.5276 512.786  13
   1   9 -14 787.284 498.428  13
  -1  -9  14 127.006 95.1210   6
   1  -9  14 211.917 209.088   6
  -1   9 -14 744.348 226.048  12
   9   1 -14 662.036 369.719   1
   9   1 -14 177.278 118.770  11
  -9  -1 -14 119.136 273.758  19
  -9   1 -14 11.3722 68.4015  19
  -9  -1  14 892.129 344.666   5
  -1   9 -14 1823.29 680.080  18
   1   9 -14 1201.18 495.095  18
  -9  -1  14 1160.08 370.191   4
   9   1 -14 631.279 362.304  18
   9   1  14 1381.53 639.173   8
   9  -1  14 1396.50 495.954   8
   1  -9  14-169.480 129.029  17
  -1  -9  14 3.57862 199.936  17
  -9  -1  14 1090.83 471.084  17
   9  -1  14 1368.92 521.612  16
  -9  -1  14 989.058 350.216  16
   9   1  14 930.671 460.150  16
  -9  -1  14 897.777 384.447   2
   9  -1  14 1126.50 479.850   6
   1   9 -14 944.463 415.810   3
   9   1 -14 413.396 234.891  14
  -1   9 -14 1062.40 446.828   3
  -1   9 -15 91.9169 179.919   3
  -1   9 -15-220.977 287.470  13
   1   9 -15 69.5555 235.244  13
  -1  -9  15-173.589 211.217   6
   1  -9  15-155.438 145.072   6
  -1   9 -15 33.8273 53.2232  12
   9   1 -15 87.4885 247.294   1
   9   1 -15 18.8496 91.0879  11
  -9  -1 -15-326.765 353.990  19
  -9   1 -15-75.6123 22.0639  19
  -9  -1  15-176.374 178.807   5
  -1   9 -15-142.468 325.650  18
   1   9 -15 146.152 223.722  18
   9   1  15 80.4417 373.260   8
   9   1 -15 62.3008 61.7966  18
   9  -1  15 266.708 233.197   8
   1  -9  15-74.4766 154.844  17
  -1  -9  15-57.5429 185.049  17
  -9  -1  15-45.3747 115.663  17
  -9  -1  15 134.392 142.128   4
   9  -1  15 103.313 42.4170  16
  -9  -1  15 201.889 199.078  16
  -9  -1  15 47.0702 110.305   2
   9  -1  15 49.6160 156.216   6
   9   1 -15-26.3739 82.9598  14
   1   9 -15 29.6864 105.764   3
   9  -2   0 106.115 46.1298   6
  -9   2   0 172.057 128.196  12
   9  -2   0 178.701 133.953   1
  -9  -2   0 26.2168 142.541   5
  -9  -2   0 89.5305 91.3218  19
  -9   2   0 106.500 69.8945   5
  -9   2   0 167.564 114.849  19
   9   2   0 189.184 143.566  18
   9   2   0 260.141 170.832   8
  -9  -2   0 3.07736 60.7649  17
   9  -2   0 197.479 138.101   8
  -9   2   0 139.846 105.375   4
   9   2   0 27.7150 147.806   1
  -9   2   0 164.511 80.6770   2
   9   2   0 246.122 257.362  14
   9  -2   0 124.905 120.425  14
  -9  -2  -1 215.366 174.112  19
  -9   2  -1 1422.96 436.314  12
   9   2   1 1685.01 571.680   1
  -9   2  -1 1732.64 407.361   5
  -9   2   1 1583.29 379.702   5
   9   2  -1 1955.46 520.943   1
  -9  -2   1 528.211 323.252   5
  -9   2  -1 1545.50 230.918   2
   9  -2   1 1626.56 378.321   1
  -9   2   1 1562.86 285.876   2
   9  -2  -1 1724.11 413.570   1
  -9   2  -1 1756.37 403.495  19
  -9   2   1 1765.47 389.285  19
  -9  -2   1 670.789 316.008  19
   9   2   1 2046.11 473.217  18
   9   2  -1 2281.86 498.574  18
   9   2   1 1922.17 509.160   8
   9   2  -1 2403.17 515.777   8
  -9   2  -1 1524.90 398.042   4
   9  -2   1 1863.03 393.242   8
  -9   2   1 1652.46 382.839   4
   9  -2  -1 1651.74 379.015   8
  -9  -2   1 337.900 223.066   4
  -9  -2  -1 295.746 214.263  17
  -9  -2   1 604.663 284.517  17
   9  -2   1 1855.39 350.450   6
   9  -2  -1 1736.88 337.548   6
   9  -2   1 1888.50 433.484  14
   9  -2  -1 1656.90 410.717  14
   9   2   1 1268.67 490.897  14
   9   2  -1 1543.47 587.766  14
   9  -2  -2-20.2443 93.4610  14
  -9   2   2 65.1802 74.1455   2
   9  -2   2 39.1950 28.5867   6
   9  -2  -2 85.2889 89.2826   6
  -9  -2   2 21.1731 38.0578  12
  -9   2  -2 47.8232 81.4133  12
   9   2  -2 189.537 179.021  11
  -9  -2   2 14.0506 71.6985   5
   9   2  -2 235.829 133.198  10
  -9   2  -2 56.2078 112.490   5
  -9  -2  -2-2.52605 104.854  19
  -9  -2   2-17.7624 70.3235  19
  -9  -2   2 6.57839 50.5342   2
  -9   2   2 98.9963 112.965   5
  -9   2  -2-1.98977 58.9817  19
  -9   2   2 38.1140 76.0401  19
   9   2   2 124.924 140.995  18
   9   2  -2 74.2844 28.2868  18
  -9  -2   2-59.9154 80.5343   4
   9   2   2 114.605 138.946   8
   9  -2  -2 31.2609 52.4799   1
   9   2   2-27.8283 132.856   1
  -9  -2  -2-36.3002 39.5887  17
   9   2  -2 8.77158 51.1045   8
  -9  -2   2 37.0363 29.9182  17
   9  -2   2 35.7242 62.6134   8
  -9   2  -2 8.92102 9.04036   2
   9  -2  -2 11.4365 86.0409   8
  -9   2  -2 1.41913 50.4408   4
   9  -2   2-20.6803 77.0956   1
  -9   2   2 101.709 100.681   4
   9   2   2 57.5148 64.3829  16
   9   2   2-76.4927 197.210  14
   9   2  -2 38.0711 114.535  14
   9   2  -2-16.0905 82.2353   1
   9  -2   2 39.1019 58.2437  14
   9  -2  -3 166.859 165.935  14
  -9  -2  -3 81.1041 204.879  19
   9   2  -3 251.647 234.360   1
  -9   2   3 335.088 158.465   2
   9   2  -3 433.155 210.253  13
   9  -2   3 256.125 121.518   6
   9  -2  -3 279.113 153.945   6
  -9  -2   3 94.2620 85.9341  12
  -9   2  -3 234.584 173.807  12
   9   2  -3 402.498 193.839  11
  -9  -2   3 151.617 137.240   5
  -9   2   3 352.818 180.594   5
  -9   2  -3 274.970 111.195  10
  -9   2  -3 228.760 152.183   5
   9   2  -3 480.584 241.278  10
  -9  -2   3 187.777 176.973  19
  -9   2  -3 165.622 118.014  19
  -9   2   3 272.283 165.432  19
  -9  -2   3 207.531 159.104   2
   9   2   3 330.592 189.432  18
   9   2   3 190.705 202.127   1
   9   2  -3 384.702 199.188  18
  -9   2  -3 182.637 73.5966   2
   9  -2   3 243.115 137.323   1
  -9  -2   3-51.7666 173.080   4
   9   2   3 331.725 246.217   8
  -9  -2  -3-156.675 178.524  17
   9   2  -3 250.847 138.207   8
  -9  -2   3 232.485 173.074  17
   9  -2   3 298.063 159.108   8
  -9   2  -3 225.840 182.866   4
   9  -2  -3 248.925 188.116   8
  -9   2   3 287.711 165.943   4
   9  -2  -3 256.462 181.831   1
   9   2   3 246.685 148.233  16
   9   2   3 347.906 282.984  14
   9   2  -3 345.567 261.064  14
   9  -2   3 288.481 189.389  14
  -9   2  -3 74.9358 129.793   3
   9  -2  -4 23.7031 84.5701  14
  -9   2  -4-85.5744 108.166   3
   9  -2   4-6.01082 77.1575   6
   9  -2  -4 17.9597 35.7162   1
   9   2  -4 37.7869 59.5117  13
  -9   2   4 6.53829 80.3795   2
   9   2  -4-30.3914 132.684   1
  -9   2  -4-21.4360 58.6442  12
   9  -2  -4 42.8286 26.6912   6
  -9  -2   4 94.2749 132.328  12
   9   2  -4 113.314 129.393  11
   9  -2   4 10.1486 79.1181   1
  -9  -2   4 74.0918 146.240   5
  -9   2  -4-30.9951 82.1706  20
  -9   2  -4-19.1411 92.2443   5
  -9   2  -4 5.66137 42.3270  10
  -9   2  -4-157.455 150.229   2
   9   2  -4 106.145 142.631  10
  -9  -2  -4 133.021 294.778  19
  -9  -2   4 48.2466 71.2642  19
   9   2  -4 433.314 303.676   9
  -9   2  -4-4.74155 42.0773  19
   9   2   4-45.4424 99.6765   1
  -9   2   4-13.9524 43.6028   5
  -9   2   4 26.2426 43.4395  19
   9   2   4-27.6180 97.7056  18
   9   2  -4 1.69650 91.6296  18
  -9  -2   4-4.97711 27.7051   2
   9   2   4-47.0991 115.178   8
  -9  -2   4 65.9427 142.394   4
  -9  -2  -4 112.533 155.661  17
  -9  -2   4 65.6794 102.583  17
   9   2  -4-7.38555 9.01987   8
   9  -2   4 8.02557 41.7757   8
  -9   2  -4 37.1655 29.0560   4
   9  -2  -4-80.5883 174.033   8
  -9   2   4-20.4701 40.5045   4
   9   2   4-14.3458 61.2459  16
   9   2  -4 67.8665 93.1083  14
   9  -2   4-15.4944 54.9349  14
   9  -2  -5 70.7991 136.657  14
   9  -2   5-18.0486 67.6171   6
  -9   2  -5 152.972 156.153   3
   9   2  -5 59.6533 74.6243  13
  -9   2   5 21.4914 121.634   2
  -9   2  -5-78.1353 65.9418  12
   9   2  -5 64.8805 134.602   1
   9   2  -5 61.3310 113.610  11
   9  -2   5 38.5678 80.8567   1
  -9  -2   5 61.4670 134.062   5
   9  -2  -5 119.236 109.030   1
  -9   2  -5 56.0273 86.4894  20
  -9   2  -5 3.85522 68.8984   5
  -9  -2  -5 110.306 186.049  19
  -9   2  -5-53.4100 90.1420  10
   9   2  -5 728.766 445.778  10
  -9  -2   5 33.8185 27.0512  19
  -9   2  -5 43.5266 51.4839  19
   9   2  -5 50.5655 170.415   9
  -9   2   5-3.65242 40.6297   5
  -9   2   5-49.8697 76.2244  19
   9   2   5-74.3308 177.728  18
   9   2  -5 80.0334 123.210  18
  -9  -2   5-6.09401 63.0361   2
   9   2   5-5.60307 52.7896   8
  -9  -2  -5 101.611 193.241  17
  -9  -2   5 34.2487 90.3733   4
  -9  -2   5 120.883 151.267  17
   9  -2   5-2.72344 52.1881   8
   9   2  -5 22.6499 43.8356   8
  -9   2  -5-23.3998 52.8516   4
  -9   2   5 43.2651 58.5473   4
   9   2   5 120.495 150.201  16
   9   2  -5 40.5581 104.246  14
   9  -2   5 48.7779 97.4567  14
   9  -2  -6 140.867 131.192  14
   9  -2   6 289.017 163.949   6
   9   2  -6 207.912 107.726  13
   9  -2   6 274.734 182.047   1
  -9   2   6 315.353 218.046   2
  -9   2  -6 104.080 63.5197   3
  -9   2  -6 106.080 106.416  12
   9   2  -6 228.999 159.349  11
   9   2  -6 79.8982 139.002   1
  -9   2  -6 93.1924 108.882   5
  -9  -2   6 122.769 155.366   5
  -9   2  -6 319.533 179.143  20
  -9  -2  -6-53.6583 221.907  19
  -9   2  -6 375.150 255.459  10
   9   2  -6 1296.68 643.068  10
  -9   2  -6 171.356 179.267  19
  -9  -2   6 135.645 165.823  19
   9   2  -6 348.398 209.410   9
  -9   2   6 155.710 175.509   5
  -9   2   6 39.3990 91.6658  19
   9   2  -6 230.014 196.255  18
   9  -2  -6 81.1771 74.4917   1
   9   2   6 240.925 250.200   8
  -9  -2  -6 5.69652 46.2153  17
  -9  -2   6 225.525 164.936   2
  -9  -2   6 182.990 198.530   4
  -9   2  -6 137.822 137.245   4
   9  -2   6 199.058 133.493   8
  -9  -2   6 230.472 199.036  17
   9   2  -6 168.905 90.5129   8
   9  -2   6-139.200 324.516  16
  -9   2   6 184.275 108.686   4
   9   2   6 147.081 150.564  16
  -9   2  -6 256.463 207.951  15
   9   2  -6 381.733 258.746  14
   9  -2   6 343.705 195.338  14
   9  -2  -7-7.58897 26.7510  14
   9  -2   7 46.2939 68.4148   6
   9   2  -7 177.436 139.961  13
  -9   2   7 73.2901 110.789   2
  -9   2  -7 109.505 150.287  12
  -9   2  -7-37.5949 70.5222   3
   9   2  -7 39.4366 32.1700  11
  -9   2  -7 52.1350 80.1472   5
  -9  -2   7 98.2237 128.452   5
  -9   2  -7 350.544 232.074  20
   9   2  -7-7.68700 68.5111   1
  -9  -2  -7 107.319 141.964  19
  -9   2  -7-282.767 393.936  10
  -9   2  -7-45.4106 47.5617  19
  -9  -2   7 90.0584 79.4540  19
   9   2  -7 630.995 459.510   9
  -9   2   7 143.515 178.720   5
   9   2  -7 69.5258 127.155  18
   9   2   7-18.7351 130.914   8
  -9   2  -7 55.6945 80.4067   4
  -9  -2   7 74.8642 110.104   2
  -9  -2   7 131.197 156.662   4
   9  -2   7 10.3102 27.0584   8
  -9  -2   7-10.2130 91.7635  17
   9   2  -7 117.967 123.240   8
   9  -2   7 100.192 139.940  16
   9  -2  -7-164.552 175.735   1
  -9   2  -7 23.8907 82.8698   7
   9   2   7-42.5879 45.3909  16
  -9   2   7-112.184 169.893   4
  -9   2  -7 75.6083 150.100  15
   9   2  -7 29.8828 146.665  14
   9  -2   7 71.5874 97.2037  14
   9  -2   7 86.3759 160.860   1
   9  -2   8 142.684 123.737   6
   9  -2  -8 137.402 188.039  14
   9  -2  -8 39.0854 98.4402   1
  -9   2  -8 138.590 162.344  12
  -9   2  -8 105.668 179.060   3
   9   2  -8 28.4455 91.3233  11
  -9   2  -8 227.431 227.013   5
  -9  -2  -8-77.1667 152.475  19
  -9  -2   8 85.0581 119.968   5
  -9   2  -8 398.850 279.274  20
  -9   2  -8-653.305 620.971  10
  -9   2  -8 71.0573 61.1235  19
   9   2  -8 92.9995 124.202   1
  -9  -2   8 15.0728 20.3100  19
   9   2  -8-344.643 332.873   9
  -9   2   8 45.5308 113.052   5
   9   2  -8 91.9701 126.593  18
   9   2   8 18.0414 100.501   8
  -9   2  -8 98.1092 114.360   4
   9  -2   8-15.6471 68.5848   8
  -9  -2   8 64.0777 119.750   4
  -9  -2   8 21.1433 27.4839  17
  -9  -2   8 66.8460 105.635   2
   9   2  -8 17.1257 36.2017   8
  -9  -2   8 68.9591 51.2156  16
   9  -2   8 116.816 133.762  16
   9  -2   8 52.3598 108.381   1
  -9   2  -8 170.150 168.570   7
  -9   2  -8 77.5980 137.619  15
   9   2  -8 4.70730 83.7951  14
   9  -2   8 153.292 136.187  14
   9   2  -9 27.3732 26.8876   3
  -9   2  -9-9.25855 82.2931  13
  -9   2  -9 236.255 214.225  12
  -9   2  -9-33.2324 63.1927   3
  -9   2  -9-171.676 206.953   5
   9   2  -9 30.8504 148.361  11
  -9  -2   9 33.0962 51.2684   5
  -9   2  -9 75.5008 108.983  20
  -9  -2  -9-247.688 428.059  19
  -9   2  -9 128.675 170.349  19
  -9  -2   9 49.6634 32.4233  19
   9   2  -9-3.74174 163.986   9
   9   2  -9 76.3266 129.835   1
   9   2  -9 105.501 132.413  18
   9   2   9-13.9739 121.651   8
  -9   2  -9-79.8629 125.166   4
   9  -2   9 203.561 155.181   8
   9  -2   9 253.130 227.887   1
  -9  -2   9 33.3582 52.9700   4
  -9  -2   9 85.6593 105.714  17
  -9  -2   9 29.3539 52.2616   2
   9   2  -9 130.901 149.692   8
  -9  -2   9 76.3912 66.7728  16
   9  -2   9 75.5188 121.984  16
  -9   2  -9 119.697 143.042   7
  -9   2  -9 93.4001 160.333  15
   9  -2   9-8.39104 42.1725  14
   9   2  -9 83.2873 140.027  14
   9  -2   9 117.124 118.806   6
  -9   2 -10-93.8462 106.722  13
   9   2 -10 133.760 63.5867   3
  -9   2 -10 194.091 259.323   3
   9   2 -10 104.671 137.528  11
  -9   2 -10-202.071 262.361  20
  -9  -2  10 73.1545 124.726   5
  -9  -2 -10-299.905 415.528  19
  -9   2 -10 24.1066 58.3748  19
  -9  -2  10 146.643 146.836  19
   9   2 -10 13.6883 34.1588   9
   9  -2  10 64.8006 100.930   1
   9   2 -10 88.7140 120.309   1
   9   2 -10 110.107 117.646  18
   9   2  10 158.650 60.9733   8
  -9   2 -10 59.1794 69.5295   4
   9  -2  10 287.789 181.842   8
  -9  -2  10 206.961 185.477  17
  -9  -2  10 236.775 176.792   4
  -9  -2  10 171.552 178.788   2
   9  -2  10 365.704 249.457  16
  -9  -2  10 211.208 111.268  16
  -9   2 -10 231.009 288.080   7
  -9   2 -10 141.327 215.631  15
   9  -2  10 251.663 222.697  14
   9   2 -10 133.257 145.881  14
   9  -2  10 271.961 183.382   6
  -9   2 -11 33.9289 75.0539  13
   9   2 -11 649.094 376.720  11
  -9  -2  11 811.493 340.852   5
  -9  -2 -11-213.797 462.925  19
  -9   2 -11 410.316 273.299  19
  -9  -2  11 585.926 258.939  19
   9   2 -11 878.958 577.051   9
   2   9 -11 231.548 87.6044  18
   9   2 -11 968.478 402.746  18
   9   2  11 634.989 407.370   8
   9   2 -11 778.421 356.724   1
  -2  -9  11 21.1108 140.576  17
   9  -2  11 1276.04 401.954   8
  -9   2 -11-573.510 434.205  20
  -9  -2  11 688.969 330.234  17
  -9  -2  11 684.157 292.713   4
  -9  -2  11 586.629 275.614   2
   9  -2  11 1278.91 425.102  16
  -9  -2  11 764.065 235.188  16
  -9   2 -11 22.3590 152.621   7
  -9   2 -11 45.0944 122.420  15
   9   2 -11 882.059 206.101   3
   9  -2  11 918.663 406.430  14
   9   2 -11 620.638 358.491  14
   9  -2  11 903.212 392.553   6
   2   9 -12-351.554 493.018  13
  -9   2 -12 124.931 166.825  13
   2  -9  12 30.5443 126.134   6
  -2  -9  12 242.249 285.737   6
   9   2 -12-23.2832 178.309  11
  -9  -2  12 219.809 231.487   5
  -9   2 -12-21.0879 115.724  19
  -9  -2  12 34.8523 111.662  19
   9   2 -12-287.723 512.856   9
   2   9 -12 191.759 135.778  18
   9   2 -12 39.7180 41.2831  18
  -2  -9  12 75.3139 195.797  17
   9  -2  12 96.0604 83.1396   8
   9   2 -12 108.358 176.357   1
  -9  -2  12 145.738 194.259  17
  -9  -2  12 117.040 94.4314   4
  -9  -2  12 106.496 126.037   2
  -9   2 -12-442.286 295.999   7
   9  -2  12 90.6020 127.384  16
  -9  -2  12 83.5270 79.5317  16
  -9   2 -12-255.116 315.904  15
   9  -2  12 74.3175 139.081  14
   9   2 -12 84.3718 193.749  14
  -2   9 -12 109.108 91.4201   3
   9  -2  12 148.967 130.944   6
   2   9 -13 687.216 146.789  13
   2  -9  13 374.675 292.043   6
  -2  -9  13 72.8422 224.350   6
  -2   9 -13 932.108 286.584  12
   9   2 -13 761.056 399.483  11
  -9  -2  13 1252.10 446.616   5
  -9   2 -13 160.365 185.319  19
   9   2 -13-822.261 1012.31   9
  -2   9 -13 2224.34 731.459  18
   2   9 -13 1254.95 482.905  18
   9   2 -13 1129.24 441.390  18
   2  -9  13-73.5734 415.337  17
  -2  -9  13 241.516 345.699  17
   9  -2  13 1547.84 485.168   8
  -9  -2  13 994.748 474.670  17
  -9  -2  13 1107.34 363.856   4
   9   2 -13 997.007 470.389   1
   9  -2  13 1968.42 610.580  16
  -9  -2  13 1234.41 338.800  16
  -9   2 -13-350.861 508.823   7
  -9  -2  13 1119.76 419.835   2
   9  -2  13 1405.41 606.118  14
   2   9 -13 753.015 271.577   3
   9   2 -13 689.258 380.316  14
   9  -2  13 1423.93 518.354   6
  -2   9 -13 1200.37 494.762   3
   2   9 -14-77.0794 203.695  13
  -2  -9  14-13.4671 124.361   6
   2  -9  14-162.700 119.784   6
  -2   9 -14-0.72444 63.8351  12
   9   2 -14 22.5241 152.517  11
  -9  -2  14 3.13538 51.7700   5
  -9   2 -14-117.705 186.330  19
  -2   9 -14 222.883 356.617  18
   2   9 -14 256.236 209.758  18
   9   2 -14 77.2089 175.538  18
   2  -9  14 233.819 500.550  17
  -2  -9  14-54.7205 177.861  17
   9  -2  14 87.5298 287.976   8
  -9  -2  14 105.099 186.282  17
  -9  -2  14 33.9898 58.4205   4
   9   2 -14-3.64996 90.4180   1
  -9  -2  14-43.9916 119.123   2
   9  -2  14-25.9315 213.611  16
  -9  -2  14 98.2326 86.1848  16
   9  -2  14 39.1605 203.403  14
   9  -2  14-115.680 163.098   6
   9   2 -14-86.6264 149.648  14
   2   9 -14 45.3735 131.672   3
  -2   9 -14 20.5220 13.4417   3
   9   2 -15 897.531 502.554  11
  -2   9 -15 1574.18 543.916  18
   2   9 -15 1451.37 525.952  18
   9   2 -15 734.885 409.616  18
   9  -2  15 1738.12 529.211   8
  -9  -2  15 1292.49 388.496   4
  -9  -2  15 1505.09 467.603  16
   9   3   0 3244.41 805.184   1
  -9   3   0 3724.25 587.798   5
   9  -3   0 3168.25 568.365   1
  -9   3   0 4471.95 564.920   2
   9   3   0 4430.86 759.407  18
   9   3   0 3854.60 763.799   8
   9  -3   0 3100.89 552.340   8
  -9   3   0 3915.14 608.084   4
   9  -3   0 3579.94 568.975   6
   9  -3   0 3083.14 576.260  14
  -9   3   0 3736.47 590.060  19
   9  -3   1-34.6751 85.6941  14
   9  -3  -1 27.2278 97.4527  14
  -9   3  -1 28.9153 32.4906   2
   9  -3   1 41.8246 68.7439   6
   9  -3  -1 33.1387 60.5796   6
  -9   3   1-123.268 165.162   2
   9  -3  -1 12.9946 30.5855   1
  -9   3  -1-80.5359 153.057  12
  -9  -3  -1 34.0335 109.737  19
  -9  -3   1 31.2045 24.7620  19
  -9   3  -1-3.11655 51.7662   5
  -9   3  -1-17.9980 71.7153  19
  -9   3   1 37.2389 86.8358   5
  -9   3   1 5.14721 68.3113  19
   9   3   1 12.2398 50.1312  18
   9   3   1 10.4208 167.818   1
   9   3  -1-148.022 161.883  18
   9   3   1 37.2125 63.1350   8
   9  -3   1-19.7268 29.8336   1
   9   3  -1 16.8606 85.3620   8
  -9  -3  -1 150.102 234.334  17
  -9  -3   1-18.1127 93.9500  17
   9   3  -1-23.5018 215.727   1
   9  -3   1 42.6408 51.5115   8
   9  -3  -1 16.0926 60.4376   8
  -9   3  -1-44.2093 72.7899   4
  -9   3   1-26.8089 24.8688   4
  -9   3  -2 1983.61 553.896  12
   9   3  -2 1499.66 616.535   1
  -9   3  -2 1586.12 373.527   5
  -9   3   2 2255.56 493.185   5
   9  -3   2 1938.63 411.533   1
  -9   3  -2 1868.78 248.981   2
  -9   3   2 3463.93 737.335   2
   9  -3  -2 1425.56 401.358   1
  -9   3  -2 1843.11 405.364  19
  -9   3   2 2090.44 455.115  19
  -9  -3   2 337.384 181.324  19
   9   3   2 1462.71 582.460   1
   9   3   2 2453.53 582.745  18
   9   3  -2 2789.93 583.803  18
   9   3   2 1732.99 529.257   8
   9   3  -2 2469.94 534.975   8
  -9   3  -2 1920.03 423.978   4
   9  -3   2 1883.43 415.603   8
   9  -3  -2 1509.79 426.318   8
  -9   3   2 2250.27 479.846   4
  -9  -3  -2 66.5134 192.093  17
  -9  -3   2 219.458 143.280  17
   9  -3   2 2128.20 412.463   6
   9  -3  -2 1818.29 508.371   6
   9  -3   2 1977.55 447.719  14
   9  -3  -2 1712.51 435.682  14
   9  -3  -3-13.0458 55.1595  14
   9  -3   3 33.6423 36.8170   6
   9  -3   3 59.0373 89.0353   1
  -9   3  -3 27.9073 72.5316  12
  -9  -3   3-59.4235 172.267   5
  -9  -3   3-355.033 201.360   2
  -9  -3  -3-2.24958 51.1994  19
  -9   3  -3 78.1315 95.4631   5
  -9  -3   3-13.3417 127.915  19
  -9   3  -3 0.56209 55.2387  19
  -9   3   3 68.1207 99.5229  19
  -9   3   3 125.026 134.080   5
   9   3   3-75.5864 199.636  18
   9   3  -3-3.30531 74.4772  18
   9   3   3 43.3782 78.9577   8
  -9  -3  -3 46.7808 28.3701  17
   9   3  -3 63.4161 66.2593   8
  -9  -3   3 21.8852 88.2945  17
   9  -3   3 28.8183 63.9810   8
  -9   3  -3-16.1128 65.5248   4
   9   3  -3 29.4390 93.8119   1
  -9   3   3-28.4007 104.093   4
  -9   3  -3 32.4899 39.9721   2
   9  -3  -3 36.1542 99.2000   1
   9   3  -3 63.5657 171.752  14
   9  -3   3-40.0221 64.0274  14
   9  -3  -4 227.457 179.753  14
   9   3  -4 209.295 155.607  13
   9  -3   4 212.772 128.746   6
  -9  -3   4 12.4369 43.0310  12
   9  -3  -4 230.882 202.888   1
  -9   3  -4 177.998 157.402  12
  -9  -3   4 10.1342 151.709   5
   9   3  -4 469.016 228.794  20
  -9  -3  -4-172.869 195.371  19
  -9   3  -4 247.400 156.211   5
  -9  -3   4 54.7915 90.3857  19
  -9  -3   4 21.2542 39.4716   2
  -9   3  -4 209.225 154.670  19
  -9   3   4 163.980 90.0126  19
  -9   3   4 377.096 213.769   5
   9   3  -4 314.910 195.125  18
   9   3   4 249.780 95.6853   8
  -9  -3  -4-132.024 172.483  17
   9   3  -4 289.947 168.951   8
  -9  -3   4 223.062 164.812  17
   9  -3   4 233.520 146.493   8
  -9   3  -4 167.590 111.869   4
  -9   3  -4 166.186 56.2189   2
   9  -3   4 332.055 157.123   1
  -9   3   4 153.759 43.0949   4
   9   3  -4 431.799 268.032   1
   9   3  -4 173.651 219.612  14
  -9   3  -4 106.364 88.0809   3
   9  -3   4 297.039 170.006  14
  -9   3  -5-28.1972 144.605   3
   9  -3  -5 102.408 136.480  14
   9   3  -5 50.9625 67.7661  13
   9  -3   5 28.7234 9.48712   6
  -9   3  -5 91.5923 127.559  12
   9   3  -5 92.5604 144.113  11
  -9  -3   5-12.1895 60.9724   5
   9   3  -5 52.5219 157.379  20
  -9   3  -5 34.0578 24.2175   5
  -9  -3  -5-139.185 219.579  19
  -9  -3   5 11.4351 144.582  19
  -9   3  -5 7.12310 34.4869  19
  -9  -3   5 67.4301 94.4200   2
  -9   3   5-26.8290 108.744   5
   9   3  -5 107.630 155.056  18
  -9  -3   5-250.713 312.153   4
   9   3   5 44.9617 92.1455   8
   9  -3  -5 36.7563 136.946   1
   9  -3   5 43.4448 27.0337   1
   9   3  -5-5.50651 55.6693   8
  -9  -3   5 44.1581 140.842  17
   9  -3   5 11.5885 31.7416   8
  -9   3  -5 141.104 127.580   4
   9   3  -5 85.0353 164.229  14
   9   3  -5 31.8729 103.935   1
   9  -3   5 15.2954 71.4648  14
  -9   3  -6 61.2972 64.6928   3
   9  -3   6-5.98407 37.7202   6
   9   3  -6 58.9285 66.6364  13
  -9   3  -6 68.7223 126.534  12
   9   3  -6 91.9855 111.659  11
  -9  -3   6-49.9331 94.5729   5
   9   3  -6-208.028 353.360  20
  -9   3  -6-26.9256 63.3545   5
   9   3  -6 303.105 215.670  10
  -9  -3   6-97.0755 98.9999  19
  -9   3  -6-0.46702 29.1575  19
   9  -3   6 10.3665 11.0799   1
  -9  -3   6 22.0513 63.5272   2
   9   3  -6 15.5220 38.2867  18
   9   3   6-140.759 209.510   8
  -9  -3   6-120.262 222.180   4
  -9  -3   6 35.3700 116.242  17
   9   3  -6 78.8104 98.4631   8
   9  -3   6-34.8636 34.9101   8
  -9   3  -6 35.7765 82.1917   4
   9   3  -6 70.4396 145.116  14
   9  -3   6-48.6953 87.1197  14
   9   3  -7 728.546 299.078  13
   9  -3   7 121.038 113.620   6
  -9   3  -7 94.9390 189.764   3
  -9   3  -7-24.5143 91.8229  12
   9  -3   7 146.626 131.432   1
   9   3  -7 253.979 182.600  11
  -9  -3   7 18.8484 70.6500   5
  -9   3  -7 61.3739 108.395  20
  -9   3  -7 55.0877 126.683   5
   9   3  -7-946.694 950.813  20
  -9   3  -7 99.7045 107.485  10
   9   3  -7 564.523 351.796  10
  -9   3  -7 175.922 102.986   9
   9   3  -7 110.533 157.166  18
  -9  -3   7 61.5903 109.700   2
   9   3   7 74.7041 147.658   8
  -9  -3   7-15.3568 76.1992   4
   9   3  -7 14.8880 41.9980   8
   9  -3   7 105.344 111.515   8
  -9   3  -7 17.6132 58.8809   4
   9   3  -7 1371.55 930.456  14
  -9   3  -7-4.67169 26.8488  19
   9  -3   7 115.240 132.664  14
   9  -3   8-28.7696 47.0801   6
   9  -3   8 27.5659 31.2119   1
   9   3  -8 93.0670 94.0821  13
  -9   3  -8 26.9480 64.9987   3
   9   3  -8 166.099 224.180   1
  -9   3  -8 80.9291 41.7068  12
   9   3  -8 271.126 250.073  11
  -9  -3   8 70.3897 187.413   5
  -9   3  -8-21.2910 60.0752   5
  -9   3  -8 23.5506 6.19010  20
  -9   3  -8 331.993 193.364  10
   9   3  -8 762.043 469.992  10
  -9   3  -8 166.934 159.953  19
  -9  -3   8 23.8053 23.5534  19
   9   3  -8 626.493 414.071   9
  -9   3  -8 27.1822 37.2601   9
   9   3  -8 147.904 138.815  18
   9   3   8 180.393 316.494   8
  -9  -3   8 19.8088 78.4436   2
  -9  -3   8-65.3353 163.248   4
  -9   3  -8 66.5416 86.4585   4
  -9  -3   8-1.49325 91.8308  17
   9  -3   8 128.195 107.644   8
   9   3  -8 73.5115 86.4770   8
   9  -3   8-241.884 439.183  16
   9   3  -8 8.57887 153.558  14
   9  -3   8 107.487 124.777  14
   9  -3   9 36.5581 76.3308   6
   9   3  -9 102.134 110.173  13
  -9   3  -9 11.0331 13.3059   3
  -9   3  -9 33.5540 14.8543  12
   9   3  -9 31.3527 111.581   1
   9   3  -9-0.95107 128.099  11
  -9   3  -9 145.248 162.416   5
  -9  -3   9 54.6964 57.0848   5
  -9   3  -9 129.313 138.048  20
  -9   3  -9 79.9400 160.977  10
   9   3  -9 313.091 309.692  10
  -9   3  -9-28.4136 60.0563  19
  -9   3  -9-183.065 323.524   9
   9   3  -9-35.8553 90.9964  18
  -9  -3   9 16.4185 82.7394  19
  -9  -3   9-35.2917 134.428   4
  -9  -3   9 58.4632 70.7373   2
  -9   3  -9-47.5505 88.0830   4
  -9  -3   9-35.8569 95.1648  17
   9  -3   9 112.090 122.181   8
   9   3  -9-9.34729 78.7186   8
  -9  -3   9-292.682 223.552  16
   9  -3   9-78.8675 200.633  16
  -9   3  -9 46.9960 193.929   7
  -9   3  -9 82.8319 161.424  15
   9   3  -9 153.226 173.352   9
   9  -3   9 87.7269 113.835   1
   9   3  -9 119.327 295.470  14
   9  -3   9 136.960 127.049  14
   9  -3  10 736.659 302.861   6
  -9   3 -10-333.779 309.277  13
   9   3 -10 712.937 280.475  13
  -9   3 -10 286.031 211.093  12
  -9   3 -10 126.604 90.3809   3
   9   3 -10 620.044 351.361   1
   9   3 -10 1013.62 463.260  11
  -9   3 -10 238.287 206.842   5
  -9  -3  10 298.853 251.651   5
  -9   3 -10 618.583 304.082  10
   9   3 -10 964.638 660.095  10
  -9   3 -10 475.984 265.647  20
  -9   3 -10 460.090 230.018  19
  -9  -3  10 376.628 194.154  19
   9   3 -10 1097.58 519.722   9
   9   3 -10 905.219 333.431   8
   9   3 -10 917.333 385.310  18
  -9  -3  10 445.866 255.569   4
  -9   3 -10 384.014 249.300   4
  -9  -3  10 326.936 181.846   2
   9  -3  10 633.583 259.012   8
  -9  -3  10 217.912 179.018  17
   9  -3  10 653.325 339.347   1
  -9  -3  10 466.217 180.517  16
   9  -3  10 944.696 391.930  16
  -9   3 -10 249.959 238.563   7
  -9   3 -10 350.409 260.637  15
   9   3 -10 258.951 382.872  14
   9  -3  10 790.422 307.359  14
   9   3 -10 794.788 320.987   3
   9  -3  11 4.28511 13.6192   6
   9   3 -11 6.54346 22.6691   3
  -9   3 -11 43.0112 65.1109  13
   9   3 -11 132.671 182.286  13
  -9   3 -11-28.7102 75.8145  12
  -9   3 -11 190.050 217.393   3
  -9   3 -11-411.594 435.999   5
   9   3 -11 218.319 298.881  11
   9   3 -11-6.73486 70.1916   1
  -9  -3  11-90.5353 67.7751   5
  -9   3 -11-7.27079 27.5522  20
  -9   3 -11-170.500 142.643  10
   9   3 -11 463.171 667.876  10
  -9   3 -11-0.03382 49.6322  19
  -9  -3  11-33.0858 37.4542  19
   9   3 -11 753.339 495.273   9
   3   9 -11-43.1745 88.4647  18
   9   3 -11-162.158 158.283  18
   9  -3  11-203.845 218.825   1
  -9   3 -11-94.4739 182.210   4
  -3  -9  11 31.3928 124.521  17
  -9  -3  11 42.2429 152.345   4
  -9  -3  11-15.9399 43.8614   2
   9  -3  11 14.8736 32.8764   8
  -9  -3  11 9.94165 122.341  17
  -9  -3  11 51.1534 78.6845  16
   9  -3  11 182.141 175.995  16
  -9   3 -11 5.85829 13.8139   7
  -9   3 -11 71.9434 118.003  15
   9   3 -11-154.062 297.849  14
  -3   9 -11-359.034 371.839   3
   9  -3  11 96.7195 40.6456  14
   3   9 -12 616.303 155.619  13
  -9   3 -12-132.684 209.632  13
   3  -9  12 390.013 272.303   6
  -9   3 -12 693.883 420.726  12
  -9   3 -12 485.637 382.161   3
   9   3 -12 1977.48 624.929  11
  -9  -3  12 1314.10 503.039   5
   9   3 -12 1443.93 528.624   1
  -9   3 -12 1079.43 408.973  20
  -9   3 -12 995.930 501.330  10
   9   3 -12 1562.23 1245.84  10
  -9   3 -12 808.880 341.304  19
   9   3 -12 1357.08 572.154   9
   9   3 -12 1822.88 543.945  18
   3   9 -12 1243.15 418.179  18
   9  -3  12 2310.24 560.940   8
  -9   3 -12 444.851 347.792   4
  -3  -9  12 129.351 173.581  17
  -9  -3  12 1436.42 503.353   4
  -9  -3  12 1257.15 439.196   2
  -9  -3  12 1539.58 540.477  17
  -9  -3  12 1715.47 367.776  16
   9  -3  12 2755.50 694.825  16
  -9   3 -12 598.604 366.254   7
   9  -3  12 1874.53 570.733   6
  -9   3 -12 878.882 356.694  15
   9  -3  12 2189.10 568.935  14
   9   3 -12 1719.32 300.366   3
   9   3 -12 522.321 382.350  14
  -3   9 -12 1316.58 520.267   3
   3   9 -13-339.755 377.297  13
  -9   3 -13 1640.62 569.491  13
   3  -9  13-57.7505 149.141   6
  -3  -9  13 65.0910 31.0963   6
   9   3 -13 24.7162 34.5121   3
  -9   3 -13 1081.37 513.029  12
  -3   9 -13-83.6063 219.264  12
   9   3 -13 45.5141 81.6831  11
  -9  -3  13-171.280 166.336   5
  -9   3 -13 2226.67 738.266  20
   9   3 -13 67.5598 193.593   1
  -9   3 -13 1649.77 685.934  10
   9   3 -13-249.619 1061.92  10
  -9   3 -13 984.791 414.496  19
  -9  -3  13 49.5230 21.4324  19
   9   3 -13-242.222 334.197   9
  -3   9 -13-166.479 155.624  18
   3   9 -13 3.82363 125.062  18
   9  -3  13 1020.93 521.093   8
   9   3 -13 115.958 154.135  18
   3  -9  13 217.146 654.060  17
  -3  -9  13 34.6079 157.280  17
  -9  -3  13-13.8056 48.3108   4
  -9  -3  13-54.8468 164.683  17
  -9  -3  13 112.542 87.9347   2
  -9  -3  13-0.33811 59.9187  16
   9  -3  13 742.422 423.551  16
  -9   3 -13 749.747 494.721   7
  -3   9 -13-173.980 199.986   4
  -9   3 -13 538.352 364.849  15
   9  -3  13 1395.97 669.506  14
  -9   3 -13 1701.61 731.863   3
   9   3 -13 321.211 429.091  14
  -3   9 -13-40.7594 110.254   3
   9  -3  13 729.436 426.539   6
   3   9 -14 1675.64 650.267  13
  -9   3 -14-128.015 165.377  13
  -3  -9  14 203.106 245.220   6
   3  -9  14 437.646 269.246   6
  -3   9 -14 1819.69 496.222  12
  -9   3 -14 901.110 451.840  12
  -9   3 -14 497.130 387.220   3
   9   3 -14 1788.65 631.925  11
  -9  -3  14 2070.48 645.124   5
  -9   3 -14 167.975 151.724  20
  -9   3 -14-131.452 428.185  10
   9   3 -14-114.534 889.952  10
  -9   3 -14 409.032 207.242  19
   9   3 -14 1880.41 621.917   1
  -3   9 -14 3704.58 955.552  18
   9   3 -14 1090.70 615.375   9
   3   9 -14 1809.62 582.800  18
   9  -3  14 2619.57 604.552   8
  -3   9 -14 2520.53 436.084   4
   9   3 -14 1728.27 557.151  18
  -9  -3  14 1900.60 627.183  17
   3  -9  14 495.228 505.405  17
  -3  -9  14 190.011 246.795  17
  -9  -3  14 1873.89 536.512   4
  -9  -3  14 1896.30 511.546   2
   9  -3  14 3097.80 768.935  16
  -9  -3  14 1851.12 431.918  16
  -9   3 -14 292.554 112.518   7
   9  -3  14 2192.78 589.924   6
   3   9 -14 1567.34 519.661   3
  -3   9 -14 1871.50 612.299   3
   9  -3  14 2441.83 686.740  14
   9   3 -14 2013.02 366.623   3
   9   3 -14 888.506 613.733  14
   9  -4   0 232.333 163.869  14
   9  -4   0 264.930 174.223   1
   9  -4   0 329.388 210.537   6
  -9  -4   0 20.9812 74.8027  19
  -9   4   0 322.320 157.937  19
  -9   4   0 334.273 173.719   5
   9   4   0 384.721 240.898  18
   9   4   0 242.504 205.746   8
  -9  -4   0 38.9582 147.633  17
   9  -4   0 164.419 33.3406   8
  -9   4   0 322.231 170.802   4
   9   4  -1 2104.76 718.451   1
  -9   4  -1 4054.97 637.167   5
  -9   4   1 4102.11 677.377   5
   9  -4   1 2361.80 488.694   1
  -9   4  -1 3657.97 615.648  19
  -9   4   1 3553.66 640.535  19
  -9  -4  -1-31.7278 203.532  19
   9  -4  -1 1975.31 495.295   1
  -9  -4   1 107.496 222.501  19
   9   4   1 2392.53 568.277  18
   9   4  -1 3753.58 720.741  18
   9   4   1 1991.32 563.037   8
   9   4  -1 3134.06 682.162   8
   9  -4   1 2479.40 536.085   8
  -9   4  -1 3759.44 632.468   4
  -9   4   1 3804.95 666.383   4
  -9  -4  -1 195.092 238.297  17
   9  -4  -1 1588.93 444.472   8
   9  -4   1 2945.60 618.746   6
   9  -4   1 2259.35 505.528  14
   9  -4  -1 2048.57 493.190  14
   9  -4   2 182.545 166.268  14
   9  -4   2 100.500 66.8811   6
   9  -4   2 119.160 106.540   1
  -9   4  -2-418.752 300.315  12
  -9  -4  -2-195.223 299.224  19
  -9  -4   2 74.8502 211.746  19
  -9   4  -2 109.254 122.273   5
  -9   4  -2 110.143 108.657  19
  -9   4   2-87.6661 180.700  19
  -9   4   2-25.2845 125.867   5
   9   4   2-138.311 226.439  18
   9   4  -2 14.2952 42.8499  18
   9   4  -2 67.9020 193.354   1
   9   4   2 21.4089 28.7792   8
   9   4  -2 132.529 108.255   8
  -9  -4  -2 80.9489 65.4289  17
  -9  -4   2 191.258 194.999  17
   9  -4   2 138.159 122.724   8
  -9   4  -2 115.589 70.6219   4
   9  -4   3 936.157 317.795  14
  -9   4  -3 1035.41 440.245  12
  -9   4  -3 1374.96 361.733   5
   9  -4   3 1119.50 320.065   1
  -9   4  -3 1330.09 362.979  19
  -9  -4   3 18.7185 115.098  19
   9   4  -3 1472.39 490.178  18
   9  -4   3 997.679 324.947   8
  -9   4  -3 1275.35 370.101   4
   9   4   3 454.612 299.322   8
   9   4  -3 909.790 434.345   1
   9   4  -3 1090.56 404.834   8
   9  -4   3 1151.72 340.935   6
   9  -4   4 478.738 220.166  14
   9  -4   4 597.094 249.372   6
  -9   4  -4 465.279 262.179  12
  -9  -4   4 92.8300 192.802  19
  -9   4  -4 513.583 210.770   5
   9  -4   4 583.739 211.051   1
  -9   4  -4 549.566 212.774  19
   9   4  -4 692.542 317.517  18
   9   4   4 260.390 224.444   8
   9   4  -4 694.374 280.350   8
  -9  -4   4 73.8155 37.1133  17
   9   4  -4 558.022 372.977   1
   9  -4   4 546.183 232.277   8
  -9   4  -4 594.032 243.324   4
   9   4  -5-167.685 241.839  13
  -9   4  -5 58.2378 36.5263   2
   9  -4   5 7.96789 33.3240   6
  -9  -4   5 35.7927 30.9741  12
   9  -4   5 86.6371 83.0221   1
  -9   4  -5 71.4107 122.376  12
  -9  -4   5-172.135 227.463   2
  -9  -4   5 87.3833 171.228  19
  -9   4  -5 150.231 122.440   5
  -9   4  -5 37.7711 66.4131  19
   9   4  -5 272.890 204.588  18
   9   4  -5 68.8393 79.6769   8
  -9  -4   5 218.999 260.716  17
   9  -4   5 35.4590 34.5437   8
   9   4  -5-2.42565 39.9311   1
  -9   4  -5 31.2722 63.2650   4
  -9   4  -5-60.3867 188.525   3
   9  -4   5-16.3472 74.7686  14
  -9   4  -6 284.828 304.759   3
   9   4  -6 116.447 162.201  13
   9  -4   6 130.711 146.805   6
  -9   4  -6 57.3098 96.6391  12
  -9   4  -6 83.6852 120.246   5
  -9  -4   6 105.220 124.849  19
  -9  -4   6-40.1543 93.4226   2
  -9   4  -6-25.5443 79.7089  19
   9   4  -6 19.6284 99.7176  18
   9   4  -6 87.0734 79.7674   8
  -9  -4   6-98.9321 185.962  17
   9  -4   6 63.0404 92.6316   8
  -9   4  -6-15.0489 50.2520   4
   9   4  -6 160.871 207.840   1
   9  -4   6 76.6523 64.1956   1
   9  -4   6 71.4345 97.9961  14
  -9   4  -7-108.300 233.122   3
   9   4  -7-49.0861 77.2710  13
   9  -4   7-50.3874 121.664   6
  -9   4  -7 56.2653 87.8126  12
  -9  -4   7-18.0610 203.562   5
   9   4  -7-5.74524 102.425  20
  -9   4  -7-65.1788 50.5096   5
  -9  -4   7 11.9699 88.7252  19
  -9   4  -7-25.4337 60.7286  19
  -9  -4   7 84.5916 131.414   2
   9   4  -7-56.6529 69.9241  18
   9  -4   7 50.7793 61.9624   1
  -9  -4   7-156.055 213.167  17
   9   4  -7-17.3220 12.7905   8
   9  -4   7 111.798 114.498   8
  -9   4  -7 61.9648 48.6701   4
   9   4  -7-130.732 164.899   1
   9  -4   7 19.0208 46.3701  14
   9  -4   8 195.507 145.271   6
  -9   4  -8 12.9613 79.7393   3
   9   4  -8 203.193 160.998  13
  -9   4  -8 181.826 185.042  12
   9   4  -8 36.9888 83.6211  11
  -9  -4   8-97.2501 154.226   5
   9   4  -8 459.964 424.977  20
   9   4  -8 564.612 352.213  10
  -9   4  -8 71.2014 80.0192   5
   9  -4   8 156.808 123.324   1
  -9  -4   8-6.85765 69.5516  19
  -9   4  -8 53.2075 75.9199  19
  -9  -4   8 66.9757 155.184   2
   9   4  -8 123.748 196.851  18
  -9  -4   8 158.578 179.432  17
   9   4  -8 133.168 103.449   8
   9  -4   8 145.602 122.908   8
  -9   4  -8 154.296 134.167   4
   9   4  -8 111.002 187.767   1
   9  -4   8 150.628 142.033  14
   9  -4   9 418.597 207.648   6
  -9   4  -9 236.992 201.006   3
   9   4  -9 282.491 143.778  13
   9  -4   9 508.753 229.938   1
  -9   4  -9 232.843 168.207  12
   9   4  -9 421.855 255.738  11
  -9  -4   9 81.7464 122.373   5
  -9   4  -9 129.126 61.7334  20
  -9   4  -9 273.754 167.298   5
   9   4  -9 857.572 544.271  20
  -9   4  -9 496.781 220.901  10
   9   4  -9 865.646 467.914  10
  -9  -4   9 169.541 160.822  19
  -9   4  -9 183.917 163.954  19
  -9  -4   9 270.983 196.486   2
   9   4  -9 342.452 198.078  18
  -9  -4   9 159.811 185.798  17
  -9   4  -9 255.540 150.628   4
   9   4  -9 400.017 168.475   8
   9  -4   9 509.287 214.638   8
   9   4  -9 184.072 241.897   1
   9  -4   9 396.685 213.025  14
   9  -4  10 163.930 118.022   6
   9   4 -10 112.934 107.428  13
  -9   4 -10 101.720 180.591   3
  -9   4 -10-201.374 164.160  12
   9   4 -10 161.181 214.493  11
  -9  -4  10 46.4165 149.879   5
  -9   4 -10 75.1168 79.3350   5
  -9   4 -10 52.8683 42.5787  20
   9   4 -10 290.943 547.192  20
  -9   4 -10 44.0281 122.625  10
   9   4 -10 575.552 497.190  10
  -9   4 -10 275.203 188.456   9
  -9  -4  10-36.4365 65.1606  19
  -9   4 -10 33.3459 84.1062  19
   9   4 -10 231.447 212.392  18
  -9  -4  10 151.829 155.388   2
  -9   4 -10-63.1721 86.1257   4
  -9  -4  10 129.651 166.137  17
   9  -4  10 133.676 127.391   8
   9   4 -10 82.4725 74.9884   8
   9  -4  10-107.000 515.074  16
   9  -4  10 52.5940 85.9963  14
   9  -4  10 174.664 164.285   1
   9   4 -10 199.179 249.778   1
   9  -4  11 1622.91 444.486   6
   9   4 -11 1184.31 521.268   1
   9   4 -11 1256.94 379.192  13
  -9   4 -11 528.381 192.780   3
   4  -9  11 374.305 283.330   6
  -9   4 -11 582.030 242.786  12
   9   4 -11 2259.28 647.346  11
  -9  -4  11 894.345 454.213   5
  -9   4 -11 792.609 316.232   5
  -9   4 -11 811.648 281.248  20
   9   4 -11 846.128 435.391  20
  -9   4 -11 1241.96 367.302  10
   9   4 -11 2124.95 799.052  10
   9   4 -11 2458.66 731.824   9
  -9   4 -11 545.522 284.500  19
  -9  -4  11 956.853 297.146  19
  -9   4 -11 1286.38 330.956   9
   4   9 -11 793.228 309.550  18
   9  -4  11 1440.23 403.315   8
   9   4 -11 2230.01 504.952   8
   9   4 -11 1400.93 482.348  18
  -9  -4  11 722.841 312.697   2
  -4  -9  11 83.2259 126.535  17
  -9   4 -11 776.114 324.157   4
  -9  -4  11 808.682 392.765  17
   9  -4  11 1981.49 709.690  16
   9  -4  11 1548.14 492.128   1
  -9   4 -11 743.328 375.844   7
  -9   4 -11 924.607 343.681  15
   9  -4  11 1387.21 414.241  14
   9   4 -11 3231.26 1170.15   3
  -4   9 -11 879.211 330.863   3
   9  -4  12 739.432 357.224   6
   4   9 -12-442.638 504.809  13
  -9   4 -12 2139.81 696.712  13
   9   4 -12 400.242 346.706   1
   9   4 -12 110.076 131.529  13
  -9   4 -12 1514.89 569.447  12
   4  -9  12 168.209 182.631   6
  -9   4 -12 1340.20 582.355   3
  -4  -9  12 166.280 246.507   6
  -4   9 -12-127.820 261.891  12
  -9   4 -12 1761.98 776.338   5
   9   4 -12 139.132 74.7039  11
  -9  -4  12 287.293 288.022   5
  -9   4 -12 1718.17 663.990  20
   9   4 -12-1429.69 1350.03  20
  -9   4 -12 950.163 465.933  10
   9   4 -12 404.543 268.422  10
  -9   4 -12 130.473 101.960  19
   9   4 -12 386.304 516.186   9
  -9  -4  12 114.543 68.2139  19
  -9   4 -12 656.196 397.655   9
   4   9 -12 55.6990 70.0686  18
   9   4 -12 87.9535 224.169  18
  -9  -4  12 162.160 173.837   2
   9  -4  12 1275.16 723.848   1
  -9   4 -12 863.199 406.476   4
  -4  -9  12 65.5918 83.6101  17
  -9  -4  12 385.121 302.639  17
   9  -4  12 296.573 218.997   8
  -9  -4  12 229.691 123.300  16
   9  -4  12 604.993 455.567  16
  -9   4 -12 267.197 326.222   7
  -9   4 -12 443.592 352.330  15
   9  -4  12 329.365 208.028  14
  -4   9 -12 222.850 191.858   3
   9   4 -12 532.618 263.660   3
   9   4 -13 1841.13 478.947  13
   4   9 -13 1302.19 529.024  13
  -9   4 -13-122.255 330.001  13
   9   4 -13 1790.46 635.390   1
   4  -9  13 361.754 289.564   6
  -4  -9  13 119.715 171.316   6
  -4   9 -13 2126.48 530.866  12
  -9   4 -13 733.119 324.879  12
  -9   4 -13 938.058 396.159   3
   9   4 -13 3191.40 830.281  11
  -9  -4  13 1505.62 572.961   5
  -9   4 -13 1707.53 542.138  20
   9   4 -13-2676.91 1944.21  20
  -9  -4  13 1326.91 364.957  19
  -9   4 -13 1023.25 375.832  10
   9   4 -13 1529.03 710.583  10
   9  -4  13 380.319 159.063   1
  -9   4 -13 875.932 300.390  19
   9   4 -13 2119.98 720.644   9
  -9   4 -13 485.133 165.701   9
  -4   9 -13 5586.02 1522.30  18
   4   9 -13 2023.24 574.542  18
   9   4 -13 2106.98 612.496  18
   9  -4  13 2304.96 522.568   8
  -4   9 -13 2677.70 493.556   4
  -9   4 -13 858.650 378.046   4
   4  -9  13 56.2499 613.733  17
  -9  -4  13 1490.15 483.099   2
  -9  -4  13 1404.31 510.274  17
  -9  -4  13 1584.44 391.893  16
   9  -4  13 3306.48 857.294  16
  -9   4 -13 947.463 484.112   7
   9  -4  13 2222.52 575.069   6
  -4   9 -13 2075.83 681.560   3
  -9   4 -13 688.109 364.488  15
   9   4 -13 2080.69 399.730   3
   9  -4  13 2342.81 585.120  14
   9   5   0 999.870 342.082  18
   9   5   0 1102.34 401.123   8
  -9  -5   0-85.6133 98.5864  17
   9  -5   1 412.417 242.757  14
  -9  -5   1-200.474 315.697  19
  -9   5  -1 577.461 185.013  19
  -9   5  -1 851.216 298.120   5
   9   5  -1 550.501 253.110  18
   9   5   1 125.021 122.002   8
   9   5  -1 467.952 254.862   8
  -9  -5   1 154.843 243.029  17
   9  -5   1-201.915 301.575   8
  -9   5  -1 811.674 313.607   4
   9  -5   2 667.465 315.083  14
   9  -5   2 852.074 369.795   6
  -9   5  -2 1496.15 436.176   5
  -9   5  -2 1334.03 412.621  19
  -9  -5   2 28.4000 58.9008  19
   9  -5   2 711.694 285.460   1
   9   5  -2 936.691 353.367  18
  -9   5  -2 1473.55 430.340   4
   9   5  -2 882.750 363.208   8
  -9  -5   2-11.6120 83.8764  17
   9  -5   2 476.959 223.274   8
   9  -5   3 963.903 326.841  14
   9  -5   3 1044.08 397.444   6
  -9   5  -3 1447.40 397.101   5
  -9   5  -3 1185.58 361.926  19
  -9  -5   3 147.575 138.510  19
   9   5  -3 1131.60 427.866  18
  -9   5  -3 1349.82 413.596   4
   9   5  -3 1197.00 404.965   8
  -9  -5   3-89.5461 98.7362  17
   9  -5   3 721.661 279.656   8
   9  -5   3 759.676 263.204   1
   9  -5   4 123.204 106.077  14
   9  -5   4 221.504 190.626   6
  -9   5  -4 124.091 42.0403  12
   9  -5   4 130.795 111.413   1
  -9   5  -4 160.020 82.7431   5
  -9   5  -4 272.523 151.885  19
   9   5  -4 134.101 168.464   1
   9   5  -4 39.7370 97.8382  18
   9   5  -4 174.835 172.248   8
  -9  -5   4-137.295 248.917  17
  -9  -5   4 121.100 103.673  19
   9  -5   4 99.1114 118.339   8
  -9   5  -4 226.686 130.651   4
   9  -5   5 546.832 264.234  14
   9  -5   5 554.729 285.476   6
  -9   5  -5 837.208 378.222  12
  -9  -5   5 58.4447 145.322  19
  -9   5  -5 1040.82 298.142   5
  -9   5  -5 644.653 254.920  19
   9   5  -5 800.868 369.803  18
   9   5  -5 590.246 440.833   1
   9   5  -5 889.192 313.563   8
  -9  -5   5 86.7446 164.946  17
   9  -5   5 638.528 260.658   8
  -9   5  -5 874.426 321.576   4
   9  -5   5 690.438 234.662   1
   9  -5   6 97.4029 137.951  14
   9  -5   6-20.4286 89.6922   6
  -9   5  -6 93.4091 88.5269  12
  -9  -5   6-65.9861 185.579  19
  -9   5  -6-32.1311 106.533   5
  -9   5  -6 31.4604 71.5013  19
   9  -5   6 73.1027 103.837   1
   9   5  -6 60.1125 61.6926  18
   9   5  -6-34.9972 88.6811   1
   9   5  -6 31.7988 41.7818   8
  -9  -5   6-86.8595 156.113  17
   9  -5   6 82.9807 120.807   8
  -9   5  -6 97.7031 82.8875   4
   9   5  -7 548.221 273.134  13
   9  -5   7 553.000 247.576   6
   9  -5   7 629.950 216.224   1
  -9   5  -7 563.720 269.851  12
  -9  -5   7-124.886 214.086   2
  -9   5  -7 674.632 221.797   5
  -9  -5   7 84.4143 188.278  19
  -9   5  -7 670.588 270.597  19
   9   5  -7 696.975 347.529  18
   9   5  -7 760.042 247.257   8
   9   5  -7 442.372 326.973   1
  -9  -5   7 108.933 175.176  17
   9  -5   7 554.948 235.345   8
  -9   5  -7 542.000 250.370   4
  -9   5  -7 732.436 500.207   3
   9  -5   7 554.819 233.468  14
  -9   5  -8-43.2636 164.621   3
   9   5  -8 43.9621 53.2588  13
   9  -5   8 3.87489 41.3332   6
  -9   5  -8 4.27702 23.8345  12
  -9   5  -8 162.530 118.838   5
  -9  -5   8 59.5288 75.2305  19
  -9  -5   8-301.133 206.102   2
  -9   5  -8 27.2313 35.5781  19
   9   5  -8 103.110 164.587  18
   9   5  -8 2.11719 39.1451   8
  -9  -5   8 69.5420 147.860  17
   9   5  -8-1.09966 113.840   1
   9  -5   8 29.3340 16.5922   8
  -9   5  -8-89.1201 105.324   4
   9  -5   8-55.5414 71.9297   1
   9  -5   8-120.920 160.161  14
  -9   5  -9 417.796 375.369   3
   9  -5   9 603.284 256.708   6
   9   5  -9 375.941 206.626  13
  -9   5  -9 338.502 227.778  12
   9   5  -9 882.187 381.703  20
  -9   5  -9 567.105 234.418   5
  -9  -5   9 232.828 189.315  19
  -9  -5   9 218.268 142.678   2
  -9   5  -9 380.781 215.925  19
   9   5  -9 598.041 320.357  18
   9  -5   9 669.666 219.949   1
  -9  -5   9 141.078 45.8574  17
   9   5  -9 562.388 201.031   8
   9  -5   9 565.268 247.375   8
   9   5  -9 256.036 247.419   1
  -9   5  -9 437.282 199.334   4
   9  -5   9 524.835 204.871  14
  -9   5 -10 180.583 194.899   3
   9  -5  10 360.010 175.833   6
   9   5 -10 334.828 273.121  13
  -9   5 -10 292.069 217.369  12
   9   5 -10 778.440 420.616  11
   9  -5  10 254.681 119.004   1
   9   5 -10 362.033 258.348  20
  -9   5 -10 241.443 157.234   5
  -9  -5  10 86.2687 86.0462  19
  -9   5 -10 275.293 178.406  19
  -9  -5  10 168.874 185.317   2
   5   9 -10 200.815 147.990  18
   9   5 -10 549.207 324.115  18
  -5  -9  10 196.185 188.968  17
  -9  -5  10-18.9815 149.138  17
   9   5 -10 555.960 208.816   8
  -9   5 -10 241.700 164.240   4
   9  -5  10 540.284 259.046   8
   9   5 -10 156.812 331.855   1
   9  -5  10 291.782 145.271  14
   9   5 -11 1766.64 535.602  13
   9  -5  11 729.611 303.273   6
   9  -5  11 720.534 258.062   1
  -9   5 -11 511.024 344.849   3
   5  -9  11 147.479 231.247   6
  -9   5 -11 459.717 303.929  12
   9   5 -11 2541.65 959.110   1
   9   5 -11 1862.82 734.723  11
  -9   5 -11 726.718 306.530   5
  -9  -5  11 775.104 294.895  19
  -9   5 -11 525.037 248.327  19
   9   5 -11 1747.61 594.959  18
  -9  -5  11 867.046 460.439   2
   5   9 -11 261.444 181.194  18
  -5  -9  11 106.609 142.979  17
  -9  -5  11 731.824 458.486  17
  -9   5 -11 606.502 280.182   4
   9  -5  11 855.610 320.242   8
  -5   9 -11 201.448 222.395   3
   9  -5  11 639.297 241.408  14
   9  -5  12 1082.60 396.237   6
   5   9 -12 205.579 207.165  13
   9   5 -12 1260.81 416.255  13
  -9   5 -12 662.326 397.590   3
   5  -9  12 330.013 278.777   6
  -5  -9  12-8.82909 93.1450   6
  -9   5 -12 703.149 322.132  12
  -5   9 -12 977.313 357.009  12
  -9  -5  12 307.849 415.834   5
   9   5 -12 1534.76 594.055  11
  -9   5 -12 1037.89 403.096   5
  -9   5 -12 911.520 332.851  20
   9   5 -12 732.910 645.392  20
  -9   5 -12 749.145 258.710  10
   9   5 -12 1586.38 641.010  10
  -9  -5  12 622.412 243.670  19
  -9   5 -12 575.587 238.265  19
   5   9 -12 994.031 368.649  18
  -9  -5  12 282.826 199.696   2
   9  -5  12 1357.00 404.493   8
   9   5 -12 1213.98 489.320  18
  -5  -9  12-114.658 149.195  17
  -9   5 -12 850.644 355.651   4
  -9  -5  12 626.074 354.968  17
   9  -5  12 660.487 566.212  16
   9  -5  12 1017.85 434.616   1
  -5   9 -12 1424.89 411.811   4
   9   5 -12 891.976 528.893   1
   9  -5  12 1360.88 415.295  14
  -5   9 -12 872.202 480.917   3
   9   6  -2 438.185 207.548  18
   9   6  -2 207.293 146.936   8
  -9  -6   2 191.070 250.964  17
   9   6  -3 58.6894 96.6129  18
   9   6  -3 39.9352 49.1880   8
  -9  -6   3 127.810 190.016  17
   9  -6   4 1086.17 398.901  14
   9  -6   4 366.005 350.410   6
  -9   6  -4 1908.23 505.774   5
  -9  -6   4 23.3725 200.019  19
  -9   6  -4 1247.81 372.783  19
   9   6  -4 849.473 367.944  18
  -9   6  -4 1928.06 561.949   4
   9   6  -4 762.513 340.516   8
  -9  -6   4 197.731 240.295  17
   9  -6   4 183.012 79.8138   8
   9  -6   5 189.528 196.230  14
   9  -6   5 241.488 281.711   6
  -9   6  -5-402.825 285.667  12
  -9  -6   5 64.3397 170.903  19
  -9   6  -5 544.158 245.059   5
  -9   6  -5 140.187 110.757  19
   9   6  -5 227.475 232.225  18
   9   6  -5 146.573 156.462   8
  -9  -6   5 50.9430 67.9583  17
   9  -6   5 43.8892 138.358   8
  -9   6  -5 175.922 153.350   4
   9  -6   5 241.409 175.125   1
   9  -6   6 411.943 260.831  14
   9  -6   6 733.536 370.112   6
  -9   6  -6 782.880 380.644  12
  -9   6  -6 1519.49 395.637   5
   9  -6   6 525.336 221.496   1
  -9   6  -6 780.417 369.258  19
  -9  -6   6 68.2240 123.561  19
   9   6  -6 820.393 374.020  18
   9   6  -6 597.903 272.365   8
  -9  -6   6 18.6150 104.293  17
   9  -6   6 612.198 286.460   8
  -9   6  -6 1251.11 426.140   4
   9  -6   7 501.935 261.595  14
   9  -6   7 328.604 252.357   6
  -9   6  -7 552.245 307.869  12
  -9  -6   7-37.2429 173.411  19
  -9   6  -7 673.161 283.608   5
   9   6  -7 380.080 268.677   1
  -9   6  -7 545.911 276.690  19
   9   6  -7 369.271 227.496  18
   9   6  -7 484.723 261.511   8
  -9  -6   7 85.8089 124.803  17
   9  -6   7 538.534 259.045   8
  -9   6  -7 736.479 291.491   4
   9  -6   7 386.624 186.580   1
  -9   6  -7-141.354 770.860   3
   9  -6   8 507.799 217.037  14
   9   6  -8 49.0179 253.633  13
   9  -6   8 327.418 255.850   6
  -9   6  -8 494.652 291.430  12
   9  -6   8 632.554 237.440   1
  -9  -6   8 53.6578 113.098  19
  -9   6  -8 691.911 224.213   5
  -9   6  -8 843.937 287.241  19
   9   6  -8 8.26930 89.6182   1
   9   6  -8 774.251 358.603  18
   9   6  -8 619.869 238.780   8
  -9  -6   8-80.7085 189.157  17
   9  -6   8 567.154 251.969   8
  -9   6  -8 748.161 275.178   4
  -9   6  -8 385.080 362.343   3
   9  -6   9 85.1677 124.212   1
   9   6  -9 100.488 110.535  13
   9  -6   9-2.57815 49.6253   6
  -9   6  -9 8.80312 126.431  12
  -9  -6   9-489.619 444.866   2
  -9   6  -9 17.0625 61.9365   5
  -9  -6   9-48.7892 68.1618  19
  -9   6  -9 36.0395 31.2575  19
   9   6  -9-347.904 389.419   1
   9   6  -9 114.497 161.011  18
   9   6  -9-67.5249 82.3816   8
  -9  -6   9 112.328 198.849  17
   9  -6   9 108.742 129.783   8
  -9   6  -9-0.46487 33.4507   4
  -9   6  -9-85.4984 291.885   3
   9  -6   9 31.1365 123.901  14
  -9   6 -10 689.396 412.668   3
   9   6 -10 663.030 344.452  13
   9  -6  10 802.299 323.620   6
  -9   6 -10 627.917 244.437  12
  -9   6 -10 966.430 293.733   5
  -9  -6  10-551.479 297.775   2
  -9  -6  10 8.61685 84.9728  19
  -9   6 -10 990.526 325.035  19
   6   9 -10 342.321 192.312  18
   9   6 -10 852.081 429.050  18
   9   6 -10 542.331 471.584   1
  -6  -9  10 116.650 130.977  17
  -9  -6  10 190.092 191.210  17
   9  -6  10 673.179 205.892   1
   9  -6  10 760.756 320.469   8
  -9   6 -10 824.655 322.190   4
   9  -6  10 925.370 303.237  14
  -9   6 -11-125.158 203.928   3
   9  -6  11 134.428 86.8168   6
   9   6 -11 50.8430 168.276  13
   6  -9  11 48.9707 189.756   6
  -9   6 -11-7.79935 39.7692  12
  -6   9 -11-116.250 304.670  12
   9   6 -11-45.3521 403.943  20
  -9   6 -11 73.8176 148.717   5
   9  -6  11 203.512 154.853   1
  -9  -6  11-80.3245 188.269   2
  -9  -6  11 36.6726 108.550  19
  -9   6 -11 131.691 123.517  19
   6   9 -11 176.335 156.295  18
   9   6 -11 6.40283 118.209  18
   9   6 -11 382.064 394.632   1
  -6  -9  11-7.39470 65.5073  17
  -9  -6  11 28.5715 32.8309  17
  -9   6 -11 77.1340 81.1966   4
   9  -6  11 29.9998 74.3996   8
   9  -6  11 136.023 130.105  14
   9   7  -4 271.151 203.754  18
  -9  -7   4 92.8145 162.521  17
   9   7  -5 354.968 235.584  18
   9   7  -5 365.859 210.757   8
  -9  -7   5 86.9400 148.904  17
   9  -7   6 387.646 373.627   6
  -9  -7   6-9.99442 182.890  19
   9   7  -6 771.685 337.945  18
   9   7  -6 586.021 306.099   8
  -9  -7   6 36.6433 199.908  17
   9  -7   6 45.0486 503.180   8
   9  -7   7 383.786 296.551  14
   9  -7   7 256.599 254.239   6
  -9   7  -7 351.178 146.779  12
  -9  -7   7-103.912 198.696  19
  -9   7  -7 832.524 355.650   5
   9   7  -7 509.674 271.575  18
   9   7  -7 362.699 209.693   8
  -9  -7   7 94.6698 120.783  17
  -9   7  -7 667.895 336.728   4
   9  -7   7 422.902 251.676   1
   9  -7   8 760.507 392.431  14
   9  -7   8 324.698 153.315   6
  -9   7  -8 1065.92 447.282  12
  -9   7  -8 2001.47 492.560   5
   9  -7   8 883.234 297.801   1
  -9  -7   8 83.1165 145.539  19
  -9   7  -8 1056.56 355.489  19
   9   7  -8 942.740 384.636  18
  -9   7  -8 1827.46 548.772   4
   9   7  -8 975.449 327.289   8
  -9  -7   8-134.589 181.153  17
   9  -7   8 518.153 223.719   8
   9  -7   9 225.944 195.043  14
   9   7  -9-312.818 442.068  13
   9  -7   9 329.886 283.129   6
  -9   7  -9 545.843 356.967  12
  -9  -7   9-99.2363 139.365  19
  -9   7  -9 547.614 255.377   5
  -9   7  -9 354.757 183.653  19
   7   9  -9 262.050 184.678  18
   9   7  -9 217.166 201.547  18
  -7  -9   9-36.8378 112.107  17
  -9  -7   9 29.2675 119.559  17
   9  -7   9 396.085 205.659   1
   9  -7   9 213.309 183.318   8
  -9   7  -9 491.830 252.258   4
  -9   7  -9-121.411 581.602   3
   9   8  -6 163.941 168.570  18
  -9  -8   6 87.8387 176.798  17
  -9  -8   7-193.623 287.417  19
  -9  -8   7 30.6469 168.435  17
  10   0   0 63.2986 62.0967   6
 -10   0   0 64.9826 80.2233  12
  10   0   0 70.2630 108.632   1
  10   0   0 200.303 150.285  11
 -10   0   0 150.721 174.624   5
 -10   0   0 90.3119 130.259  19
 -10   0   0 46.2601 76.9481   2
  10   0   0 97.4993 65.3332  18
 -10   0   0-15.7444 51.3188   4
  10   0   0 109.462 127.286   8
 -10   0   0 13.0510 55.0409  17
 -10   0   0 55.7535 141.519   7
 -10   0   0 26.6383 86.6513  15
  10   0   0 7.46455 71.8867  14
  10   0  -1 0.17621 18.5184   6
  10   0  -1 5.89330 44.4311  13
  10   0   1 31.4853 170.063   1
 -10   0  -1 0.91019 45.5622  12
 -10   0   1-20.3767 85.0005  12
  10   0   1 0.03170 84.2254  11
  10   0  -1 36.6359 84.6354  11
 -10   0  -1-43.6816 45.7169   5
 -10   0   1-15.3711 21.1993   5
  10   0  -1-18.9593 90.7130   1
 -10   0  -1-26.1741 68.3260   2
 -10   0  -1-76.5139 134.872  19
 -10   0   1 39.0996 95.7815  19
  10   0   1 7.93195 32.4490  18
  10   0  -1-18.7562 49.0820  18
 -10   0   1 54.6814 74.5205   2
 -10   0  -1 34.2687 77.1638   4
  10   0   1-4.55290 91.0932   8
 -10   0   1 43.8712 73.7707   4
 -10   0  -1-95.6603 126.554  17
  10   0  -1-52.6103 94.7139   8
 -10   0   1 162.357 137.358  17
 -10   0  -1 17.7344 109.877   7
 -10   0   1 200.982 180.016   7
 -10   0  -1 55.0836 111.553  15
 -10   0   1 96.7529 118.001  15
  10   0   1 36.8893 100.722  14
  10   0  -1 85.7498 102.023  14
 -10   0  -1-20.0624 49.3870   3
  10   0   1-6.05902 43.9078   6
  10   0  -2 63.5132 83.8076   6
  10   0   2 72.6011 67.5331   1
 -10   0  -2-37.3038 34.0578   3
  10   0  -2 27.4801 16.9554  13
 -10   0  -2 33.6792 48.5906  12
 -10   0   2-28.1519 26.5077  12
  10   0   2 189.412 144.194  11
  10   0  -2 151.280 170.200  11
 -10   0  -2 26.6049 30.7809   5
 -10   0   2 70.6114 106.935   5
 -10   0  -2 79.3065 111.320  19
 -10   0   2 36.8761 80.2925  19
  10   0  -2 157.362 167.506   1
  10   0   2 8.88884 52.2804  18
  10   0  -2 143.134 162.915  18
 -10   0  -2 136.869 161.495   4
 -10   0   2 74.7474 70.5366   2
  10   0   2 18.1915 23.1323   8
 -10   0  -2-18.2610 56.7553  17
 -10   0   2-20.2885 91.7813  17
 -10   0   2 54.8662 144.777   4
  10   0  -2 131.075 120.411   8
 -10   0  -2 36.9284 84.0107   7
 -10   0  -2-34.8940 95.7510  15
  10   0   2 50.7772 71.2873  14
  10   0  -2 101.795 152.639  14
  10   0   2 94.8163 131.378   6
  10   0  -3 30.4850 35.5359   6
 -10   0  -3-63.0935 90.9495   3
 -10   0  -3 35.9241 92.3724  12
  10   0   3 94.4167 102.453  11
 -10   0  -3 128.513 143.981   5
  10   0  -3 237.777 255.508  11
 -10   0   3 22.8239 78.0934   5
 -10   0  -3 10.9076 36.4802  19
 -10   0   3-22.6607 98.3258  19
  10   0   3-10.6458 39.5677  18
  10   0  -3 33.7268 63.8935  18
  10   0  -3-97.4983 101.750   1
 -10   0  -3-19.0062 13.5435   4
  10   0   3-56.7364 128.828   8
 -10   0  -3 115.066 128.747  17
 -10   0   3 46.8905 69.7818   2
 -10   0   3-57.7807 141.998  17
  10   0  -3 66.7767 103.363   8
 -10   0   3 17.0771 71.0080   4
 -10   0  -3-154.250 213.537   7
 -10   0  -3-105.364 211.630  15
  10   0   3-56.4687 94.4155  14
  10   0   3-9.85809 80.9733   1
  10   0  -3 70.3445 133.649  14
  10   0   3 29.1171 43.3098   6
 -10   0  -4 371.208 236.350  12
 -10   0  -4 296.077 175.958   3
  10   0   4 1902.38 352.851  11
 -10   0  -4 363.910 277.993   5
  10   0  -4 857.620 421.744  11
 -10   0   4 821.047 308.060   5
 -10   0  -4 510.820 294.079  19
 -10   0   4 743.571 275.502  19
  10   0   4 1282.35 314.027  18
  10   0  -4 886.090 282.641   8
  10   0  -4 1033.69 406.954  18
 -10   0  -4 153.783 168.512   4
  10   0   4 1169.71 371.170   8
  10   0  -4 661.186 333.988   1
 -10   0  -4 276.281 147.807  17
 -10   0   4 658.768 356.644  17
 -10   0   4 750.723 288.438   4
  10   0   4 1187.82 299.977  16
 -10   0   4 685.948 221.292   2
 -10   0  -4 53.6300 208.246   7
  10   0   4 1011.76 414.989   1
  10   0  -4 1085.26 228.308   6
 -10   0  -4 9.85387 252.916  15
  10   0   4 765.811 333.783  14
  10   0   4 1157.74 404.327   6
  10   0  -4 1071.53 402.507  14
  10   0  -5-8.51394 17.7215   6
 -10   0  -5-74.4607 181.201   5
  10   0   5 90.3981 86.2469  11
  10   0  -5 154.658 154.542  11
 -10   0   5 74.9083 147.254   5
 -10   0  -5 58.7187 118.079  19
 -10   0   5-14.9329 14.7937  19
  10   0   5-21.3596 24.3884  18
  10   0  -5 61.1319 91.6069  18
 -10   0  -5-78.2349 119.548   4
  10   0   5 103.349 127.191   8
 -10   0  -5 37.2521 104.191  17
 -10   0   5 74.0063 102.526  17
  10   0  -5-51.6234 64.3536   8
 -10   0   5 102.208 114.008   4
  10   0   5 93.9176 245.859   1
  10   0  -5-2.31946 48.9368   1
  10   0   5 22.7741 30.7368  16
 -10   0   5-23.0185 40.5652   2
  10   0   5-98.7099 142.612  14
  10   0   5 127.670 172.896   6
  10   0  -5 12.9535 76.5623  14
 -10   0   6 1171.50 419.984   5
  10   0   6 1922.40 297.911  11
 -10   0   6 1037.10 299.093   2
  10   0  -6 1099.33 524.237  11
 -10   0   6 1082.31 326.592  19
 -10   0  -6 130.216 104.598  19
  10   0   6 1632.44 332.742  18
 -10   0   6 1140.74 369.672   4
  10   0  -6 1352.18 393.184   8
 -10   0  -6-74.6530 285.501   4
  10   0  -6 887.614 363.333  18
  10   0   6 1314.55 430.150   8
  10   0   6 1208.00 493.635   1
 -10   0  -6 196.229 122.323  17
 -10   0   6 1099.30 446.617  17
  10   0   6 2019.86 398.661  16
  10   0  -6 1308.22 225.223   6
  10   0  -6 852.296 326.368   1
  10   0   6 1248.01 433.916  14
  10   0   6 1208.00 431.445   6
  10   0  -6 1190.53 418.091  14
  10   0  -7-17.6363 36.3095   6
  10   0   7 6.35363 31.5924  11
  10   0  -7-109.632 154.134  11
 -10   0   7 117.996 179.910   5
 -10   0  -7 4.84823 82.6068  19
 -10   0   7-23.4606 27.6497  19
  10   0   7-1.72315 27.7493  18
  10   0   7 129.156 217.483   1
  10   0  -7-56.0594 120.052  18
  10   0   7-37.7183 91.0602   8
 -10   0  -7 17.7875 44.9316  17
 -10   0   7 130.607 193.562  17
  10   0  -7-33.1759 161.971   8
 -10   0   7 71.8863 130.179   4
  10   0   7-77.9432 120.450  16
 -10   0   7-7.89948 25.0015  16
 -10   0   7 27.9480 87.6898   2
  10   0   7 12.3433 142.229  14
  10   0   7-126.622 165.551   6
  10   0  -7 14.3509 119.857  14
  10   0  -7 20.0101 100.124   1
  10   0  -8 809.497 419.574   1
 -10   0   8 919.581 360.481   2
  10   0  -8 625.170 435.154  11
 -10   0   8 1180.08 429.303   5
 -10   0  -8 14.6402 96.7212  19
  10   0   8 836.679 455.012   1
 -10   0   8 553.126 291.887  19
  10   0   8 1286.16 271.512  18
 -10   0   8 1091.31 352.635   4
  10   0  -8 850.312 413.738  18
  10   0   8 1340.49 435.953   8
 -10   0  -8 142.510 101.960  17
 -10   0   8 1166.26 548.170  17
  10   0   8 1713.66 395.624  16
 -10   0   8 878.412 211.634  16
  10   0  -8 432.770 402.863   8
  10   0  -8 1025.08 193.629   6
  10   0   8 1167.31 463.407  14
  10   0   8 799.193 365.152   6
  10   0  -8 1138.15 415.751  14
  10   0  -9 80.7425 173.519   1
  10   0  -9 81.5429 115.390  11
 -10   0  -9-88.8624 169.468  19
 -10   0   9-120.875 159.607   5
 -10   0   9-32.2489 27.6839  19
  10   0   9 6.72738 50.7374  18
  10   0  -9-33.6397 74.9797  18
  10   0   9-98.1935 56.7194   8
 -10   0  -9 49.7786 41.6449  17
 -10   0   9-8.76598 148.546  17
 -10   0   9 34.2701 40.8779   4
  10   0   9 22.8678 84.4050  16
 -10   0   9-4.65448 12.5382  16
 -10   0   9 9.73110 24.9250   2
  10   0   9-147.124 166.836  14
  10   0   9-14.9983 42.4973   6
  10   0  -9 33.8388 51.2536  14
  10   0 -10 213.094 198.585   1
  10   0 -10 290.031 256.280  11
 -10   0 -10-169.339 278.822  19
 -10   0  10 190.508 115.029   5
 -10   0  10-43.0174 202.735  19
  10   0 -10 91.4993 127.831  18
  10   0  10 109.040 111.034   8
 -10   0  10 162.058 233.029  17
 -10   0  10 338.418 206.972   4
  10   0  10 471.240 237.238  16
 -10   0  10 323.673 183.101  16
 -10   0  10 459.442 296.853   2
  10   0  10 361.936 230.887  14
  10   0  10 179.557 235.439   6
  10   0 -10 105.651 157.899  14
  10   0 -11 201.655 224.353   1
  10   0 -11-73.0846 209.186  11
 -10   0 -11-176.088 270.538  19
 -10   0  11-178.193 235.502   5
  10   0 -11 13.4201 118.959  18
  10   0  11-184.109 170.810   8
 -10   0  11-159.775 263.353  17
 -10   0  11 88.6821 154.610   4
  10   0  11-151.964 184.066  16
 -10   0  11-18.4375 48.6589  16
 -10   0  11 49.5679 140.613   2
  10   0  11-78.4255 70.6616   6
  10   0 -11-91.3742 140.370  14
  10   0 -12-352.158 508.622  11
  10   0 -12 178.464 190.941   1
 -10   0 -12-7.31035 104.890  19
 -10   0  12-22.9497 183.021   5
  10   0 -12-299.784 308.896  18
  10   0  12 390.927 234.786   8
 -10   0  12 88.4654 168.857  17
 -10   0  12 50.5719 51.6947   4
  10   0  12-277.334 270.255  16
 -10   0  12 5.05560 90.7932  16
  10   0  12-90.3452 140.723   6
 -10   0  12 160.795 218.974   2
  10   0 -12 56.7229 51.2262  14
  10   0 -13-602.582 608.892  11
 -10   0 -13 49.5780 215.634  19
 -10   0  13 39.7636 94.5809   5
  10   0 -13-4.28829 82.2294   1
  10   0 -13-347.867 366.662  18
  10   0  13 15.6203 157.335   8
 -10   0  13 26.6465 115.451  17
 -10   0  13-76.3318 157.055   4
  10   0  13-46.4508 198.166  16
 -10   0  13-120.379 167.457  16
  10   0  13-196.874 303.136   6
 -10   0  13-144.451 215.543   2
  10   0 -13 51.7337 114.082  14
  10   1   0 16.3303 27.7608   1
  10  -1   0-11.8050 37.4537   6
 -10  -1   0 11.7140 12.4251  12
 -10   1   0 17.8573 40.7466  12
  10   1   0 85.1262 133.211  11
 -10  -1   0-46.5037 94.9267   5
  10  -1   0-484.511 601.194  11
 -10   1   0 0.62135 41.9163   5
 -10  -1   0-140.892 224.707   2
 -10  -1   0-33.6556 26.9664  19
 -10   1   0 41.4905 49.0220  19
  10   1   0 29.0105 88.4613  18
  10  -1   0-18.9716 60.8764   1
  10  -1   0 96.7145 172.465  18
 -10  -1   0 36.4324 119.422   4
 -10   1   0 17.9900 57.7850   2
  10   1   0 37.9636 79.8543   8
 -10  -1   0 70.6993 121.085  17
  10  -1   0 45.3970 82.0481   8
 -10   1   0-21.5328 120.969  17
 -10   1   0 13.2262 70.1022   4
  10   1   0-25.8842 96.8322  14
  10   1   0-108.352 184.525   6
 -10  -1   0 5.78885 27.0959   3
  10  -1   0-83.9023 111.751  14
  10  -1   1 223.764 136.885   6
  10  -1  -1 113.557 73.4541   6
 -10  -1  -1 33.3604 47.2272   3
  10   1  -1 167.178 116.934   1
 -10  -1  -1 123.665 131.316  12
 -10  -1   1 39.8213 95.2373  12
 -10   1  -1 133.075 145.104  12
 -10   1   1 56.6158 22.4704  12
  10   1   1 329.945 204.368  11
  10   1  -1 224.352 161.940  11
 -10  -1  -1 59.4477 100.251   5
 -10  -1   1 53.4646 95.7647   5
  10  -1   1-769.640 650.629  11
  10  -1  -1-511.943 582.368  11
 -10   1  -1-2.77144 108.425   5
 -10   1   1 64.7400 95.7991   5
 -10  -1  -1 163.107 178.540  19
 -10  -1   1 164.474 164.570  19
 -10   1  -1 101.328 127.097  19
 -10   1   1 111.324 95.4486  19
  10  -1   1 111.383 126.119   1
 -10  -1   1 104.146 78.5489   2
  10   1   1 108.537 113.399  18
  10   1  -1 175.547 183.951  18
 -10   1  -1 74.7289 84.3905   2
  10  -1   1 89.0739 132.857  18
  10  -1  -1 120.583 160.039  18
 -10  -1  -1-9.67331 101.073   4
 -10  -1   1 39.3457 58.3689   4
  10   1   1 155.449 139.029   8
 -10  -1  -1 32.9026 125.583  17
  10   1  -1 56.9717 89.7711   8
 -10  -1   1 15.9624 50.6756  17
  10  -1   1 1.44533 52.1133   8
 -10   1  -1-33.1468 80.7307   4
  10  -1  -1-8.24371 16.4987   1
  10  -1  -1 90.7979 123.268   8
 -10   1  -1 59.8978 131.377  17
 -10   1   1 162.265 249.733  17
 -10   1   1 31.2681 52.1913   2
 -10   1   1 85.6440 108.887   4
  10   1   1 136.439 158.067   1
  10   1   1 53.1921 46.1377   6
  10   1   1 200.275 207.451  14
  10   1  -1 47.2676 87.0342  14
  10   1  -1 253.568 223.439   6
  10  -1   1 94.4143 97.4232  14
  10  -1  -1-16.3442 72.2644  14
  10  -1   2 31.0483 89.0072   6
  10   1  -2-124.824 147.788  13
  10  -1  -2 24.8489 10.1185   6
  10   1  -2 21.1774 87.2312   1
 -10  -1  -2 8.23203 57.4412   3
 -10   1  -2 36.9632 126.272  12
 -10  -1   2 9.52316 70.5544  12
  10   1   2 129.449 121.965  11
 -10  -1  -2 22.8065 102.687   5
  10   1  -2 85.2134 126.839  11
 -10  -1   2 29.0349 111.625   5
  10  -1   2 36.6509 50.0189   1
  10  -1  -2-755.285 646.968  11
 -10   1  -2 4.86257 83.4212   5
 -10   1   2 22.3695 82.5073   5
 -10  -1  -2-109.957 182.510  19
 -10  -1   2-30.5983 99.6489  19
 -10   1  -2 22.5266 39.2698  19
 -10   1   2 15.5287 45.4172  19
 -10   1  -2 58.5065 62.6357   2
 -10  -1   2-0.79192 8.19463   2
  10   1   2 76.4020 63.0348  18
  10   1  -2 80.1523 118.888  18
  10  -1   2-50.8113 45.2783  18
  10  -1  -2 114.259 128.593  18
 -10  -1  -2 13.6104 103.392   4
 -10  -1   2 56.5986 85.1179   4
  10   1   2-27.7103 86.2857   8
 -10  -1  -2-7.20498 76.3611  17
  10   1  -2 15.8467 53.1580   8
 -10  -1   2-37.8421 80.9087  17
 -10   1  -2 37.5415 46.9557   4
  10  -1   2-7.17733 52.4986   8
 -10   1  -2 163.654 141.143  17
 -10   1   2-41.5450 50.4289  17
  10  -1  -2-12.7774 33.7103   8
 -10   1   2 6.41971 63.1149   4
 -10   1   2 3.21426 25.6636   2
  10  -1  -2-5.12292 59.3001   1
  10   1   2-30.5670 33.3028   1
 -10   1  -2 135.447 142.351  15
  10   1   2 111.315 144.587   6
  10   1   2 17.0878 71.1139  14
  10   1  -2 39.8413 106.171  14
  10   1  -2 119.962 157.155   6
 -10   1  -2-38.4409 109.877   3
  10  -1   2-139.339 168.814  14
  10  -1  -2-46.6767 111.379  14
  10  -1   3 177.216 134.142   6
 -10   1  -3 90.3431 99.2797   3
  10   1  -3 246.465 113.598  13
  10  -1  -3 100.300 65.8071   6
 -10   1  -3 86.5954 80.2603  12
  10  -1   3 160.735 137.985   1
 -10  -1   3 114.535 121.868  12
 -10  -1  -3-139.599 225.884   5
  10   1  -3 195.430 112.038   1
  10   1  -3 291.466 216.956  11
 -10   1  -3 170.331 138.697   5
 -10  -1   3 84.8833 168.020   5
 -10   1   3 117.677 107.949   5
 -10  -1  -3 27.6689 89.9755  19
 -10   1  -3 104.611 156.614  19
 -10  -1   3 190.549 178.621  19
 -10   1   3 110.288 98.5175  19
  10   1   3 309.495 196.210  18
  10   1  -3 245.285 178.162  18
  10  -1   3 251.114 165.958  18
 -10  -1  -3-97.4957 229.783   4
 -10  -1   3 131.906 99.1214   2
  10  -1  -3 212.144 291.280  18
  10   1   3 269.614 224.835   8
 -10  -1  -3 4.99681 15.8812  17
 -10  -1   3 116.737 176.856   4
 -10   1  -3 92.3287 40.6126   4
  10  -1   3 159.215 149.943   8
 -10  -1   3-3.49335 93.0994  17
  10   1  -3 155.650 113.717   8
 -10   1  -3-2.83282 106.991  17
 -10   1   3 103.272 131.822  17
  10  -1  -3 137.112 124.392   8
  10   1   3 149.879 209.108   1
 -10   1   3 121.738 115.983   4
  10   1   3 280.749 131.112  16
 -10  -1   3-33.7122 211.693   7
 -10   1   3 150.958 116.917   2
 -10   1  -3 103.463 123.972   7
 -10  -1   3-144.601 236.556  15
 -10   1  -3 188.217 147.637  15
  10   1   3 290.728 219.600   6
  10   1   3 222.042 232.289  14
  10   1  -3 212.874 241.261  14
  10  -1  -3 159.579 130.559   1
  10  -1   3 127.207 109.125  14
  10   1  -3 205.022 150.361   6
  10  -1  -3 32.7753 31.7407  14
  10  -1   4-37.7227 80.7188   6
  10  -1   4-37.8375 83.1034   1
 -10   1  -4 110.805 148.705   3
  10   1  -4 42.0094 60.4035  13
  10  -1  -4 10.0978 52.0275   1
  10  -1  -4 24.4820 11.6816   6
 -10   1  -4 62.6113 77.7688  12
  10   1  -4-1.95073 53.3065  11
 -10   1  -4 329.207 248.456   5
 -10  -1   4 76.3682 151.969   5
  10   1  -4-87.4563 152.203   1
 -10   1   4 50.1476 102.516   5
 -10  -1  -4 35.5303 79.9052  19
 -10   1  -4-124.994 152.703  19
 -10  -1   4-28.3999 11.9470  19
 -10   1   4-0.22778 43.7506  19
  10   1   4 1.65107 72.3774  18
  10   1  -4-6.68272 15.3313  18
  10  -1   4 177.620 259.621  18
  10  -1  -4 39.1891 119.717  18
 -10  -1   4-39.0578 49.1002   2
  10   1   4 11.2721 52.4766   8
 -10   1  -4-29.1882 112.907   4
 -10  -1  -4-8.55710 13.1952  17
  10   1   4-18.7641 66.1145   1
 -10  -1   4-36.6717 74.4087   4
  10  -1   4-22.2619 53.2382   8
 -10  -1   4 140.935 164.621  17
  10   1  -4 18.0084 47.9588   8
 -10   1  -4-58.4497 83.4220  17
 -10   1   4 13.1331 69.5845  17
  10  -1  -4-25.5420 60.1885   8
 -10   1   4 30.8279 38.1815   4
 -10  -1   4 7.88414 74.5602   7
  10   1   4 4.40744 33.4837  16
 -10   1  -4 86.9340 159.639   7
 -10  -1   4-260.159 218.715  15
 -10   1   4-45.1809 77.0811   2
 -10   1  -4 30.0338 114.172  15
  10   1   4 96.1646 223.366   6
  10   1   4 45.3116 160.743  14
  10   1  -4 4.56687 68.3522  14
  10  -1   4-40.4828 105.711  14
  10   1  -4 99.7450 99.9451   6
  10  -1  -4-13.0421 93.7626  14
  10   1  -5 830.646 214.368  13
 -10   1  -5 178.619 154.493   3
 -10   1  -5 296.719 203.655  12
  10  -1  -5 575.025 266.239   1
  10   1  -5 1196.01 455.382  11
 -10   1  -5 482.124 280.600   5
  10  -1  -5-819.259 692.185  11
 -10  -1   5 301.510 247.555   5
 -10  -1  -5-55.2930 144.986  19
 -10   1   5 802.007 271.507   5
 -10   1  -5 264.337 170.092  19
  10   1  -5 834.318 332.452   1
 -10  -1   5 605.525 270.120  19
 -10   1   5 632.413 261.568  19
  10   1   5 1049.42 288.081  18
  10   1  -5 851.491 287.309   8
  10   1  -5 1040.82 375.804  18
  10  -1   5 1245.09 342.175  18
  10   1   5 628.053 339.870   1
  10  -1  -5 506.843 333.560  18
  10   1   5 815.756 365.549   8
 -10   1  -5 363.642 260.925   4
 -10  -1  -5 10.3114 47.5581  17
 -10  -1   5 559.858 223.903   2
  10  -1   5 811.664 304.051   8
 -10  -1   5 690.590 266.281   4
 -10  -1   5 547.069 298.772  17
 -10   1  -5 128.769 100.250  17
 -10   1   5 298.700 343.730  17
  10   1   5 1067.98 270.450  16
  10  -1  -5 616.541 311.127   8
 -10   1   5 571.123 240.773   4
 -10  -1   5 512.662 187.420   7
 -10   1  -5 275.925 182.240   7
 -10  -1   5 580.040 199.112  15
 -10   1  -5 398.448 220.355  15
  10  -1  -5 737.849 206.014   6
 -10   1   5 728.810 248.556   2
  10   1   5 531.302 331.063   6
  10   1   5 706.286 392.185  14
  10  -1   5 826.377 348.311  14
  10   1  -5 517.927 330.188  14
  10  -1   5 863.020 349.714   1
  10   1  -5 744.590 224.219   6
  10  -1  -5 882.315 360.503  14
  10  -1   5 818.429 316.628   6
 -10   1  -6 69.2678 152.840  12
  10  -1  -6-30.8273 13.1159   6
 -10   1  -6 55.4591 76.4705   3
 -10   1  -6 87.5423 116.644   5
  10   1  -6-18.8316 106.450  11
  10  -1  -6-3.84807 55.8145   1
 -10  -1   6 60.3973 129.940   5
 -10  -1  -6 22.3304 136.814  19
 -10   1  -6 24.3178 93.6786  19
 -10   1   6-102.299 158.780   5
 -10  -1   6 49.6889 74.3397  19
 -10   1   6-5.35917 76.3748  19
  10   1   6-58.5094 106.567   1
  10   1  -6 115.852 153.184   1
  10   1   6-51.2158 100.351  18
  10   1  -6-98.6037 126.253  18
  10  -1   6-33.7564 63.8626  18
  10  -1  -6-235.626 276.002  18
 -10   1  -6-83.7322 135.012   4
  10   1   6-118.360 197.966   8
 -10  -1  -6-172.551 147.784  17
  10  -1   6 14.6787 50.5082   8
 -10  -1   6 58.9992 99.4293  17
 -10  -1   6-85.6020 72.3901   4
 -10  -1   6 28.6059 65.5977   2
 -10   1  -6 16.3133 75.6328  17
  10   1  -6 21.8835 62.3318   8
 -10   1   6-34.1157 85.5137  17
  10  -1   6 10.4263 13.9175  16
  10  -1  -6-220.881 339.860   8
 -10   1   6 70.2719 109.298   4
 -10   1  -6-61.8475 69.1604   7
 -10  -1   6 43.9990 129.125   7
  10   1   6 11.2296 45.8045  16
  10  -1   6 2.63745 80.2941   1
 -10   1  -6 12.7328 133.431  15
 -10  -1   6-20.3064 60.2378  15
  10   1   6-31.5272 80.9261   6
 -10   1   6 35.5101 84.5095   2
  10   1   6 4.69364 105.143  14
  10  -1   6-79.1595 160.391  14
  10   1  -6-34.8636 150.401  14
  10  -1   6-4.41678 11.3616   6
  10  -1  -6 211.584 202.965  14
  10   1  -6 14.9700 44.2684   6
 -10   1  -7 698.527 329.818  12
  10  -1  -7 771.852 228.817   6
 -10   1  -7 431.437 272.333   3
 -10   1   7 1334.92 449.435   5
 -10   1  -7 100.207 96.8920   5
  10   1  -7 1074.66 456.642  11
 -10  -1   7 670.901 289.499   5
 -10  -1   7 709.675 307.674  19
 -10   1   7 1035.69 346.228  19
 -10  -1  -7 93.3377 230.366  19
 -10   1  -7 460.536 264.321  19
  10  -1  -7 800.160 371.072   1
  10   1   7 1152.32 311.587  18
  10  -1   7 1473.67 334.017  18
  10   1  -7 1302.56 372.108   8
 -10   1   7 1270.20 381.318   4
  10   1  -7 1141.40 416.865  18
  10  -1  -7 235.055 66.7618  18
  10   1  -7 769.097 351.713   1
 -10   1  -7 377.652 218.418   4
  10   1   7 827.110 369.035   8
 -10  -1  -7 31.9510 84.9938  17
  10  -1   7 1068.67 399.054   8
 -10   1  -7 61.1023 92.0084  17
 -10  -1   7 593.649 337.013  17
 -10  -1   7 890.973 343.815   4
 -10   1   7 1075.12 485.235  17
 -10  -1   7 626.348 256.616   2
 -10  -1   7 643.870 142.549  16
  10  -1   7 1883.65 446.726  16
  10  -1   7 1135.04 472.802   1
 -10  -1   7 720.072 224.538   7
 -10   1  -7 283.947 214.829   7
  10   1   7 1412.32 358.004  16
  10   1  -7 902.812 202.428   6
 -10  -1   7 724.574 214.151  15
 -10   1  -7 389.596 249.200  15
  10   1   7 680.157 373.169   6
  10   1   7 772.616 396.869  14
 -10   1   7 989.698 347.546   2
  10  -1   7 1073.02 394.915  14
  10   1  -7 990.390 412.392  14
  10  -1   7 1177.89 388.698   6
  10  -1  -7 771.867 351.719  14
  10   1  -8-152.573 203.828  11
 -10  -1   8-18.6147 122.472   5
 -10  -1  -8 28.6773 22.2552  19
 -10   1  -8 101.381 113.858  19
 -10   1   8 18.3224 68.5177   5
 -10  -1   8 8.96728 65.8295  19
 -10   1   8-96.5374 184.307  19
  10   1   8 94.4158 121.976  18
  10  -1   8 58.6194 72.4597  18
  10   1  -8-143.491 172.135  18
 -10   1  -8 53.9471 68.8429   4
  10  -1  -8-56.1884 80.4519   1
  10  -1  -8-244.832 454.099  18
  10   1   8-110.519 146.810   8
  10  -1   8 9.65032 146.450   1
 -10  -1  -8-65.8677 79.0643  17
  10  -1   8-18.7736 65.3074   8
  10   1  -8-8.96397 50.0824   1
 -10   1  -8 43.2142 74.8215  17
 -10  -1   8-21.8728 98.2504  17
 -10  -1   8-88.7450 118.192   4
 -10   1   8-392.121 300.574  17
  10   1  -8 45.9950 49.9450   8
 -10  -1   8-40.9347 90.3709   2
 -10  -1   8 35.3077 36.5496  16
  10  -1   8 61.1394 131.826  16
 -10   1  -8-39.7711 207.247   7
 -10   1   8 38.5675 106.568   4
  10   1   8 74.4186 126.497  16
 -10   1  -8-245.573 275.539  15
  10   1   8-330.925 379.093   6
  10  -1   8-4.68818 160.120  14
  10   1  -8-58.1077 68.5846  14
 -10   1   8-73.6125 160.621   2
  10  -1   8 50.0423 124.033   6
  10  -1  -8-56.2810 147.684  14
  10  -1  -9 331.377 261.668  14
  10   1  -9 446.741 341.112  11
 -10  -1   9 468.539 235.558   5
 -10  -1  -9 81.7260 198.130  19
 -10   1  -9 82.4029 165.757  19
 -10   1   9 520.639 280.887   5
 -10  -1   9 146.070 192.970  19
  10  -1   9 250.131 202.169   1
  10   1   9 464.483 200.648  18
  10   1  -9 420.812 291.106  18
  10  -1  -9-306.483 523.620  18
  10   1   9 339.355 260.302   8
 -10  -1  -9-114.620 92.0484  17
  10  -1   9 514.893 259.529   8
  10  -1  -9 254.021 220.244   1
 -10  -1   9 406.715 277.708  17
 -10   1   9 1.48009 209.422  17
 -10  -1   9 351.763 183.717   4
  10   1  -9 215.024 212.348   1
  10   1  -9-171.586 544.770   8
 -10  -1   9 370.140 217.932   2
 -10   1  -9-29.0060 261.909   7
  10  -1   9 839.417 329.964  16
 -10  -1   9 432.096 137.105  16
 -10   1   9 393.841 232.685   4
  10   1   9 590.955 274.313  16
 -10   1  -9-274.762 343.652  15
  10   1   9-113.346 453.987   6
  10  -1   9 477.631 269.747  14
  10  -1   9 504.382 278.787   6
  10   1  -9 324.502 237.269  14
 -10   1   9 397.524 239.841   2
  10  -1 -10 88.7759 107.514  14
 -10   1  10 19.1928 46.9613   2
  10   1 -10 3.63287 69.5470  11
 -10  -1  10-29.6580 121.689   5
 -10  -1 -10-154.797 220.935  19
 -10   1 -10-12.0433 53.8413  19
 -10   1  10-23.8869 92.3161   5
 -10  -1  10-80.1981 127.208  19
  10   1  10-106.416 160.229  18
  10   1 -10 50.1754 155.017  18
  10   1  10 12.6694 118.279   8
 -10  -1 -10 71.9625 143.754  17
  10  -1  10-126.788 146.480   8
 -10  -1  10-90.5090 176.123  17
 -10   1  10-388.250 482.494  17
 -10  -1  10-30.5052 51.9329   4
  10  -1  10-134.505 102.149  16
  10  -1 -10 118.634 180.993   1
 -10  -1  10 24.2403 44.9136   2
 -10  -1  10 22.5619 35.9534  16
  10   1 -10 74.1507 132.118   1
  10   1  10-11.2095 65.2175  16
 -10   1  10-84.1692 122.818   4
  10  -1  10-50.3777 147.643  14
  10  -1  10-46.5797 140.421   6
  10   1 -10 13.3896 102.579  14
  10  -1 -11-105.545 183.392  14
 -10   1  11 67.2150 38.2686   2
  10   1 -11-168.865 228.428  11
 -10  -1  11 73.7083 132.042   5
 -10  -1 -11 158.695 281.228  19
 -10   1 -11 264.408 381.882  19
 -10   1  11 83.4926 226.502   5
 -10  -1  11-102.108 210.107  19
  10   1 -11 12.2056 135.050  18
  10   1  11-32.2652 171.665   8
  10  -1  11 85.6659 210.060   8
 -10  -1  11 44.4203 109.251  17
 -10   1  11-371.215 513.099  17
 -10  -1  11 40.2555 160.074   4
  10  -1  11 165.622 219.889  16
 -10  -1  11 42.1269 85.0490  16
 -10  -1  11-80.4868 139.402   2
  10   1  11 234.833 213.014  16
 -10   1  11-40.5856 85.4967   4
  10   1 -11-234.225 264.539   1
  10  -1 -11-114.384 226.230   1
  10  -1  11 321.140 347.824  14
  10  -1  11 124.345 267.366   6
  10   1 -11 115.300 219.730  14
  10  -1 -12-23.5377 85.6615  14
  10  -1 -12 160.896 277.159   1
 -10   1  12-45.9089 53.6963   2
  10   1 -12-81.6847 276.087  11
 -10  -1 -12-54.5714 204.667  19
 -10  -1  12 157.844 218.439   5
 -10   1 -12 188.351 297.705  19
 -10   1  12 66.3985 161.570   5
  10   1 -12-17.7382 152.654  18
  10   1  12 54.0573 63.8862   8
  10  -1  12 226.590 292.146   8
 -10  -1  12-54.6272 78.3021  17
 -10  -1  12 98.7040 92.0396   4
  10  -1  12 47.7493 160.119  16
 -10  -1  12-32.0080 80.8156  16
 -10  -1  12 18.6788 102.282   2
  10   1  12 44.3627 108.314  16
 -10   1  12-18.3724 98.9328   4
  10  -1  12 210.696 233.026  14
  10   1 -12-17.6716 131.352   1
  10  -1  12 262.690 217.536   6
  10   1 -12-6.30909 115.251  14
  10   1 -13 184.743 209.504   1
  10  -1 -13-56.4114 181.093  14
 -10   1  13 277.588 287.899   2
  10  -1 -13 378.298 425.073   1
  10   1 -13 283.506 178.917  11
 -10  -1 -13 53.0057 177.509  19
 -10  -1  13 285.011 253.885   5
 -10   1 -13 16.4411 61.2348  19
 -10   1  13 458.440 379.224   5
  10   1 -13 242.162 260.268  18
  10   1  13 471.098 389.813   8
  10  -1  13-9.31669 81.7820   8
 -10  -1  13 64.7035 78.3675  17
 -10  -1  13 133.685 176.207   4
  10  -1  13 142.075 237.195  16
 -10  -1  13 37.5120 54.6232  16
  10   1  13-87.7100 141.712  16
 -10  -1  13 147.017 132.787   2
  10  -1  13 224.798 242.206   6
  10   1 -13-171.313 92.9076  14
 -10   2   0 1186.68 362.403   5
 -10   2   0 907.314 445.839  12
 -10  -2   0 147.418 142.525   5
 -10   2   0 877.777 197.262   2
  10  -2   0 1068.08 351.633   1
 -10   2   0 1048.91 325.703  19
 -10  -2   0 340.012 204.507  19
  10   2   0 1606.95 421.522  18
  10   2   0 1653.73 456.370   8
  10  -2   0 1089.47 328.730   8
 -10  -2   0 198.180 210.980  17
 -10   2   0-532.791 749.066  17
 -10   2   0 907.582 307.350   4
  10   2   0 1186.68 448.580   1
  10  -2   0 1136.52 297.357   6
  10  -2   0 1072.69 366.952  14
  10   2   0 910.602 447.776  14
  10  -2   1 61.1717 62.9368   6
  10  -2  -1-4.19132 43.0700   6
 -10  -2   1 49.2473 62.3561  12
  10  -2  -1-15.4680 47.8537   1
 -10   2  -1-9.71090 77.6593  12
  10   2  -1 9.71471 113.997  11
 -10  -2   1 22.9380 72.0696   5
 -10   2  -1-43.7694 107.723   5
 -10  -2  -1-51.8343 126.036  19
 -10   2   1-26.5025 58.7150   5
 -10  -2   1-38.7480 15.2628  19
 -10   2  -1-10.1679 67.8753  19
 -10   2   1 5.39458 47.0236  19
  10   2   1 75.9245 107.635  18
  10   2  -1-84.5298 82.6969  18
 -10  -2   1-131.276 219.046   4
  10   2   1 12.0041 87.1876   8
  10   2  -1 35.6952 45.0912   8
 -10  -2  -1-75.6722 147.741  17
 -10  -2   1-61.0613 117.159  17
  10  -2   1 13.1748 17.0142   8
  10   2   1-3.31194 121.276   1
  10  -2  -1 31.4822 28.2164   8
 -10   2  -1 85.8260 99.4739   4
 -10   2  -1 3.42803 6.36001   2
 -10   2   1-58.5957 76.8286   4
  10  -2   1-19.5677 71.7456   1
  10   2  -1 97.4256 147.902   1
 -10   2   1 37.7457 34.6943   2
  10   2   1 53.1136 101.666  14
  10   2  -1 148.366 222.523  14
  10  -2   1 20.9556 44.6807  14
  10  -2  -1 5.87691 85.2745  14
  10  -2   2 193.826 126.037   6
  10  -2  -2 264.674 149.055   6
 -10  -2   2 90.8502 80.0749  12
 -10   2  -2 166.946 160.175  12
  10   2  -2 508.807 252.289  11
 -10  -2   2 103.574 172.865   5
  10  -2  -2 271.582 198.143   1
 -10   2  -2 173.615 77.3772   5
 -10  -2  -2-60.0786 123.668  19
  10   2  -2-420.629 275.589  10
 -10  -2   2-71.7312 165.544   2
 -10   2   2 28.9195 101.880   5
 -10  -2   2-25.0656 87.6171  19
  10   2  -2 1134.08 384.190   9
 -10   2  -2 189.368 130.752  19
 -10   2   2 288.688 185.891  19
  10   2   2 292.410 188.470  18
  10   2  -2 301.413 162.666  18
 -10  -2   2-40.8558 145.651   4
  10   2   2 163.132 84.8563   8
  10  -2   2 216.434 145.280   1
 -10   2  -2 188.789 90.2426   2
  10   2   2 253.843 209.811   1
 -10  -2  -2 48.9255 169.567  17
  10   2  -2 243.812 167.856   8
 -10  -2   2 198.789 191.400  17
  10  -2   2 114.140 88.4926   8
 -10   2  -2 196.665 134.017   4
  10  -2  -2 329.453 193.680   8
 -10   2   2 209.236 175.338   4
  10   2   2 104.074 61.3780  16
  10   2   2 157.981 195.491  14
 -10   2   2 211.412 116.122   2
  10   2  -2 229.966 221.981  14
  10   2  -2 68.3782 131.298   1
  10  -2   2 251.831 150.008  14
  10  -2  -2 291.959 203.253  14
  10   2  -3 70.6173 46.6105   1
  10   2  -3-143.004 232.653  13
  10  -2   3 35.5896 22.2781   6
  10  -2  -3 80.7018 84.2859   6
 -10  -2   3-7.31198 35.1542  12
 -10   2  -3 91.1335 162.431  12
  10   2  -3 34.7645 88.3396  11
 -10  -2   3-14.7717 28.2571   5
 -10   2  -3-45.5577 45.5119  20
 -10   2  -3 8.54121 36.1878   5
 -10  -2  -3-167.288 214.443  19
 -10  -2   3 63.3877 107.024  19
 -10   2   3-7.62306 126.046   5
  10   2  -3 256.432 249.948   9
 -10   2  -3 54.4344 62.2564  19
  10  -2  -3-23.0946 53.8327   1
 -10   2   3-17.9547 35.2057  19
 -10  -2   3-26.9340 76.0249   2
  10  -2   3 133.895 106.617   1
 -10   2  -3 70.1626 72.7200   2
  10   2   3 17.9583 58.2345  18
  10   2  -3 112.862 117.854  18
  10   2   3 72.2838 229.665   1
 -10  -2   3-65.3240 66.3718   4
  10   2   3 133.703 101.619   8
 -10  -2  -3-38.2372 107.865  17
  10   2  -3 91.0182 102.103   8
 -10  -2   3 64.9942 101.034  17
  10  -2   3-33.2196 50.2665   8
 -10   2  -3 85.6117 97.1476   4
  10  -2  -3 82.4559 135.752   8
 -10   2   3 15.4587 36.7631   4
  10   2   3 18.8142 23.3513  16
  10   2   3-2.39824 145.554  14
  10   2  -3 237.692 272.273  14
 -10   2  -3-7.22049 114.962   3
  10  -2   3 24.3742 41.0757  14
 -10   2   3 109.431 96.8689   2
  10  -2  -3 66.0516 117.361  14
  10  -2  -4 123.144 134.721  14
 -10   2   4 161.210 122.228   2
 -10   2  -4 39.6881 115.345   3
  10  -2   4 102.674 91.7296   6
  10   2  -4 104.066 91.4660  13
  10   2  -4 127.705 137.147   1
  10  -2  -4 76.5399 41.1688   6
 -10   2  -4 102.735 145.427  12
 -10  -2   4-95.3391 133.164  12
  10   2  -4 318.802 224.528  11
 -10  -2   4 26.1370 92.3251   5
 -10   2  -4 209.765 171.007  20
 -10   2  -4 93.9351 112.613   5
  10  -2   4 38.5908 47.6082   1
 -10  -2  -4 173.160 175.663  19
 -10  -2   4 3.62941 63.7245  19
 -10   2   4 101.865 141.735   5
 -10   2  -4 162.406 125.865  19
  10   2  -4 236.138 218.998   9
 -10   2   4 44.6940 31.9012  19
  10   2   4-24.0134 259.495   1
  10   2   4 188.056 147.771  18
 -10  -2   4 58.6662 95.6756   2
  10   2  -4 216.112 169.715  18
  10   2   4 90.9564 146.184   8
 -10  -2   4 27.2027 90.3657   4
  10  -2  -4 73.1953 138.883   1
 -10  -2  -4 113.364 144.787  17
 -10  -2   4 153.007 194.040  17
  10   2  -4 169.921 136.762   8
  10  -2   4 39.4781 38.4401   8
 -10   2  -4 96.6674 91.4273   4
  10  -2  -4-9.04441 86.0082   8
 -10   2   4 81.1398 93.7211   4
  10   2   4 130.586 108.912  16
  10   2  -4 99.4947 183.873  14
  10  -2   4 52.5095 57.8695  14
  10  -2  -5 44.2634 78.6115  14
  10  -2   5-60.4034 96.6844   6
 -10   2   5-30.3596 25.1583   2
 -10   2  -5 36.7992 130.358   3
  10   2  -5 7.91082 26.3332  13
  10   2  -5 126.225 196.075   1
  10  -2  -5 52.2110 69.2806   6
 -10   2  -5 64.7856 95.6304  12
  10  -2   5 37.0564 42.4532   1
  10   2  -5 70.2573 135.336  11
 -10  -2   5 25.4016 132.696   5
 -10   2  -5 31.5875 33.2228   5
 -10   2  -5 265.944 214.452  20
 -10  -2  -5-2.30279 69.8202  19
 -10  -2   5 36.2941 113.453  19
 -10   2  -5-62.4301 69.5657  19
 -10   2   5 109.450 132.088   5
  10   2  -5 42.5655 197.799   9
 -10   2   5-43.0302 104.348  19
  10   2   5 43.4043 26.3877  18
  10   2  -5 7.31668 35.4772  18
 -10  -2   5 44.2015 102.665   2
  10   2   5 23.6669 89.0005   8
 -10  -2   5 99.5844 153.806   4
 -10  -2  -5-45.7673 45.9523  17
 -10   2  -5 6.14857 21.5295   4
 -10  -2   5-92.5640 173.523  17
  10  -2   5-45.6390 104.562   8
  10   2  -5 18.4030 46.0374   8
  10  -2  -5 29.2649 74.2839   1
 -10   2   5-18.0301 10.0643   4
  10   2   5-62.8663 74.2776  16
  10   2  -5-43.4429 102.876  14
  10  -2   5 44.2030 94.6987  14
  10  -2  -6 334.368 231.455   1
  10  -2  -6 178.951 157.098  14
  10  -2   6 443.568 223.386   6
 -10   2   6 284.898 172.522   2
  10  -2   6 280.592 220.417   1
  10   2  -6 136.844 80.6059  13
 -10   2  -6 113.925 117.041   3
 -10   2  -6 69.9556 67.3344  12
  10   2  -6 344.566 260.673   1
  10   2  -6 386.479 227.137  11
 -10   2  -6 123.572 118.480   5
 -10  -2   6 102.880 138.806   5
 -10   2  -6 703.995 335.712  20
 -10  -2  -6 115.610 245.044  19
 -10   2  -6 135.153 148.522  19
 -10  -2   6 172.323 135.775  19
 -10   2   6 384.363 240.077   5
  10   2  -6 490.418 360.822   9
 -10   2   6 221.088 151.521  19
  10   2   6 224.324 142.144  18
  10   2  -6 381.095 270.811  18
 -10  -2   6 249.213 162.172   2
  10   2   6 304.689 261.782   8
 -10  -2  -6 19.6109 54.8422  17
 -10  -2   6 153.164 174.688   4
 -10   2  -6 106.016 99.3257   4
  10  -2   6 308.350 188.515   8
 -10  -2   6 282.045 206.515  17
  10   2  -6 429.269 183.108   8
 -10   2   6 420.198 192.424   4
 -10   2  -6 74.6396 181.924   7
  10   2   6 316.510 207.074  16
 -10   2  -6 184.520 172.284  15
  10   2  -6 285.368 243.671  14
  10  -2   6 228.622 149.637  14
  10  -2   7 67.7069 92.4828   6
  10  -2  -7 32.8795 80.8153  14
 -10   2   7-17.9414 173.398   2
  10   2  -7-0.26771 40.4416  13
 -10   2  -7 52.1176 131.770   3
 -10   2  -7-4.71745 111.527  12
  10  -2  -7 38.0200 135.882   1
  10   2  -7-37.4615 106.833  11
 -10   2  -7-25.9747 83.6448   5
  10   2  -7 85.6559 150.203   1
 -10  -2   7 103.278 143.065   5
 -10   2  -7 317.131 163.148  20
 -10  -2  -7-87.5868 213.808  19
 -10   2  -7 38.1385 92.4210  19
 -10  -2   7 0.28927 39.2932  19
 -10   2   7 36.0186 84.2336   5
  10   2  -7 206.824 313.780   9
  10   2   7-114.184 159.858  18
  10   2  -7 62.8481 116.138  18
  10   2   7-48.0119 173.175   8
 -10  -2  -7 82.5721 169.227  17
 -10  -2   7 3.25544 44.6905   2
 -10   2  -7 120.868 180.261   4
 -10  -2   7 37.3294 114.301   4
  10  -2   7-23.8598 48.2446   8
 -10  -2   7 70.3512 77.0312  17
  10   2  -7 7.31068 51.7572   8
  10  -2   7-359.324 396.726  16
 -10   2  -7-27.7600 97.9906   7
 -10   2   7 166.678 119.825   4
  10   2   7 25.5231 98.7278  16
 -10   2  -7 14.1851 85.6644  15
  10  -2   7 134.477 169.628   1
  10   2  -7 111.375 184.190  14
  10  -2   7 63.1982 59.7823  14
  10  -2   8 190.869 174.352   6
  10  -2  -8 261.785 212.388  14
 -10   2   8 672.660 381.620   2
  10   2  -8 493.062 213.501  13
 -10   2  -8 60.5289 99.6725  12
 -10   2  -8 189.601 185.135   3
 -10   2  -8 219.547 175.815   5
  10   2  -8 444.914 307.793  11
  10  -2  -8 156.262 116.352   1
 -10  -2   8 316.437 238.119   5
 -10   2  -8 297.823 231.188  20
  10   2  -8 310.272 272.078   1
 -10  -2  -8-128.685 134.068  19
 -10   2  -8 256.128 212.407  19
 -10  -2   8 275.261 195.351  19
 -10   2   8 508.632 302.794   5
  10   2  -8 399.885 261.177   9
  10   2  -8 285.104 254.105  18
  10   2   8 396.987 312.106   8
 -10  -2  -8 1.22955 56.3422  17
 -10   2  -8 32.8056 62.6555   4
 -10  -2   8 223.227 187.201   2
 -10  -2   8 274.051 208.898   4
  10  -2   8 462.129 225.524   8
 -10  -2   8 356.255 251.340  17
  10   2  -8 241.967 161.512   8
  10  -2   8 697.013 375.238  16
  10  -2   8 210.919 202.677   1
 -10   2  -8 90.7538 117.114   7
 -10   2   8 258.480 116.908   4
  10   2   8 429.836 285.215  16
 -10   2  -8 206.613 136.701  15
  10   2  -8 210.114 153.517  14
  10  -2   8 315.312 228.364  14
  10  -2  -9 134.864 198.940  14
 -10   2  -9 298.856 288.843  12
 -10   2  -9 17.8015 25.3693   3
 -10   2  -9-113.067 189.360   5
  10   2  -9 30.1969 44.7272  11
 -10  -2   9-38.8159 30.2762   5
 -10  -2  -9 11.9943 159.401  19
 -10   2  -9 24.5587 67.4318  19
  10   2  -9 26.7192 99.3168   1
 -10  -2   9 19.8121 42.6386  19
 -10   2   9 11.7734 110.182   5
  10  -2  -9 54.4618 203.474   1
  10   2  -9-311.827 502.882   9
  10   2  -9-141.668 164.876  18
  10   2   9-298.000 290.721   8
 -10   2  -9-6.98853 89.7655   4
  10  -2   9 143.203 151.082   8
 -10  -2   9-38.2451 108.880   4
  10  -2   9-265.914 271.023   1
 -10  -2   9-6.96911 39.4441   2
 -10  -2   9 164.721 182.660  17
  10   2  -9 287.306 241.472   8
 -10  -2   9-21.3630 67.6699  16
  10  -2   9-163.116 158.920  16
 -10   2  -9 24.8544 151.841   7
  10   2   9 85.9494 135.744  16
 -10   2  -9 96.4020 147.303  15
  10  -2   9 75.2295 140.666  14
  10   2  -9-36.2735 84.0189  14
  10  -2   9 126.607 112.462   6
 -10   2 -10 294.276 354.291  12
 -10   2 -10 212.417 338.767   3
  10   2 -10 13.9412 60.8277  11
 -10  -2  10 254.671 297.433   5
 -10  -2 -10 15.2735 93.0569  19
 -10   2 -10 44.8984 163.736  19
 -10  -2  10 44.4497 14.0822  19
  10   2 -10 41.0697 174.236   1
  10   2 -10-912.782 914.473   9
  10  -2  10-69.3863 263.233   1
  10   2 -10 2.52335 116.600  18
 -10   2 -10-154.590 139.924   4
  10   2  10-5.33948 65.6937   8
  10  -2  10 488.431 330.381   8
 -10  -2  10 75.1720 137.725   4
 -10  -2  10 147.158 178.339  17
 -10  -2  10 37.3195 92.4911   2
 -10  -2  10 62.8610 71.0157  16
  10  -2  10 164.878 226.837  16
 -10   2 -10-27.4270 160.322   7
  10   2  10 239.229 325.025  16
 -10   2 -10 136.976 184.540  15
  10  -2  10 256.186 311.123  14
  10   2 -10 304.275 252.735  14
  10  -2  10 469.532 396.832   6
 -10   2 -11 1449.77 315.002   3
  10   2 -11 82.9638 121.327  11
 -10  -2  11 96.1331 157.210   5
 -10  -2 -11 16.3305 127.577  19
 -10  -2  11 62.3844 85.0341  19
  10   2 -11-1784.22 1192.19   9
  10   2 -11-15.7324 26.5447   1
  10   2 -11-15.3442 52.1540  18
  10   2  11 152.498 204.391   8
 -10  -2  11-84.3318 165.507   4
 -10  -2  11 87.2128 153.348  17
 -10  -2  11-122.969 159.780   2
 -10  -2  11 155.912 131.605  16
 -10   2 -11 660.734 516.917   7
 -10   2 -11 991.540 474.886  15
  10   2 -11-41.8227 81.4811  14
  10   2 -12 40.5178 184.609  11
 -10  -2  12 353.220 299.036   5
 -10  -2 -12-364.063 436.937  19
 -10   2 -12-24.8845 173.986  19
 -10  -2  12 102.348 77.3262  19
  10   2 -12 196.632 167.624  18
  10   2 -12 65.5226 146.451   1
  10   2  12 626.801 432.203   8
  10  -2  12 842.076 408.480   8
 -10  -2  12 304.314 212.760   4
 -10  -2  12 409.546 286.548  17
 -10  -2  12 237.896 200.869   2
  10  -2  12 609.809 354.584  16
 -10  -2  12 297.069 132.326  16
 -10   2 -12-578.250 345.265   7
 -10   2 -12-535.934 430.805  15
  10  -2  12 505.132 332.395  14
  10   2 -12 193.409 288.540  14
  10  -2  12 495.077 352.880   6
  10   2 -13 34.7880 222.079  11
 -10  -2  13 71.8063 27.3593   5
 -10   2 -13 4.90638 96.3735  19
   2  10 -13 199.461 194.729  18
  10   2 -13-40.5898 187.687  18
  -2 -10  13 196.456 206.009  17
  10  -2  13 154.500 146.947   8
 -10  -2  13 35.0164 89.2813   4
 -10  -2  13-190.887 194.585  17
 -10  -2  13-42.0198 74.7076   2
  10  -2  13 97.0262 220.353  16
 -10  -2  13 46.1744 35.0877  16
  10  -3   0-31.4379 98.5180  14
 -10   3   0 28.3015 49.5637   2
  10  -3   0 61.9459 110.447   6
 -10  -3   0-107.279 198.203  19
 -10   3   0 23.7300 62.1586   5
 -10   3   0-66.7489 116.447  19
  10  -3   0-6.16510 78.7215   1
  10   3   0-86.0161 155.069  18
  10   3   0-110.260 167.527   1
  10   3   0-16.0514 53.8287   8
 -10  -3   0-11.5702 55.1252  17
  10  -3   0-12.4889 66.4023   8
 -10   3   0-27.5483 129.286   4
 -10   3  -1 1841.95 681.884  12
  10   3  -1 2172.51 625.268   1
 -10   3  -1 1719.96 416.768   5
 -10   3   1 2286.44 500.537   5
  10  -3   1 1763.64 437.957   1
 -10   3  -1 1878.99 281.849   2
 -10   3   1 2264.21 414.585   2
  10  -3  -1 1572.40 430.600   1
 -10   3  -1 2021.05 457.719  19
 -10   3   1 2190.42 487.519  19
 -10  -3  -1 138.679 234.823  19
 -10  -3   1-21.0372 130.589  19
  10   3   1 2254.92 550.273  18
  10   3  -1 2633.64 588.938  18
  10   3   1 2092.22 587.651   8
  10   3  -1 2241.19 564.930   8
  10   3   1 1689.15 624.072   1
 -10   3  -1 1874.99 465.222   4
  10  -3   1 1981.72 456.035   8
 -10   3   1 2009.00 466.207   4
  10  -3  -1 1593.32 445.707   8
 -10  -3  -1-195.244 214.233  17
 -10  -3   1 178.637 228.579  17
  10  -3   1 1894.58 400.030   6
  10  -3  -1 1947.43 449.490   6
  10  -3   1 1739.96 456.015  14
  10  -3  -1 1559.70 451.314  14
  10  -3  -2 72.3377 123.121  14
  10  -3   2 154.901 112.081   1
  10  -3   2 123.491 136.739   6
 -10   3   2 185.341 151.397   2
  10  -3  -2 98.3717 98.7829   6
 -10   3  -2 93.2419 148.345  12
 -10  -3  -2 109.803 218.463  19
 -10   3  -2 134.436 131.273   5
 -10  -3   2-5.36846 194.910  19
 -10   3   2 184.642 155.352   5
 -10   3  -2 39.1685 14.6610  19
 -10   3   2 129.736 109.034  19
  10   3   2 15.3189 110.989   1
  10   3   2 108.619 139.538  18
  10   3  -2 163.958 161.800  18
  10   3   2 59.8860 68.0375   8
 -10  -3  -2 212.523 140.938  17
  10   3  -2 208.410 173.701   8
 -10  -3   2-99.7639 181.370  17
  10  -3   2 158.091 138.211   8
  10   3  -2 180.254 214.543   1
  10  -3  -2 108.584 70.2653   8
 -10   3  -2 6.82366 78.5596   4
 -10   3   2 211.543 164.713   4
 -10   3  -2 121.047 65.7859   2
  10   3  -2 207.630 256.216  14
  10  -3  -2 45.0455 62.9239   1
  10  -3   2 160.201 132.596  14
  10  -3  -3 251.211 208.960  14
  10  -3   3 275.753 150.849   6
 -10   3   3 585.025 303.269   2
 -10  -3   3 165.684 99.3489  12
  10  -3  -3 323.138 239.043   6
  10  -3  -3 107.040 118.137   1
 -10   3  -3 223.517 206.208  12
 -10  -3   3-80.3515 187.112   5
 -10  -3   3-200.523 239.302   2
 -10   3  -3 221.768 141.163   5
 -10  -3  -3 12.8905 121.051  19
 -10  -3   3 147.263 125.619  19
 -10   3  -3 215.108 153.694  19
 -10   3   3 285.490 207.552   5
 -10   3   3 236.512 178.776  19
  10   3   3 259.123 185.771  18
  10   3  -3 438.683 265.886  18
  10   3   3 298.601 228.971   8
 -10  -3  -3 165.476 202.073  17
  10   3  -3 420.456 220.305   8
 -10  -3   3 102.522 152.772  17
  10  -3   3 272.505 164.373   8
 -10   3  -3 64.3697 79.9485   4
  10  -3  -3-172.943 285.308   8
 -10   3  -3 218.971 78.6398   2
  10   3  -3 292.093 239.067   1
 -10   3   3 255.626 176.129   4
  10  -3   3 289.054 156.405   1
  10   3  -3 328.913 384.816  14
  10  -3   3 317.975 203.408  14
  10  -3  -4 172.951 154.428  14
  10  -3   4 179.371 143.353   6
 -10   3   4 283.451 261.437   2
 -10  -3   4 69.7253 70.9649  12
 -10   3  -4 24.7785 43.6398  12
  10   3  -4 181.029 176.393  11
 -10  -3   4 81.4913 36.7360   5
  10   3  -4 568.330 277.758  10
 -10   3  -4 2.55740 59.3233   5
 -10  -3  -4 150.104 262.201  19
 -10  -3   4 47.4239 122.680  19
 -10  -3   4-94.8149 169.741   2
  10  -3  -4 82.6614 120.373   1
 -10   3  -4 33.6097 58.5411  19
 -10   3   4 163.671 124.017   5
 -10   3   4-0.84169 130.554  19
  10   3   4 108.872 120.094  18
  10   3  -4 93.5986 107.294  18
  10   3   4 118.552 160.256   8
 -10   3  -4 88.6021 52.8754   2
 -10  -3  -4 144.583 246.830  17
  10   3  -4 86.8902 109.147   8
 -10  -3   4-82.5656 95.4481  17
  10  -3   4 109.395 101.390   1
  10  -3   4 121.420 114.351   8
 -10   3  -4 49.1674 67.4089   4
 -10   3   4 6.18761 96.6936   4
  10   3  -4 261.774 213.206   1
  10   3  -4 3.19458 75.9258  14
 -10   3  -4 23.2151 266.309   3
  10  -3   4 146.906 118.844  14
 -10   3  -5 74.1294 215.016   3
  10  -3  -5 172.782 182.655  14
  10  -3   5 136.693 122.594   6
  10   3  -5 27.4655 55.0689  13
 -10   3  -5 43.5313 72.0324  12
  10   3  -5 68.7932 103.526  11
 -10  -3   5 163.666 220.580   5
 -10   3  -5 122.629 108.873  10
 -10   3  -5-44.2463 92.1734   5
  10   3  -5 736.132 372.630  10
 -10  -3  -5-65.2297 218.493  19
 -10  -3   5 77.7041 129.435  19
 -10   3  -5-43.9378 96.2288  19
 -10  -3   5 3.97818 75.3940   2
 -10   3   5 106.043 141.605   5
  10   3   5-28.0329 161.908  18
  10  -3   5 40.3394 84.9874   1
  10   3  -5 36.3710 91.0731  18
 -10  -3   5-295.071 318.698   4
  10   3   5 121.444 242.417   8
 -10  -3  -5 34.0340 42.2106  17
  10  -3  -5 65.3809 108.438   1
 -10  -3   5-20.9151 31.4982  17
  10   3  -5 143.669 128.818   8
  10  -3   5-46.7679 54.3217   8
 -10   3  -5 1.49684 89.8958   4
 -10   3   5-24.4844 112.312   4
  10   3  -5 163.786 247.099  14
  10   3  -5 31.0423 111.926   1
  10  -3   5-22.9346 89.9626  14
  10  -3  -6 335.359 251.673  14
 -10   3  -6-50.7927 183.033   3
  10  -3   6 417.264 214.254   6
  10   3  -6 479.597 208.944  13
 -10   3  -6 372.367 194.435  12
  10   3  -6 614.253 308.474  11
 -10  -3   6 194.941 230.812   5
 -10   3  -6 385.453 148.783  20
 -10   3  -6 366.175 176.916   5
  10  -3   6 313.584 181.048   1
 -10   3  -6 429.602 175.309  10
  10   3  -6 1231.65 540.345  10
 -10  -3  -6-8.16497 157.003  19
 -10  -3   6 169.939 165.162  19
  10   3  -6 1462.00 543.726   9
 -10   3  -6 91.0782 104.906  19
 -10   3   6 739.112 353.959   5
 -10  -3   6 191.955 182.939   2
  10   3  -6 439.842 267.187  18
 -10  -3   6 108.151 113.148   4
  10   3   6 189.633 146.612   8
 -10  -3   6 116.445 104.151  17
  10   3  -6 526.545 224.394   8
  10  -3   6 521.711 229.162   8
 -10   3  -6 137.720 128.116   4
  10   3  -6 589.648 382.826  14
  10  -3  -6 402.046 318.608   1
  10  -3   6 244.308 158.696  14
  10   3  -6 276.517 261.022   1
  10  -3   7-28.9600 57.1493   6
  10   3  -7-92.1270 143.008   1
 -10   3  -7 121.063 169.051   3
  10   3  -7 51.2457 42.3327  13
 -10   3  -7-88.2879 163.885  12
  10  -3   7 68.2471 139.534   1
  10   3  -7 186.135 220.760  11
 -10  -3   7-112.397 226.265   5
 -10   3  -7 27.1416 61.6065   5
 -10   3  -7-69.3902 51.7223  20
 -10   3  -7 97.5899 156.722  10
 -10  -3  -7-125.557 268.477  19
  10   3  -7-203.017 39.4992  10
  10   3  -7 309.839 301.540   9
 -10   3  -7 29.8791 87.5804  19
 -10  -3   7 19.3435 17.1496   2
  10   3  -7-31.7208 59.0435  18
  10   3   7 33.8434 173.852   8
 -10  -3   7 115.292 170.403   4
 -10  -3   7 221.748 238.904  17
 -10   3  -7-79.5550 145.750   4
  10   3  -7 82.5819 87.9705   8
  10  -3   7 127.117 119.749   8
  10   3  -7 58.3466 191.943  14
  10  -3   7-8.27139 87.7930  14
  10  -3   8-1.23429 33.7813   6
  10  -3   8 47.3790 131.264   1
  10   3  -8 62.8536 114.641  13
  10   3  -8-72.7446 71.8996   1
 -10   3  -8 22.3240 166.830   3
 -10   3  -8-143.358 159.910  12
  10   3  -8 25.3954 150.713  11
 -10  -3   8 57.1057 106.919   5
 -10   3  -8 113.026 141.665   5
 -10   3  -8 190.198 163.996  20
 -10  -3  -8-368.655 443.027  19
 -10   3  -8-64.3766 154.944  10
  10   3  -8-310.922 319.017  10
 -10   3  -8 61.9104 85.0148  19
 -10  -3   8-11.0973 47.4297  19
  10   3  -8 402.481 277.957   9
  10   3  -8-105.177 153.430  18
 -10  -3   8 32.1118 78.1485   2
  10   3   8 121.934 182.739   8
 -10  -3   8 39.9133 74.9490   4
 -10   3  -8 4.98737 36.1512   4
 -10  -3   8 117.684 77.5863  17
  10  -3   8 11.5608 61.4666   8
  10   3  -8 39.9800 80.3999   8
 -10   3  -8 52.8261 149.414  15
  10   3  -8 5.64408 158.375  14
  10  -3   8 96.9600 157.078  14
  10  -3   9-12.4359 34.5609   6
  10   3  -9-59.0894 90.0521  13
 -10   3  -9-199.264 186.079   3
  10   3  -9 52.4685 116.535   1
 -10   3  -9-48.1382 58.6975  12
  10   3  -9 274.312 233.818  11
 -10   3  -9 118.909 185.388   5
 -10  -3   9-48.3452 94.6656   5
 -10   3  -9 76.1507 117.758  20
 -10  -3  -9-173.668 325.717  19
 -10   3  -9-38.8472 174.689  10
  10   3  -9 920.302 612.192  10
 -10   3  -9-60.4922 29.4473  19
 -10  -3   9-0.91737 39.4931  19
  10   3  -9 537.717 344.056   9
  10   3  -9 139.586 245.185  18
  10   3   9 182.000 318.314   8
 -10  -3   9-28.7987 73.6684   2
 -10  -3   9 45.5782 43.9547   4
 -10   3  -9 13.4658 119.979   4
 -10  -3   9-44.5198 218.897  17
  10  -3   9 68.0005 50.2429   8
  10   3  -9 19.4487 15.3655   8
  10  -3   9-657.651 489.934  16
 -10   3  -9 19.3680 100.446   7
 -10   3  -9 175.574 188.963  15
  10  -3   9 39.6032 125.414   1
  10   3  -9-81.5590 220.156  14
  10  -3   9 7.09047 43.3625  14
  10   3 -10-11.3892 88.1564  13
 -10   3 -10 119.288 573.545   3
  10   3 -10 36.9522 104.934   1
  10   3 -10 105.833 291.043  11
 -10  -3  10 76.1302 150.983   5
 -10   3 -10 1287.21 665.450  19
  10   3 -10 701.352 648.299  10
 -10  -3  10 161.388 172.015  19
  10   3 -10 457.021 529.288   9
  10  -3  10 659.842 533.751   8
  10   3 -10 82.3360 183.568  18
 -10  -3  10-30.3212 149.014   4
 -10  -3  10-33.6840 41.0151   2
 -10   3 -10-245.324 72.6019   4
 -10  -3  10 174.895 215.179  17
  10   3 -10 118.081 228.490   8
  10  -3  10 220.044 653.001   1
  10  -3  10-280.810 525.158  16
 -10   3 -10-202.203 392.955   7
 -10   3 -10 290.360 500.954  15
  10   3 -10-18.5269 98.0861  14
  10   3 -11 581.803 262.110  13
 -10   3 -11 321.084 544.664   3
  10   3 -11 467.535 346.769   1
  10   3 -11 691.421 402.994  11
 -10  -3  11 356.659 284.760   5
  10   3 -11 470.344 827.178  10
 -10  -3  11 411.283 248.268  19
  10   3 -11 756.779 495.806   9
  10   3 -11 628.821 351.465  18
  10  -3  11 1445.01 929.130   1
 -10   3 -11 440.287 479.923   4
 -10  -3  11 321.019 224.885   4
 -10  -3  11 371.203 229.196   2
 -10  -3  11 663.731 403.735  17
 -10  -3  11 481.588 190.764  16
  10   3 -11 576.845 338.895   8
  10  -3  11 993.733 528.263  16
 -10   3 -11 613.459 450.533   7
  10  -3  11 1591.26 602.815   6
 -10   3 -11 1177.55 596.862  15
  10   3 -11 194.058 265.466  14
  10   3 -12 216.934 227.403  13
 -10   3 -12 207.721 264.607  12
 -10   3 -12-62.3795 135.023   3
  10   3 -12-59.2522 235.299  11
  10   3 -12 124.969 213.580   1
 -10  -3  12 25.8064 134.900   5
 -10   3 -12 84.5143 222.473  20
 -10   3 -12-947.452 759.312  10
 -10   3 -12 221.784 200.480  19
  10  -3  12-201.271 276.052   1
 -10  -3  12 103.319 149.292  19
  10   3 -12 353.405 414.727   9
  10   3 -12-76.7149 125.117  18
 -10   3 -12 212.673 228.584   4
 -10  -3  12 91.5360 118.097   4
 -10  -3  12 29.9709 100.812   2
  10  -3  12 151.737 121.145   8
 -10  -3  12 58.7622 110.483  17
  10  -3  12 88.0298 239.352  16
 -10   3 -12 136.717 314.339   7
 -10   3 -12 292.839 279.953  15
  10   3 -12 181.835 330.780  14
  10  -3  12 173.633 223.171  14
  10  -3  12 169.697 240.916   6
  10   4   0 1952.93 678.451   1
 -10   4   0 3075.07 613.288   5
  10  -4   0 1859.79 478.840   1
 -10   4   0 2767.23 574.209  19
 -10  -4   0-24.8908 158.436  19
  10   4   0 2976.96 683.767  18
  10   4   0 2485.49 642.367   8
  10  -4   0 2126.13 542.046   8
 -10   4   0 2922.32 600.977   4
  10  -4   0 2083.43 565.015   6
  10  -4   0 1960.11 512.816  14
  10  -4   1 283.158 207.400  14
  10  -4  -1 194.317 168.177  14
  10  -4   1 296.638 196.985   6
  10  -4  -1 352.121 283.622   6
 -10   4  -1 243.029 47.7555   2
 -10  -4  -1-63.0184 121.063  19
 -10  -4   1-62.5753 124.749  19
 -10   4  -1 296.834 168.004   5
 -10   4  -1 267.071 165.458  19
 -10   4   1 203.870 132.076  19
 -10   4   1 392.959 229.988   5
  10   4  -1-15.6745 195.683   1
  10   4   1 279.972 207.433  18
  10   4  -1 437.502 266.574  18
  10  -4  -1 172.742 175.852   1
  10   4   1 341.162 238.018   8
  10   4  -1 212.712 166.481   8
 -10  -4  -1 83.1786 147.683  17
 -10  -4   1-310.091 242.244  17
  10  -4   1 254.941 181.136   8
  10  -4  -1-123.003 285.672   8
 -10   4  -1 254.538 160.397   4
 -10   4   1 392.236 228.804   4
  10  -4   1 276.042 192.929   1
  10  -4  -2 895.762 354.010  14
 -10   4  -2 1062.84 485.596  12
 -10   4  -2 1573.08 431.211   5
 -10   4   2 1714.37 491.183   5
  10  -4   2 1124.53 354.245   1
 -10   4  -2 1562.97 301.504   2
 -10   4  -2 1394.94 392.159  19
 -10   4   2 1381.89 422.305  19
 -10  -4   2 75.5015 193.785  19
  10   4  -2 1761.91 514.893  18
  10   4   2 1043.23 385.181  18
 -10   4  -2 1415.72 403.171   4
  10  -4   2 1237.88 383.761   8
  10   4  -2 1089.70 476.231   1
 -10   4   2 1442.20 421.665   4
  10   4   2 816.283 381.003   8
  10   4  -2 1231.96 444.394   8
 -10  -4  -2 87.8286 187.111  17
 -10  -4   2 47.9557 178.824  17
  10  -4   2 1491.46 401.186   6
  10  -4  -2 905.956 349.498   1
  10  -4   2 1249.35 407.994  14
  10  -4   3 414.587 224.507  14
 -10   4  -3 370.203 111.802   2
  10  -4   3 390.392 216.449   6
 -10   4  -3 256.181 255.175  12
  10  -4   3 370.347 178.703   1
 -10  -4  -3-215.951 329.822  19
 -10  -4   3-80.2812 120.331  19
 -10   4  -3 164.801 105.096   5
 -10   4  -3 327.590 196.328  19
  10   4   3 202.706 61.2099  18
  10   4  -3 541.236 299.731  18
  10   4   3 278.340 172.492   8
 -10  -4  -3-136.430 103.985  17
  10   4  -3 345.952 203.088   8
  10   4  -3 260.167 267.423   1
 -10  -4   3-37.6284 152.899  17
  10  -4   3 308.818 180.908   8
 -10   4  -3 455.485 237.940   4
  10  -4   4 206.094 135.291   6
  10  -4   4 227.894 155.356   1
 -10   4  -4 302.705 222.658  12
 -10  -4  -4-260.480 304.692  19
 -10  -4   4-21.8190 132.436  19
 -10   4  -4 191.103 140.546   5
 -10   4  -4 130.716 117.566  19
  10   4  -4 135.028 143.254  18
  10   4   4 137.217 168.429   8
  10   4  -4 251.327 148.779   8
 -10  -4   4 105.556 195.243  17
  10   4  -4 168.344 223.753   1
  10  -4   4 154.766 126.998   8
 -10   4  -4 147.672 160.012   4
 -10   4  -4 124.761 54.8233   2
  10  -4   4 214.721 168.268  14
  10   4  -5-8.13474 305.795  13
  10  -4   5 807.116 292.759   6
 -10   4  -5 955.503 402.400  12
  10   4  -5 1023.80 280.403  20
 -10  -4   5-120.129 236.883   2
 -10  -4  -5-235.732 340.158  19
 -10   4  -5 924.958 293.508   5
 -10  -4   5 147.394 245.077  19
 -10   4  -5 728.602 297.070  19
  10   4  -5 1212.74 444.691  18
  10   4   5 566.585 371.089   8
  10   4  -5 1122.88 324.296   8
 -10  -4   5 86.5127 172.958  17
  10  -4   5 890.769 298.125   8
  10   4  -5 726.018 399.922   1
 -10   4  -5 543.080 258.542   4
  10  -4   5 914.087 291.182   1
 -10   4  -5-48.5747 448.685   3
  10  -4   5 773.354 285.619  14
  10   4  -6-9.37636 25.4980  13
  10  -4   6 20.3036 58.0427   6
 -10   4  -6-196.961 167.859  12
 -10   4  -6-57.8169 109.284   5
 -10  -4   6-153.624 195.130   2
 -10  -4   6-60.8369 105.403  19
 -10   4  -6 115.736 96.7918  19
  10   4  -6 8.59584 130.982  18
  10   4  -6 71.6072 84.7829   8
 -10  -4   6-103.339 175.926  17
  10  -4   6-9.06542 44.6360   1
  10  -4   6-56.1031 79.4129   8
 -10   4  -6-3.44329 51.6302   4
  10   4  -6 1.15794 112.069   1
 -10   4  -6-58.4782 201.803   3
  10  -4   6-31.7456 93.5796  14
 -10   4  -7 77.6406 121.896   3
  10  -4   7 402.279 254.523   6
  10   4  -7 511.087 245.119  13
 -10   4  -7 342.500 240.190  12
  10   4  -7 698.864 392.177  11
 -10  -4   7 111.733 197.076   5
  10   4  -7 1049.42 360.051  20
  10   4  -7 1186.39 450.375  10
 -10   4  -7 507.841 234.513   5
 -10  -4   7 71.7924 123.942  19
 -10   4  -7 445.447 205.921  19
 -10  -4   7 93.5014 108.691   2
  10  -4   7 443.304 201.937   1
  10   4  -7 535.544 330.162  18
 -10  -4   7 191.712 215.665  17
  10   4  -7 581.460 234.336   8
  10  -4   7 510.792 226.175   8
 -10   4  -7 295.977 196.958   4
  10   4  -7 576.570 330.847   1
  10  -4   7 475.514 233.764  14
 -10   4  -8-96.6751 251.506   3
  10  -4   8 51.4192 72.9007   6
  10   4  -8-47.8685 104.712  13
 -10   4  -8-68.0383 61.8373  12
  10   4  -8 137.360 141.644  11
 -10  -4   8-203.558 381.724   5
  10  -4   8-69.6168 89.4360   1
 -10   4  -8 63.0499 49.5570   5
  10   4  -8 260.949 363.177  20
 -10   4  -8 113.143 49.2763  10
  10   4  -8 43.4985 60.8058  10
 -10  -4   8-82.5845 121.741  19
 -10   4  -8-54.2458 120.689  19
 -10  -4   8 29.6699 83.2957   2
  10   4  -8 9.03570 46.9620  18
 -10  -4   8-54.1599 158.626  17
  10   4  -8 11.8064 38.2286   8
 -10   4  -8-52.1927 107.193   4
  10  -4   8-141.519 157.026   8
  10   4  -8-38.5173 180.943   1
  10  -4   8-90.9004 149.454  14
  10  -4   9 694.173 359.592   6
 -10   4  -9 1102.00 687.355   3
  10   4  -9 503.737 277.854  13
  10  -4   9 875.233 413.927   1
 -10   4  -9 958.224 494.935  12
  10   4  -9 685.302 506.069  11
 -10  -4   9-73.9572 189.107   5
 -10   4  -9 960.755 418.221   5
 -10   4  -9 908.385 354.544  20
  10   4  -9-785.372 313.728  20
 -10   4  -9 682.270 346.520  10
  10   4  -9 1445.21 673.990  10
  10   4  -9 2545.26 874.800   9
 -10  -4   9 325.864 217.379  19
 -10   4  -9 587.406 340.953  19
 -10  -4   9 101.074 95.4977   2
  10   4  -9 388.406 306.998  18
 -10  -4   9 242.642 276.593  17
 -10   4  -9 552.345 360.675   4
  10   4  -9 486.534 253.056   8
  10  -4   9 797.197 344.940   8
  10   4  -9 521.187 440.269   1
  10  -4   9 576.458 294.326  14
  10  -4  10 1011.25 385.859   6
 -10   4 -10 1059.82 681.525   3
  10   4 -10 450.894 224.822  13
 -10   4 -10 540.131 467.792  12
  10   4 -10 839.150 417.313  11
 -10  -4  10 290.780 346.383   5
 -10   4 -10 511.943 393.027   5
 -10   4 -10 981.936 429.648  20
  10   4 -10-1377.34 1308.68  20
 -10   4 -10 1311.66 448.105  10
  10   4 -10 1247.19 712.975  10
  10   4 -10 2014.77 838.530   9
 -10  -4  10 323.049 206.561  19
 -10   4 -10 356.491 278.286  19
  10  -4  10 1431.76 436.545   8
 -10  -4  10 106.746 126.890   2
  10   4 -10 548.732 319.085  18
 -10   4 -10 661.275 426.443   4
 -10  -4  10 259.601 279.259  17
  10   4 -10 791.196 283.243   8
 -10   4 -10-196.217 338.678  15
  10  -4  10 1027.13 478.746   1
  10  -4  10 896.829 384.062  14
  10   4 -10 439.290 307.623   1
  10   4 -11 338.767 329.517   1
  10  -4  11 245.630 176.641   6
  10   4 -11 130.352 122.459  13
 -10   4 -11 53.6812 127.940   3
 -10   4 -11-337.186 269.984  12
  10   4 -11 327.477 274.699  11
 -10  -4  11 172.418 151.512   5
 -10   4 -11 271.540 270.611   5
 -10   4 -11-109.916 186.761  20
 -10   4 -11 187.572 192.429  10
  10   4 -11 95.6100 323.433  10
 -10   4 -11 0.80637 116.110  19
  10   4 -11 420.713 323.353   9
 -10  -4  11 171.184 128.193  19
  10   4 -11 259.187 181.594  18
 -10  -4  11 8.66009 28.1442   2
 -10   4 -11-35.4281 168.585   4
 -10  -4  11 68.2587 38.1907  17
  10  -4  11 291.066 205.933   8
  10  -4  11-286.474 709.150  16
  10  -4  11 361.687 340.639   1
 -10   4 -11 133.933 173.823   7
 -10   4 -11 13.7711 108.321  15
  10  -4  11 231.228 210.356  14
 -10  -5   0 16.5458 155.038  19
 -10   5   0 306.525 131.825  19
  10   5   0 404.633 251.612  18
  10   5   0 469.481 242.269   8
 -10  -5   0 27.7105 183.537  17
 -10   5   0 594.074 277.010   4
  10  -5   1 793.413 338.319  14
  10  -5   1 1080.53 569.112   6
 -10   5  -1 1545.61 440.092   5
 -10   5  -1 1332.64 414.343  19
 -10  -5  -1-223.723 294.502  19
 -10  -5   1 90.3439 142.992  19
  10   5   1 738.469 267.348  18
  10   5  -1 1230.88 443.512  18
 -10   5  -1 1498.51 478.356   4
  10   5   1 489.886 270.285   8
  10   5  -1 931.269 407.679   8
 -10  -5  -1-62.0000 98.0815  17
 -10  -5   1 67.6438 143.156  17
  10  -5   1 315.815 78.7745   8
  10  -5   1 705.475 295.284   1
  10  -5   2 521.791 273.745  14
  10  -5   2 843.267 381.492   6
 -10   5  -2 1011.90 363.796  19
 -10  -5   2 101.251 260.670  19
 -10   5  -2 1247.15 379.654   5
  10  -5   2 571.224 271.043   1
  10   5  -2 873.794 398.664  18
  10   5   2 667.841 348.987   8
  10   5  -2 674.683 359.892   8
 -10  -5  -2 8.30846 108.403  17
 -10  -5   2-66.9375 111.364  17
  10  -5   2 509.346 203.695   8
 -10   5  -2 1062.66 405.179   4
  10  -5   3 439.176 240.748  14
  10  -5   3 398.349 195.389   1
  10  -5   3 455.992 287.443   6
 -10  -5   3 57.0934 126.437  19
  10   5  -3 338.639 261.581   1
 -10   5  -3 715.949 297.859   5
 -10   5  -3 549.215 261.113  19
  10   5  -3 615.296 323.231  18
  10   5  -3 334.502 227.028   8
 -10  -5   3-58.8442 174.078  17
  10  -5   3 319.790 181.638   8
 -10   5  -3 500.832 272.259   4
  10  -5   4 668.390 292.049  14
  10  -5   4 966.125 351.578   6
 -10   5  -4 604.861 346.816  12
 -10   5  -4 996.705 350.686  19
 -10  -5   4 86.2090 223.894  19
 -10   5  -4 1277.12 374.418   5
  10   5  -4 460.133 353.950   1
  10   5  -4 1021.45 413.683  18
  10   5  -4 973.323 339.471   8
 -10  -5   4 64.3928 147.122  17
  10  -5   4 864.570 299.442   1
  10  -5   4 905.612 342.540   8
 -10   5  -4 939.853 347.404   4
  10  -5   5-71.6032 151.791  14
  10  -5   5 13.7831 65.2778   6
 -10   5  -5-89.1836 180.000  12
 -10  -5   5-133.857 178.388  19
  10  -5   5-21.7267 63.2840   1
 -10   5  -5-143.515 161.489   5
 -10   5  -5-65.2885 98.1625  19
  10   5  -5 71.7124 108.945  18
  10   5  -5 3.92405 183.155   1
  10   5  -5 49.2787 89.7214   8
 -10  -5   5 137.897 222.826  17
  10  -5   5 51.2803 83.4113   8
 -10   5  -5 29.2283 60.0978   4
  10  -5   6 872.243 374.319   6
 -10   5  -6 1316.42 497.109  12
  10  -5   6 1369.61 355.439   1
 -10   5  -6 1263.92 366.223  19
 -10   5  -6 1219.81 343.392   5
 -10  -5   6-38.2412 111.121  19
  10   5  -6 1360.53 403.814   8
  10   5  -6 1324.09 455.436  18
 -10   5  -6 1349.67 434.841   4
  10   5  -6 813.005 432.194   1
 -10  -5   6 61.4903 92.6805  17
  10  -5   6 1089.25 357.300   8
 -10   5  -6-109.338 697.250   3
  10  -5   6 717.805 311.974  14
  10   5  -7-273.818 335.767  13
  10  -5   7 24.9593 78.7051   6
 -10   5  -7 116.314 147.663  12
 -10  -5   7-270.094 351.855   2
 -10   5  -7 20.9400 32.7046   5
 -10  -5   7 143.062 196.603  19
 -10   5  -7 77.1184 119.429  19
  10   5  -7-155.048 336.139  18
  10   5  -7 155.193 128.171   8
  10   5  -7-405.229 369.326   1
 -10  -5   7 47.9234 153.177  17
  10  -5   7-31.7912 38.3257   8
 -10   5  -7 125.209 39.5202   4
  10  -5   7 7.37477 23.2587   1
 -10   5  -7-133.027 216.909   3
  10  -5   7 0.85994 23.9946  14
  10   5  -8 1072.04 380.256  13
  10  -5   8 1071.58 393.904   6
 -10   5  -8 850.408 357.409  12
  10   5  -8 2131.77 650.179  20
 -10   5  -8 906.928 303.707   5
 -10  -5   8 127.626 119.384   2
 -10  -5   8 369.238 282.221  19
 -10   5  -8 537.410 271.624  19
  10   5  -8 1219.03 342.631   8
  10   5  -8 1119.39 460.743  18
  10  -5   8 1095.55 306.690   1
 -10  -5   8 187.284 308.064  17
  10   5  -8 674.656 512.319   1
  10  -5   8 1247.34 380.969   8
 -10   5  -8 807.803 303.102   4
  10  -5   8 1104.02 350.717  14
 -10   5  -8 357.167 146.605   3
 -10   5  -9-143.476 353.397   3
  10  -5   9-67.7932 115.926   6
  10   5  -9-77.2119 40.1542  13
 -10   5  -9 67.2661 161.421  12
  10   5  -9-261.432 260.243  11
  10   5  -9-273.156 315.154  20
 -10   5  -9 78.7432 170.715   5
 -10  -5   9 7.43460 87.9199  19
  10  -5   9 100.383 86.7120   1
 -10  -5   9-33.5662 78.5485   2
 -10   5  -9 45.4361 142.912  19
  10   5  -9-53.8631 164.768  18
 -10  -5   9 5.61039 25.5520  17
  10   5  -9-42.9666 37.2633   8
 -10   5  -9-69.0564 90.4042   4
  10  -5   9-28.4821 40.4181   8
  10   5  -9-85.6071 226.740   1
  10  -5   9 47.0255 28.0657  14
 -10   5 -10 446.837 326.715   3
  10  -5  10 698.587 370.983   6
  10   5 -10 800.840 347.351  13
 -10   5 -10 526.988 303.068  12
  10  -5  10 895.911 315.405   1
  10   5 -10 1106.70 487.072  11
 -10   5 -10 771.606 331.647   5
  10   5 -10 1882.22 773.355  20
  10   5 -10 1806.31 732.820  10
 -10  -5  10 317.959 191.499  19
 -10   5 -10 493.949 252.251  19
 -10  -5  10 319.593 298.888   2
  10   5 -10 906.754 415.868  18
 -10  -5  10 328.678 279.472  17
 -10   5 -10 526.528 291.242   4
  10  -5  10 824.480 317.041   8
  10   5 -10 471.766 445.258   1
  10  -5  10 505.056 262.598  14
 -10  -6   1-126.032 278.688  19
  10   6  -1 766.976 322.237  18
  10   6  -1 442.505 287.315   8
 -10  -6   1 3.53302 55.6691  17
 -10  -6   2 52.0485 84.3471  19
  10   6  -2 119.086 155.559  18
  10   6  -2-50.6819 103.470   8
 -10  -6   2 92.2350 152.751  17
  10  -6   3 815.886 553.882   6
 -10   6  -3 1876.97 525.444   5
 -10  -6   3 125.682 137.866  19
 -10   6  -3 657.182 275.661  19
  10   6  -3 911.574 379.414  18
 -10   6  -3 1946.73 630.734   4
  10   6  -3 690.729 307.404   8
 -10  -6   3 103.399 243.495  17
  10  -6   3-302.033 347.310   8
  10  -6   4 10.7989 29.0325  14
  10  -6   4 205.395 303.425   6
 -10  -6   4-217.221 334.240  19
 -10   6  -4-9.40229 55.4506   5
 -10   6  -4-162.012 217.616  19
  10   6  -4 15.4302 22.9423  18
  10   6  -4 142.682 145.928   8
  10  -6   4 206.293 183.469   1
 -10  -6   4 52.4542 96.2049  17
  10  -6   4-385.064 377.759   8
 -10   6  -4 26.7008 125.598   4
  10  -6   5 767.701 386.457  14
  10  -6   5 1237.45 382.024   1
  10  -6   5 1387.29 488.500   6
 -10   6  -5 1095.74 397.319  12
 -10   6  -5 1334.77 434.230  19
 -10  -6   5 120.007 269.403  19
 -10   6  -5 1634.65 438.797   5
  10   6  -5 1254.90 465.838  18
  10   6  -5 1099.62 429.119   8
 -10  -6   5-144.075 227.920  17
  10  -6   5 794.776 341.498   8
 -10   6  -5 1652.59 510.695   4
  10  -6   6 330.318 253.689  14
  10  -6   6 481.473 300.154   6
 -10   6  -6 350.266 292.894  12
 -10  -6   6-21.1986 191.408  19
  10   6  -6 713.436 527.123   1
 -10   6  -6 561.493 218.482   5
 -10   6  -6 402.599 279.114  19
  10   6  -6 924.199 435.695  18
  10   6  -6 372.055 204.148   8
 -10  -6   6-102.248 179.177  17
  10  -6   6 473.712 233.232   1
  10  -6   6 397.355 269.906   8
 -10   6  -6 410.881 254.507   4
  10  -6   7 704.102 341.484  14
  10  -6   7 631.107 340.852   6
 -10   6  -7 755.319 426.360  12
  10  -6   7 668.386 237.505   1
 -10  -6   7-41.8777 73.1309  19
 -10   6  -7 856.884 280.974   5
 -10   6  -7 573.711 328.347  19
  10   6  -7 258.118 383.106   1
  10   6  -7 984.295 435.577  18
  10   6  -7 777.852 299.819   8
 -10  -6   7-60.2994 93.5478  17
  10  -6   7 740.139 323.024   8
 -10   6  -7 988.984 376.933   4
  10   6  -8-273.169 385.963  13
  10  -6   8 327.301 182.274   1
  10  -6   8 102.591 179.802   6
 -10   6  -8 349.276 289.503  12
 -10   6  -8 289.280 195.553   5
 -10  -6   8-15.4479 62.4060  19
 -10   6  -8 181.879 208.501  19
  10   6  -8 313.566 333.403   1
  10   6  -8 373.163 296.838  18
  10   6  -8 371.895 199.661   8
 -10  -6   8-3.93806 63.5487  17
  10  -6   8 284.743 197.346   8
 -10   6  -8 282.878 187.188   4
 -10   6  -8 44.0103 457.385   3
  10  -6   8 202.398 196.453  14
  10   7  -3 140.478 148.592  18
 -10  -7   3 142.312 205.792  17
 -10  -7   4-82.3105 268.538  19
  10   7  -4 541.304 278.762  18
  10   7  -4 359.341 247.751   8
 -10  -7   4-12.2428 146.116  17
 -10  -7   5 56.0206 136.665  19
  10   7  -5 599.392 290.559  18
  10   7  -5 391.855 270.212   8
 -10  -7   5-79.1359 161.623  17
  10  -7   6 490.571 359.855  14
  10  -7   6 368.681 396.327   6
 -10  -7   6 168.883 193.222  19
 -10   7  -6 862.522 392.879   5
  10   7  -6 486.073 276.819  18
  10  -7   6 510.086 299.693   1
  10   7  -6 460.852 227.260   8
 -10  -7   6 12.2688 137.160  17
  10  -7   6-360.432 452.135   8
 -10   7  -6 723.281 386.032   4
 -11   0   0 102.480 113.497  12
  11   0   0-7.29839 66.9299   1
  11   0   0-72.5375 223.831  11
 -11   0   0 29.5901 16.6303   5
 -11   0   0 84.3237 167.044  19
 -11   0   0-60.8970 99.3601   2
  11   0   0-46.6138 62.4066  18
 -11   0   0 77.5891 135.980   4
  11   0   0 6.17239 37.3371   8
 -11   0   0-43.0217 84.8313  17
 -11   0   0-25.3799 40.6907   7
 -11   0   0-108.528 116.538  15
  11   0   0 139.098 181.969  14
  11   0   0-2.38261 28.7987   6
  11   0  -1 221.108 151.218   6
  11   0   1 166.959 178.391   1
 -11   0  -1 45.8213 118.888  12
 -11   0   1 112.661 120.336  12
  11   0  -1 227.816 189.266   1
  11   0   1 271.130 222.884  11
  11   0  -1 290.594 230.330  11
 -11   0  -1 130.227 164.460   5
 -11   0   1 137.750 154.825   5
 -11   0  -1-85.2616 192.896   2
 -11   0  -1 98.8405 155.698  19
 -11   0   1 158.996 137.664  19
 -11   0   1 89.9283 89.7817   2
  11   0   1 207.743 171.119  18
  11   0  -1 348.457 232.870  18
 -11   0  -1 281.560 247.436   4
 -11   0   1 56.4223 88.3398   4
  11   0   1 257.311 190.768   8
 -11   0  -1 38.3713 92.6536  17
  11   0  -1 206.659 164.570   8
 -11   0   1-15.4545 64.1728  17
 -11   0  -1 219.405 198.163   7
 -11   0   1 197.536 144.113   7
 -11   0  -1 110.959 126.870  15
 -11   0   1 182.293 136.531  15
  11   0   1 226.219 215.790  14
  11   0  -1 287.031 222.862  14
  11   0   1 242.400 185.114   6
 -11   0  -2-12.1789 11.8444   3
  11   0  -2-15.7326 55.2833   6
  11   0   2 16.9162 103.225   1
  11   0  -2-4.83336 22.8597  13
 -11   0  -2 10.5483 39.0026  12
 -11   0   2 25.9120 43.1120  12
  11   0   2-81.4214 219.370  11
 -11   0  -2-65.9455 75.0380   5
  11   0  -2 124.904 209.523  11
 -11   0   2 34.4277 77.1901   5
  11   0  -2-2.32919 38.5410   1
 -11   0  -2-76.4914 117.634  19
 -11   0   2-52.1340 78.3047  19
  11   0   2 14.3347 50.1928  18
  11   0  -2 44.3218 101.129  18
 -11   0   2 22.2207 60.3425   2
 -11   0  -2-36.3795 62.5900   4
  11   0   2-46.2115 110.103   8
 -11   0   2 70.5430 108.702   4
 -11   0  -2 10.5591 60.8255  17
 -11   0   2-40.8304 117.836  17
  11   0  -2-31.3902 71.7821   8
 -11   0  -2-4.86536 126.262   7
 -11   0   2 92.7744 128.742   7
 -11   0  -2-212.899 240.377  15
 -11   0   2 80.6848 143.170  15
  11   0   2-29.6833 77.7344  14
  11   0  -2 84.7450 156.200  14
  11   0   2-123.566 170.069   6
  11   0  -3 877.848 263.046   6
  11   0  -3 821.224 186.489  13
 -11   0  -3 134.961 165.307   3
 -11   0  -3 225.726 171.368  12
 -11   0  -3 285.717 207.989   5
  11   0   3 1233.18 352.003  11
  11   0  -3 758.904 310.249  11
 -11   0   3 635.620 298.471   5
 -11   0  -3 357.422 238.887  19
 -11   0   3 556.114 262.074  19
  11   0  -3 738.701 307.485   1
  11   0   3 1263.69 352.408  18
  11   0  -3 982.479 406.810  18
 -11   0  -3 240.347 207.095   4
 -11   0   3 513.710 214.191   2
  11   0   3 830.826 317.108   8
 -11   0  -3 239.601 127.433  17
 -11   0   3 398.157 210.974   4
 -11   0   3 477.606 316.370  17
  11   0  -3 934.371 330.240   8
 -11   0  -3 139.438 129.545   7
 -11   0  -3 258.019 92.9872  15
 -11   0   3 843.472 296.563  15
  11   0   3 639.152 288.809   1
  11   0   3 787.569 380.362  14
  11   0  -3 884.282 388.669  14
  11   0   3 1234.43 423.162   6
  11   0  -4-41.6695 59.3538   6
 -11   0  -4 34.4168 52.7746   3
 -11   0  -4-2.36445 69.0881  12
 -11   0  -4-45.0935 164.081   5
  11   0   4 99.6607 171.054  11
  11   0  -4 227.815 311.320  11
 -11   0   4-42.6787 17.0748   5
 -11   0  -4-37.1664 29.6260  19
 -11   0   4-27.9906 31.5624  19
  11   0   4-17.3292 25.9264  18
  11   0  -4-81.2739 118.706   1
  11   0  -4-79.0515 128.631  18
 -11   0  -4 106.851 167.761   4
  11   0   4-159.330 173.387   8
 -11   0  -4-46.0257 67.5811  17
 -11   0   4 9.79822 70.7169   2
 -11   0   4-50.3835 135.335  17
 -11   0   4 97.7740 127.875   4
  11   0  -4-17.1310 56.3022   8
 -11   0  -4-350.529 246.203   7
  11   0   4 53.1488 208.292   1
  11   0   4 101.971 171.211  14
  11   0   4-30.7808 123.787   6
  11   0  -4 13.7086 66.8258  14
 -11   0  -5 600.897 325.668  12
 -11   0  -5 399.830 239.470   3
 -11   0   5 2517.15 613.306   5
  11   0   5 3251.14 799.712   1
  11   0   5 5341.65 665.783  11
  11   0  -5 2742.59 862.720  11
 -11   0  -5 485.821 225.966   5
 -11   0   5 2349.58 447.130   2
  11   0  -5 2983.87 706.769   1
 -11   0   5 2865.46 591.006  19
 -11   0  -5 829.256 379.176  19
  11   0   5 4831.32 641.361  18
  11   0  -5 3314.17 814.741  18
  11   0   5 4405.35 791.260   8
 -11   0   5 2835.27 616.998   4
  11   0  -5 3700.87 668.765   8
 -11   0  -5 630.648 320.552   4
 -11   0   5 1945.63 668.259  17
  11   0   5 4668.48 645.024  16
  11   0   5 3511.82 753.267   6
  11   0  -5 3629.54 461.594   6
  11   0   5 3248.56 754.932  14
  11   0  -5 2995.01 733.437  14
  11   0  -6-40.3267 47.5443   6
 -11   0  -6 23.9926 157.950   3
  11   0  -6 303.950 345.434  11
 -11   0   6 12.5700 69.4187   5
 -11   0  -6-131.950 176.267  19
 -11   0   6-95.1297 120.321  19
  11   0   6 2.73419 68.5744  18
 -11   0  -6-242.208 277.692   4
  11   0  -6 15.9996 15.6196  18
  11   0   6-66.3828 139.259   8
  11   0   6 62.1401 141.260   1
 -11   0  -6-45.0888 49.4729  17
 -11   0   6 39.3763 7.67863  17
 -11   0   6 10.4751 67.4049   4
  11   0  -6-51.1861 133.689   1
  11   0  -6 15.5547 16.8205   8
 -11   0   6-45.2585 17.0828   2
  11   0   6 49.4967 59.1915  16
  11   0   6-15.6863 125.044  14
  11   0   6-87.0189 178.004   6
  11   0  -6 42.7774 102.634  14
  11   0   7 2892.71 772.808   1
 -11   0   7 2652.45 635.553   5
 -11   0   7 2321.49 488.866   2
  11   0  -7 2421.28 644.323   1
  11   0  -7 1448.42 645.846  11
 -11   0   7 2487.10 539.962  19
  11   0   7 4047.51 532.516  18
  11   0  -7 2590.37 747.839  18
  11   0   7 3493.72 726.903   8
 -11   0   7 2340.39 557.733   4
  11   0  -7 2817.57 705.608   8
 -11   0   7 2007.17 684.790  17
 -11   0  -7 158.941 151.568  17
  11   0   7 4811.05 670.543  16
  11   0   7 3211.59 727.284   6
  11   0   7 2801.15 713.070  14
  11   0  -7 2580.93 690.350  14
  11   0  -8 302.329 267.842  11
 -11   0   8 153.534 211.561   5
 -11   0  -8 85.6488 216.996  19
  11   0   8 430.665 421.082   1
 -11   0   8 3.10993 47.4173  19
  11   0   8-52.0509 54.7713  18
  11   0  -8 109.762 168.624  18
  11   0   8 197.765 289.881   8
 -11   0   8 167.945 250.537  17
 -11   0   8-67.1687 77.2506   4
  11   0  -8-645.735 723.923   8
  11   0   8-146.314 114.639  16
 -11   0   8 92.0945 116.695   2
  11   0  -8 51.3240 138.556   1
  11   0   8 358.115 420.422  14
  11   0   8 292.147 352.925   6
  11   0  -8 48.6110 119.999  14
 -11   0   9 2063.43 600.704   5
 -11   0   9 1800.23 490.741   2
  11   0  -9 605.689 376.712  11
 -11   0   9 1537.57 460.529  19
 -11   0  -9 159.116 236.145  19
  11   0   9 2856.53 720.247   8
 -11   0   9 1577.15 494.577   4
  11   0  -9 1161.04 525.329  18
 -11   0   9 1135.91 537.415  17
  11   0   9 2736.01 508.505  16
  11   0   9 1529.29 534.997  14
  11   0   9 1946.20 610.293   6
  11   0  -9 1303.54 490.595   1
  11   0  -9 1261.22 488.193  14
  11   0 -10-41.6886 117.378   1
  11   0 -10-58.1238 152.264  11
 -11   0  10 47.7265 146.770   5
 -11   0 -10-6.06537 114.306  19
 -11   0  10-161.489 278.006  19
  11   0 -10-44.3932 150.166  18
  11   0  10 90.6928 142.481   8
 -11   0  10-88.4232 197.035  17
 -11   0  10-31.1695 95.1455   4
  11   0  10-57.7565 100.057  16
 -11   0  10-5.05400 71.1800   2
  11   0  10 222.773 215.882  14
  11   0  10 44.6539 11.8011   6
  11   0 -10-122.371 184.271  14
  11   0 -11-121.643 455.960  11
 -11   0 -11-142.947 231.393  19
  11   0 -11 417.348 269.933  18
  11   0  11 972.589 414.472   8
 -11   0  11 638.683 418.932  17
 -11   0  11 832.714 385.649   4
  11  -1   0 48.3708 50.4366   6
 -11  -1   0-39.0710 26.3406  12
 -11   1   0 50.1144 130.498  12
  11   1   0 49.4168 79.9523  11
 -11  -1   0 66.1618 122.680   5
 -11   1   0 40.8873 88.8239   5
 -11  -1   0 76.7905 152.947  19
 -11   1   0 106.145 152.420  19
  11  -1   0 118.844 144.143   1
  11   1   0 66.7333 61.7953  18
  11  -1   0-73.4062 175.074  18
 -11   1   0 43.8744 51.1969   2
 -11  -1   0-33.3986 194.268   4
  11   1   0 215.106 162.611   8
 -11  -1   0 157.239 169.029  17
 -11   1   0-24.2894 17.9104   4
  11  -1   0 9.11819 55.8610   8
 -11   1   0-124.739 210.626  17
  11   1   0-81.2250 61.8500   6
  11   1   0 78.3178 143.139  14
  11  -1   0-83.7135 155.411  14
  11   1   0 170.762 183.590   1
 -11  -1  -1 29.3614 25.3631   3
  11  -1   1 38.9756 75.7270   6
  11  -1  -1 102.983 93.8574   6
  11   1  -1 76.5589 146.519   1
  11  -1  -1 5.07323 15.0985  13
 -11  -1  -1 1.97136 12.5493  12
 -11  -1   1 105.752 124.835  12
 -11   1  -1 22.7705 31.9063  12
 -11   1   1 41.7237 31.2376  12
  11   1   1 150.870 183.919  11
  11   1  -1 12.9967 110.868  11
 -11  -1  -1 142.600 133.670   5
 -11  -1   1 157.586 188.586   5
  11  -1  -1-854.466 796.768  11
 -11   1  -1 112.956 158.042   5
 -11   1   1-0.49201 52.7468   5
  11  -1   1 22.0735 58.3649   1
 -11  -1  -1-14.9163 57.8122  19
 -11  -1   1 31.5539 47.5030   2
 -11  -1   1-86.2497 73.2692  19
 -11   1  -1 77.1339 125.442  19
 -11   1   1-42.0386 65.9184  19
 -11   1  -1 52.3454 74.4256   2
  11   1   1 136.299 150.140  18
  11   1  -1 25.9920 70.0155  18
  11  -1  -1 53.8627 99.3198   1
  11  -1   1 48.4908 133.257  18
  11  -1  -1 153.095 221.091  18
 -11  -1  -1 27.8112 50.5446   4
 -11  -1   1 27.6013 134.725   4
  11   1   1-75.2200 134.781   8
 -11   1   1 38.5524 60.0235   2
 -11  -1  -1 160.995 166.841  17
  11   1  -1-6.73512 47.3378   8
 -11  -1   1 134.720 162.038  17
 -11   1  -1-20.3508 22.7225   4
  11  -1   1 99.0550 119.132   8
  11  -1  -1 72.8796 157.615   8
 -11   1  -1-3.96531 93.4412  17
 -11   1   1 121.334 182.035   4
 -11   1   1 80.6715 211.094  17
 -11   1  -1 22.8119 101.316  15
  11   1   1 19.0006 67.2035   1
  11   1   1 169.153 209.548   6
  11   1   1 14.7656 68.9184  14
  11   1  -1 9.87953 103.604   6
  11   1  -1 241.134 213.938  14
  11  -1   1 87.2021 142.891  14
  11  -1  -1 54.8170 75.6854  14
  11  -1   2 277.127 191.350   6
  11  -1  -2 150.277 89.4907   6
 -11  -1  -2-19.5716 19.5760   3
  11   1  -2 1.38882 31.5554   1
 -11  -1  -2 210.369 203.357  12
 -11   1  -2 96.1268 134.838  12
 -11  -1   2-24.6698 68.9478  12
  11  -1   2 102.955 152.253   1
  11   1   2 390.009 225.347  11
 -11  -1  -2-81.7878 155.132   5
  11   1  -2 220.340 106.457  11
 -11  -1   2 53.9672 104.514   5
 -11   1  -2 85.0413 95.8507   5
  11  -1  -2-832.964 838.954  11
 -11   1   2 161.861 140.285   5
 -11   1  -2 71.8796 55.5384   2
 -11  -1  -2 44.9391 104.642  19
 -11  -1   2 30.8663 84.6414  19
 -11   1  -2 106.829 144.502  19
 -11   1   2 114.208 137.656  19
 -11  -1   2 79.4468 83.4628   2
  11   1   2 220.592 161.403  18
  11   1  -2 239.446 210.843  18
  11  -1   2 164.397 244.811  18
  11  -1  -2 197.132 222.902  18
 -11  -1  -2-115.389 231.268   4
 -11  -1   2 246.765 220.792   4
  11   1   2 264.753 190.821   8
 -11  -1  -2 248.710 191.438  17
 -11   1  -2 126.637 110.083   4
  11  -1  -2 312.987 216.895   1
  11   1  -2 218.019 132.623   8
 -11  -1   2 25.8960 59.1596  17
  11  -1   2 209.322 170.854   8
 -11   1  -2 105.585 187.635  17
 -11   1   2 43.6805 129.566  17
 -11   1   2 99.3677 104.109   2
  11  -1  -2 194.287 150.438   8
 -11   1   2 54.5553 111.466   4
  11   1   2 139.708 163.308   1
 -11   1  -2 99.8997 132.684   7
 -11   1  -2 118.525 162.402  15
  11   1   2 140.168 74.4326   6
  11   1   2 267.067 261.173  14
  11   1  -2 259.788 196.948  14
  11   1  -2 58.9902 80.5488   6
  11  -1   2 80.0991 144.041  14
  11  -1  -2 162.544 156.937  14
  11  -1   3-48.0740 94.3126   6
  11   1  -3-62.2063 43.4219  13
  11  -1  -3-9.86551 48.0953   6
  11  -1   3 8.78925 46.5149   1
 -11   1  -3 1.00770 115.870  12
 -11  -1  -3 171.108 164.032   3
  11   1  -3-54.2888 131.249   1
 -11  -1   3-267.435 277.155  12
  11   1   3 53.3005 113.275  11
 -11  -1  -3-253.610 319.719   5
  11   1  -3-22.9242 127.947  11
 -11   1  -3-20.8277 82.4632   5
 -11  -1   3 35.7357 93.3420   5
  11  -1  -3-963.035 786.082  11
 -11   1   3 68.6076 88.9810   5
 -11  -1  -3-15.7706 152.713  19
 -11   1  -3 37.8245 112.551  19
 -11  -1   3 79.3115 85.2502  19
 -11   1   3 9.23093 92.2316  19
  11   1   3 63.5619 126.180  18
 -11  -1   3-55.8733 71.9677   2
  11   1  -3-42.8440 87.4606  18
 -11  -1  -3-207.194 327.127   4
  11  -1   3-35.7462 157.508  18
  11  -1  -3 177.634 281.678  18
  11   1   3 81.6699 143.157   8
 -11  -1   3-79.3640 163.312   4
 -11   1  -3-22.0686 120.859   4
 -11  -1  -3-36.4811 31.7554  17
  11  -1   3 9.50422 85.8939   8
 -11  -1   3 120.650 135.161  17
  11   1  -3-3.26234 60.3474   8
 -11   1  -3 117.339 193.987  17
 -11   1   3-89.3424 195.518  17
  11  -1  -3-25.9217 58.7345   8
 -11   1   3-84.6616 93.2728   4
  11   1   3 85.3361 154.665   1
 -11   1   3-13.8585 50.6694   2
  11  -1  -3 28.6807 64.0201   1
 -11   1  -3 68.1076 129.164   7
 -11   1  -3 30.1180 81.9413  15
  11   1   3-44.3893 208.172   6
  11   1   3 6.49030 11.6750  14
  11   1  -3-150.545 170.763  14
  11   1  -3-65.6513 36.0319   6
  11  -1   3-39.5585 70.4323  14
  11  -1  -3-115.006 142.250  14
 -11   1  -3 88.8426 121.691   3
  11  -1   4 1297.71 431.641   1
  11   1  -4 1327.15 296.488  13
 -11   1  -4 84.5904 87.1227   3
 -11   1  -4 486.358 243.399  12
  11   1   4 2149.39 404.269  11
  11   1  -4 1175.30 420.343   1
  11   1  -4 1994.96 587.817  11
 -11   1   4 1035.42 273.924   2
 -11   1  -4 640.109 299.891   5
 -11  -1   4 931.812 378.662   5
 -11   1   4 1349.99 390.596  19
 -11   1   4 1130.03 397.996   5
 -11  -1  -4 242.580 256.419  19
 -11   1  -4 587.534 320.552  19
 -11  -1   4 772.198 296.151  19
  11   1   4 1844.46 414.641  18
  11  -1   4 1890.20 523.790  18
  11   1   4 1717.08 509.513   8
  11  -1   4 1349.28 423.840   8
  11   1  -4 1368.86 380.437   8
  11  -1  -4 1215.92 406.196   8
  11   1  -4 1527.29 495.878  18
  11  -1  -4 962.916 503.286  18
 -11  -1   4 657.607 271.368   2
 -11   1  -4 946.558 411.712   4
 -11  -1   4 484.561 239.624   4
 -11  -1  -4 275.214 204.236  17
  11   1   4 1084.37 495.295   1
 -11  -1   4 857.307 393.936  17
 -11   1  -4 315.752 238.579  17
 -11   1   4 787.530 464.902  17
  11   1   4 1765.89 337.790  16
 -11   1   4 999.750 343.996   4
 -11   1  -4 807.602 346.739   7
  11  -1   4 1466.73 416.618   6
  11  -1  -4 1377.97 290.471   6
 -11   1  -4 892.996 357.520  15
  11  -1  -4 1144.03 418.974   1
  11   1   4 1032.98 465.199   6
  11   1   4 1176.62 490.095  14
  11   1  -4 1561.93 547.255  14
  11  -1   4 1246.97 440.400  14
  11   1  -4 1376.70 412.691   6
  11  -1  -4 1115.28 409.876  14
  11  -1  -5-5.50622 37.6871   1
 -11   1  -5 124.109 153.406   3
  11   1  -5 106.376 83.5253  13
  11  -1  -5 52.7770 52.1750   6
 -11   1  -5-37.2276 128.159  12
 -11   1  -5 17.7425 111.614   5
  11   1  -5-147.797 235.900  11
 -11  -1   5 193.543 164.104   5
  11   1  -5 89.7133 104.060   1
 -11   1   5-34.9177 110.838   5
 -11  -1  -5 16.1583 145.110  19
 -11   1  -5 34.9791 34.8687  19
 -11  -1   5 74.7107 95.7960  19
 -11   1   5 3.52929 37.0857  19
  11   1   5 32.1758 55.3587  18
  11   1  -5 98.9797 139.985  18
  11  -1   5 91.2387 80.8376  18
  11   1   5 205.473 266.505   1
  11  -1  -5-173.244 400.494  18
 -11   1  -5 72.0921 110.398   4
 -11  -1   5 45.5392 58.1577   2
  11   1   5 47.4765 128.444   8
 -11  -1  -5 72.3385 80.3984  17
 -11  -1   5-170.404 187.384   4
  11  -1   5 102.365 135.468   8
 -11  -1   5 7.68996 166.858  17
 -11   1  -5 180.021 207.674  17
  11   1  -5-2.29559 33.7302   8
 -11   1   5-306.796 303.690  17
  11  -1  -5 50.5480 105.064   8
 -11   1   5 32.8053 104.558   4
 -11  -1   5-265.890 304.167   7
  11   1   5 20.4291 67.6748  16
 -11   1  -5 98.7787 143.294   7
 -11   1   5 13.3086 26.7595   2
 -11  -1   5-373.766 343.591  15
 -11   1  -5 83.1527 142.884  15
  11   1   5 93.7441 195.771   6
  11   1   5-31.9714 60.5038  14
  11  -1   5-54.5310 152.251   1
  11  -1   5 15.8549 86.8367  14
  11   1  -5 43.7474 125.053  14
  11   1  -5 118.738 152.776   6
  11  -1  -5 92.3280 128.438  14
  11  -1   5 16.0538 99.2395   6
  11   1  -6 2548.70 419.665  13
 -11   1  -6 646.201 284.672   3
 -11   1  -6 982.079 364.146  12
 -11  -1   6 1954.14 563.218   5
 -11   1   6 3029.87 658.119   5
  11  -1   6 3087.39 698.054   1
  11   1  -6 3614.74 889.600  11
  11   1  -6 2763.46 678.586   1
 -11  -1   6 2048.89 447.043   2
 -11   1  -6 949.172 391.150   5
 -11   1   6 2567.87 531.041   2
  11  -1  -6 2426.66 621.955   1
 -11  -1   6 2070.48 519.384  19
 -11   1   6 2856.72 599.060  19
 -11   1  -6 1059.61 384.642  19
  11   1   6 1986.70 668.027   1
  11   1   6 3682.86 568.995  18
  11   1  -6 3372.41 762.344  18
  11  -1   6 4699.87 723.334  18
  11   1   6 3094.63 713.400   8
 -11  -1   6 2148.10 538.167   4
  11  -1   6 3509.21 688.310   8
 -11   1   6 2882.43 608.264   4
  11   1  -6 3517.12 629.247   8
  11  -1  -6 2856.07 694.793   8
  11  -1  -6 1272.27 513.139  18
 -11   1  -6 927.819 380.009   4
 -11  -1   6 1494.10 583.286  17
 -11   1  -6 259.753 193.663  17
 -11   1   6 1643.70 740.823  17
  11  -1   6 3294.40 627.091  16
  11   1   6 4172.03 564.915  16
 -11  -1   6 1765.69 417.995   7
 -11   1  -6 1037.42 376.701   7
  11   1   6 2316.30 705.259   6
  11  -1   6 3439.16 674.118   6
 -11  -1   6 1596.09 349.981  15
 -11   1  -6 1304.46 406.819  15
  11  -1  -6 2703.27 390.736   6
  11   1   6 2282.33 701.674  14
  11  -1   6 3077.96 688.967  14
  11   1  -6 2921.46 756.797  14
  11  -1  -6 2866.69 664.622  14
  11  -1  -7 32.2748 41.0601   6
 -11   1  -7 189.607 194.044  12
 -11   1  -7-159.990 154.070   3
  11  -1  -7 159.691 167.029   1
 -11   1  -7-237.664 259.109   5
  11   1  -7-2.23850 230.692  11
 -11  -1   7-68.4585 182.593   5
 -11  -1  -7-202.454 213.103  19
 -11   1   7-173.363 191.850   5
 -11   1  -7 64.6868 155.755  19
 -11  -1   7 92.3497 128.269  19
 -11   1   7-8.75539 35.1888  19
  11   1  -7 60.0944 115.760   1
  11   1   7-53.8923 82.3652  18
  11  -1   7 17.2058 44.6898  18
  11   1  -7 143.970 187.629  18
  11  -1  -7-189.299 362.642  18
 -11   1  -7-152.929 173.025   4
  11   1   7-13.7065 79.8900   8
 -11  -1  -7 20.2190 62.6384  17
  11  -1   7-117.976 148.620   8
 -11  -1   7-39.7877 48.4322   2
 -11  -1   7-92.5622 108.835   4
 -11  -1   7-24.5179 45.7222  17
  11  -1   7-33.4257 115.782   1
 -11   1   7-88.9512 265.015  17
  11   1  -7 2.70068 76.0625   8
  11  -1   7-134.952 197.386  16
 -11   1   7-69.8099 109.279   4
 -11   1  -7-79.9789 245.979   7
  11   1   7 190.896 157.897  16
 -11   1  -7-156.748 265.362  15
 -11   1   7-21.3611 108.087   2
  11   1   7-173.002 242.990   6
  11   1   7-27.5181 126.734  14
  11  -1   7 29.7846 116.878  14
  11   1  -7 3.56349 107.656  14
  11  -1   7-46.6453 119.236   6
  11  -1  -7 92.0641 150.650  14
 -11   1  -8 483.371 359.361  12
 -11   1  -8 501.658 357.155   3
 -11   1   8 1743.31 536.391   5
 -11  -1   8 1553.35 431.024   2
  11   1  -8 1884.62 578.761   1
  11   1  -8 2277.43 761.828  11
  11  -1  -8 1337.38 473.849   1
 -11   1   8 2142.06 566.636   2
 -11  -1   8 1411.76 517.458   5
 -11   1  -8 1555.41 671.454  19
 -11  -1   8 1438.82 439.195  19
 -11   1   8 1868.75 509.306  19
 -11  -1  -8-89.2254 253.890  19
  11   1   8 2137.42 399.587  18
  11   1  -8 2023.78 652.831  18
  11   1   8 2115.45 607.845   8
 -11   1   8 2083.33 534.561   4
  11   1  -8 2242.03 614.927   8
 -11   1  -8 960.889 496.147   4
  11  -1  -8 244.295 361.361  18
 -11  -1   8 1278.73 542.793  17
 -11  -1   8 1623.36 486.000   4
 -11   1   8 1585.38 667.120  17
  11   1   8 2628.93 491.429  16
 -11   1  -8 445.631 578.952   7
 -11   1  -8 1359.08 631.503  15
  11   1   8 656.070 88.9902   6
  11  -1  -8 1821.41 565.355  14
  11   1  -8 1435.20 589.999  14
  11  -1   9 2192.58 1127.87   1
 -11   1  -9-146.304 77.7220   3
  11   1  -9 168.578 279.798  11
 -11   1  -9 915.919 683.620  19
 -11  -1   9 43.2737 192.972   5
  11  -1  -9 57.6729 103.051   1
 -11  -1  -9 9.73340 78.3008  19
 -11   1   9-106.153 181.101   5
 -11  -1   9 31.2198 72.0770  19
 -11   1   9-346.942 344.473  19
  11   1   9 47.3797 82.3944  18
  11   1  -9 100.687 135.027  18
  11  -1  -9-558.277 684.349  18
  11   1  -9 13.2642 144.002   1
  11   1   9-35.6737 162.693   8
 -11  -1   9-255.832 272.967  17
 -11  -1   9 89.0428 133.163   4
 -11   1   9-739.213 441.500  17
  11  -1   9 1369.05 584.695  16
 -11  -1   9 75.0528 99.7658   2
  11   1  -9-448.022 610.405   8
 -11   1   9-80.2373 102.015   4
  11   1   9 80.7082 96.2063  16
  11   1   9-714.300 597.378   6
 -11   1   9 153.213 146.183   2
  11   1  -9-18.5700 86.8845  14
  11  -1  -9 115.787 134.546  14
  11   1 -10 770.009 506.445  11
 -11  -1  10 842.464 388.556   5
 -11  -1 -10 164.724 264.461  19
 -11   1 -10-89.1452 141.928  19
 -11   1  10 1160.41 476.128   5
 -11  -1  10 569.606 328.080  19
  11  -1 -10 387.595 307.132   1
  11   1 -10 589.431 378.970  18
  11   1  10 687.751 335.208   8
  11  -1  10 840.051 353.606   8
  11   1 -10 527.709 331.464   1
 -11  -1  10 669.008 357.200  17
 -11  -1  10 700.089 321.431   4
 -11   1  10 124.784 161.073  17
 -11  -1  10 503.386 282.670   2
  11  -1  10 1229.62 399.065  16
 -11   1  10 871.248 369.385   4
  11   1  10 874.180 303.646  16
  11   1  10-192.856 588.122   6
  11  -1  10 785.350 396.955  14
 -11   1  10 982.355 427.327   2
  11  -1  10 874.944 325.505   6
  11   1 -10 457.256 305.898  14
  11  -1 -10 562.144 320.679  14
  11  -2   0-55.9712 74.7487   6
 -11  -2   0 210.619 158.204  12
 -11   2   0-109.083 278.615  12
  11   2   0 25.7240 53.4106  11
 -11  -2   0-183.214 266.015   5
 -11   2   0-52.9345 97.3572   5
 -11  -2   0-9.68261 123.332  19
  11   2   0 362.014 231.995   9
 -11   2   0-5.17036 13.2626  19
  11   2   0 0.58106 89.9773  18
  11   2   0 72.8113 124.074   8
 -11  -2   0 33.6733 47.9863  17
  11  -2   0 60.1772 76.3689   8
 -11   2   0-26.4356 65.8383   4
 -11   2   0 15.7741 36.9650   2
  11  -2   0-37.4393 129.048   1
  11   2   0 18.3943 137.639   1
  11   2   0-9.47432 26.7163  14
  11  -2   0 4.85985 37.4757  14
  11  -2   1 109.102 107.778   6
  11  -2  -1 192.729 125.615   6
 -11  -2   1-19.6359 53.5034  12
 -11   2  -1 218.117 225.612  12
  11   2  -1 217.766 189.512  11
 -11  -2   1-57.4004 44.4605   5
 -11   2  -1 87.6262 120.301   5
 -11   2   1 116.290 122.063   5
 -11  -2  -1-56.7524 64.7079  19
 -11  -2   1 25.2092 141.372  19
  11   2  -1 705.413 308.887   9
 -11   2  -1 161.210 152.932  19
 -11   2   1 102.409 102.892  19
  11   2   1 184.214 128.106  18
  11   2  -1 243.152 182.300  18
 -11  -2   1-107.702 209.130   4
  11  -2   1 137.265 124.800   1
  11   2   1 438.099 286.688   8
  11   2  -1 42.4848 43.0197   8
 -11  -2  -1 59.3517 129.787  17
 -11  -2   1-7.91312 78.6193  17
 -11   2  -1 100.193 67.9638   2
  11   2   1 24.0754 98.4715   1
  11  -2   1 90.2356 102.156   8
 -11   2  -1 115.429 146.253   4
  11  -2  -1 100.946 96.3556   8
 -11   2   1 90.3567 125.014   4
 -11   2   1 68.1604 76.4976   2
  11   2  -1 144.921 195.118   1
  11  -2  -1 3.70312 81.8323   1
  11   2   1 335.564 338.323  14
  11   2  -1-103.249 191.988  14
  11  -2   1 110.852 128.036  14
  11  -2  -1 10.9588 75.2614  14
  11  -2   2 94.4829 79.7704   6
  11  -2  -2 57.2532 135.255   1
  11  -2  -2 1.28582 45.9320   6
 -11  -2   2 124.779 122.839  12
 -11   2  -2 58.5391 132.489  12
  11   2  -2 275.794 215.327  11
 -11  -2   2 23.3463 58.5968   5
 -11   2  -2 135.847 110.927   5
 -11  -2   2 52.6605 177.318   2
 -11   2   2 105.701 115.700   5
 -11  -2  -2-70.8336 57.5307  19
 -11  -2   2 28.7272 110.375  19
 -11   2  -2 69.4015 113.504  19
  11   2  -2 182.810 193.235   9
 -11   2   2 43.8130 115.676  19
  11  -2   2 16.1710 39.6090   1
  11   2   2-5.00479 35.6051  18
  11   2  -2 42.7851 106.900  18
 -11   2  -2 24.3350 60.0036   2
 -11  -2   2 20.9594 72.1013   4
  11   2   2 16.4667 68.1259   8
  11   2   2 119.877 162.586   1
 -11  -2  -2 122.968 118.234  17
  11   2  -2 12.1080 6.51210   8
 -11  -2   2-53.4874 65.3477  17
  11  -2   2-18.8390 50.8375   8
 -11   2  -2 42.7425 103.116   4
  11  -2  -2-30.1225 66.4804   8
 -11   2   2 109.577 155.289   4
 -11   2   2 60.2882 84.5210   2
  11   2  -2 30.8193 87.2098   1
  11   2   2 12.9187 127.912  14
  11   2  -2-78.0243 77.1073  14
  11  -2   2-55.4578 76.9054  14
  11  -2  -2-41.0142 21.6768  14
  11  -2   3 148.670 129.936   6
  11  -2  -3 77.8796 75.1935   6
 -11   2  -3-29.8592 132.741  12
 -11  -2   3-169.509 156.582  12
  11  -2  -3 51.9647 107.073   1
  11   2  -3 0.49851 84.5369  11
 -11  -2   3 171.060 220.136   5
 -11   2  -3 539.540 266.490  20
 -11   2  -3-70.4632 138.060   5
 -11  -2  -3 136.706 154.193  19
  11  -2   3-16.0768 77.2270   1
 -11   2   3 99.2195 115.547   5
 -11  -2   3 66.6556 76.7673  19
 -11  -2   3 20.7799 14.8839   2
 -11   2  -3 133.521 98.1409  19
 -11   2  -3 115.188 96.9594   2
 -11   2   3 72.1267 101.582  19
  11   2  -3 252.954 223.810   9
  11   2   3 89.5925 68.0648  18
  11   2  -3 82.6677 87.4085  18
  11   2   3 138.894 137.025   1
 -11  -2   3-68.5677 83.3357   4
  11   2   3 164.728 173.432   8
 -11  -2  -3-41.0392 16.6748  17
  11   2  -3-3.40851 52.8908   8
 -11  -2   3-78.6377 53.9178  17
 -11   2  -3 23.2044 118.478   4
  11  -2   3 1.90745 79.8532   8
  11  -2  -3 52.2869 95.7486   8
 -11   2   3 21.7146 111.057   4
  11   2   3 71.8201 60.7738  16
 -11   2   3 81.7495 89.0681   2
  11   2   3 186.384 280.624  14
  11   2  -3 147.937 197.643  14
 -11   2  -3-250.842 327.536   3
  11  -2   3 28.3317 76.1586  14
  11  -2  -3 122.542 134.997  14
  11   2  -3 79.7154 126.053   1
  11  -2   4 83.3628 99.4901   6
  11   2  -4 40.4701 109.247   1
  11   2  -4 230.553 173.457  13
  11  -2  -4 77.8177 91.1868   6
 -11   2  -4 171.764 209.839  12
 -11  -2   4-491.222 429.756  12
  11  -2   4 71.7724 44.6879   1
  11   2  -4 112.864 126.843  11
 -11  -2   4 15.3070 82.7795   5
  11  -2  -4 129.801 146.514   1
 -11   2  -4 119.691 148.462   5
 -11   2  -4 350.989 265.623  20
 -11  -2  -4-56.7883 73.0882  19
 -11   2   4-149.652 185.134   5
 -11  -2   4 139.361 117.296  19
 -11   2  -4 27.4559 23.4911  19
 -11   2   4 108.820 68.6391  19
  11   2  -4 43.0806 199.362   9
  11   2   4-203.205 248.329   1
 -11  -2   4 167.068 142.487   2
  11   2   4 159.963 150.540  18
  11   2  -4 113.849 138.417  18
 -11  -2   4-81.9698 178.939   4
  11   2   4 40.3043 120.701   8
 -11  -2  -4 73.1902 133.825  17
 -11  -2   4 72.7607 62.0608  17
 -11   2  -4-27.9500 64.4463   4
  11   2  -4 55.7068 120.659   8
  11  -2   4 102.880 133.318   8
  11  -2  -4 83.2433 105.696   8
 -11   2   4 204.799 176.788   4
  11   2   4 88.9906 69.4812  16
 -11   2   4 26.6758 73.6849   2
  11   2  -4 146.388 276.140  14
  11  -2   4 165.558 165.583  14
 -11   2  -4-134.705 195.226   3
  11  -2  -4-47.9854 97.8851  14
 -11   2  -5 74.3817 82.0599   3
  11   2  -5 1065.58 314.863  13
  11   2  -5 1253.46 470.591   1
  11  -2   5 1369.34 405.868   1
 -11   2  -5 524.630 295.061  12
  11   2  -5 2009.18 602.527  11
 -11  -2   5 659.979 357.555   5
 -11   2  -5 631.299 289.877   5
 -11   2  -5 678.284 252.055  20
 -11   2   5 1105.91 379.233  19
 -11  -2  -5 56.9146 67.5941  19
 -11   2   5 1470.21 449.477   5
 -11  -2   5 635.099 286.867  19
 -11   2  -5 541.676 283.582  19
  11  -2  -5 762.866 358.719   1
  11   2  -5 467.205 136.439   9
  11   2   5 1206.42 354.135  18
  11   2  -5 1393.74 379.543   8
 -11  -2   5 535.232 265.443   2
 -11   2   5 1253.70 416.032   4
  11   2  -5 1452.46 484.093  18
 -11  -2   5 524.259 242.845   4
  11   2   5 1191.07 449.639   8
 -11   2  -5 603.883 292.394   4
 -11  -2   5 348.811 249.100  17
  11  -2   5 1110.17 374.133   8
  11   2   5 1085.24 296.560  16
  11  -2  -5 261.108 105.166   8
 -11   2  -5 735.441 350.721   7
  11  -2   5 1310.99 374.119   6
  11  -2  -5 1027.87 295.410   6
 -11   2  -5 722.759 297.731  15
  11   2  -5 1013.36 500.240  14
 -11   2   5 1046.76 326.737   2
  11  -2   5 1054.57 377.527  14
  11  -2  -5 860.806 364.470  14
  11  -2  -6 47.9821 53.2765  14
 -11   2   6 106.011 111.890   2
  11  -2   6-41.0153 78.9553   6
  11  -2   6-33.9542 83.2046   1
 -11   2  -6 44.3572 82.7642   3
  11   2  -6 58.2132 45.8707  13
  11  -2  -6-7.45381 55.2483   6
  11   2  -6 82.5673 147.689   1
 -11   2  -6-74.2031 144.107  12
  11   2  -6 100.081 340.986  11
 -11   2  -6 6.23221 55.4031   5
 -11  -2   6-14.8787 141.622   5
 -11   2  -6-1050.09 509.476  20
 -11  -2  -6-47.3969 168.530  19
 -11   2  -6-10.4176 86.7257  19
 -11   2   6 162.020 193.033   5
 -11  -2   6 9.32246 118.955  19
 -11   2   6 78.4545 60.8157  19
  11   2  -6 1193.39 769.019   9
  11   2   6 6.76648 23.3408  18
  11   2  -6 280.050 319.095  18
 -11  -2   6-14.2841 104.297   2
  11  -2  -6 197.725 188.782   1
  11   2   6 104.014 187.302   8
 -11  -2   6 71.4781 137.643   4
 -11  -2  -6 84.5172 76.3959  17
 -11   2  -6-0.31461 119.192   4
  11  -2   6-35.2999 123.583   8
 -11  -2   6 366.946 289.580  17
  11   2  -6 18.0903 33.9349   8
 -11   2   6 26.6593 89.0575   4
  11   2   6-3.15977 29.8907  16
 -11   2  -6 11.0343 50.5976   7
 -11   2  -6-8.67921 89.3051  15
  11   2  -6 57.6525 281.426  14
  11  -2   6 48.0535 56.5027  14
  11  -2  -7 685.038 319.782  14
  11   2  -7 1203.21 307.013  13
 -11   2  -7 338.172 554.424   3
 -11   2  -7 643.351 471.159  12
 -11   2   7 1710.42 510.184   5
  11   2  -7 1095.52 454.627   1
  11   2  -7 1788.31 592.411  11
 -11   2  -7 772.120 485.241   5
 -11  -2   7 644.217 275.193   5
 -11   2  -7 3207.34 1186.17  20
 -11   2   7 1517.49 505.759   2
 -11  -2  -7 212.686 208.445  19
 -11   2  -7 1024.63 456.193  19
 -11  -2   7 748.870 331.205  19
 -11   2   7 1059.56 356.003  19
  11   2   7 1325.00 376.215  18
  11   2  -7-546.081 847.005   9
  11  -2   7 1390.57 465.224   8
  11   2  -7 1639.82 411.204   8
  11   2  -7 1271.80 459.604  18
 -11  -2   7 760.571 299.310   2
  11   2   7 1120.64 477.681   8
 -11  -2  -7 173.028 193.729  17
 -11   2  -7 650.205 398.831   4
 -11  -2   7 670.291 299.585   4
 -11  -2   7 366.608 298.390  17
  11  -2  -7 688.966 359.438   1
 -11   2   7 1249.63 410.711   4
 -11   2  -7 620.436 473.955   7
  11   2   7 1410.72 402.979  16
 -11   2  -7 1065.19 389.439  15
  11   2  -7 1121.50 541.087  14
  11  -2   7 1239.76 484.906  14
  11  -2  -8-100.933 240.159  14
 -11   2   8 38.6028 22.2484   2
  11   2  -8 77.7543 110.410  13
  11   2  -8 172.252 226.148  11
  11   2  -8-105.979 205.360   1
 -11  -2   8 19.6283 111.867   5
 -11  -2  -8-34.2908 160.226  19
 -11  -2   8 73.1912 135.031  19
 -11   2   8 48.3157 109.371   5
  11   2  -8-2118.00 1248.35   9
 -11   2  -8 2932.56 730.360   4
  11   2   8 71.8802 102.382  18
  11  -2   8 5534.68 919.916   8
  11   2  -8 185.949 224.495  18
  11   2   8-4.44347 78.2183   8
 -11  -2  -8 187.380 212.892  17
 -11  -2   8 39.5408 23.2278   2
 -11  -2   8 49.7243 111.166   4
 -11  -2   8-21.6157 72.2114  17
  11   2  -8-34.6948 130.241   8
 -11   2  -8 1794.29 617.653   7
 -11   2   8-29.2157 72.2371   4
  11  -2  -8 56.1094 170.606   1
  11   2   8 80.1029 106.309  16
  11  -2   8 4221.62 820.954   6
 -11   2  -8 1413.05 646.495  15
 -11   2  -8 1953.45 731.706   3
  11   2  -8 149.438 94.0570  14
  11  -2  -9 297.185 251.814  14
 -11   2   9 951.087 496.842   2
  11   2  -9 692.725 282.786  13
 -11   2  -9-37.9876 369.603  12
 -11   2  -9-166.989 144.733   3
 -11   2  -9 622.885 548.101   5
  11   2  -9 646.723 376.819  11
 -11  -2   9 601.378 330.180   5
  11   2  -9 216.778 203.065   1
 -11  -2  -9-6.68465 83.9507  19
 -11   2  -9 706.853 493.934  19
 -11  -2   9 275.804 200.532  19
 -11   2   9 828.083 427.036   5
  11   2  -9-1745.33 1249.84   9
  11   2   9 305.723 127.310  18
  11   2  -9 672.836 376.909  18
 -11   2  -9-190.052 179.068   4
  11   2   9 593.293 347.846   8
 -11  -2  -9 107.962 113.898  17
 -11  -2   9 415.033 255.763   2
 -11  -2   9 375.497 239.869   4
 -11  -2   9 429.433 270.985  17
  11  -2   9 848.984 804.776  16
  11   2  -9 1083.58 447.816   8
 -11   2  -9 512.591 474.666   7
 -11   2   9 801.805 355.727   4
  11   2   9 770.483 328.478  16
 -11   2  -9 701.556 498.605  15
  11  -2   9 1687.66 641.267  14
  11   2  -9 550.237 496.092  14
  11  -2  -9 317.399 308.438   1
  11  -2   9 1159.00 468.598   6
  11  -2 -10 444.364 385.275  14
  11  -2 -10 406.425 425.065   1
 -11   2 -10 84.6857 229.563  12
 -11   2 -10-11.6971 88.6288   3
  11   2 -10 222.911 306.538  11
 -11  -2  10 88.5239 173.756   5
 -11  -2 -10 174.790 225.768  19
  11   2 -10 44.2275 45.8540   1
 -11   2 -10-202.674 183.967  19
 -11  -2  10-5.03303 112.681  19
 -11   2  10 269.594 303.746   5
  11  -2  10 546.639 414.728   1
  11   2 -10 133.008 279.345  18
 -11   2 -10 29.6621 208.554   4
  11   2  10 305.733 277.395   8
 -11  -2  10-83.9024 120.096   4
  11  -2  10 292.545 232.570   8
 -11  -2  10 99.8126 123.474   2
 -11  -2  10 123.128 115.483  17
  11   2 -10-289.137 526.856   8
  11  -2  10 5.83960 144.838  16
 -11   2 -10 110.358 222.781   7
  11   2  10 193.268 208.420  16
 -11   2 -10-75.9800 171.113  15
  11  -2  10 138.721 217.822  14
  11   2 -10 137.358 326.017  14
  11  -2  10 11.7204 102.552   6
 -11   3   0 1372.88 409.584   5
 -11   3   0 1111.63 238.948   2
  11  -3   0 1276.93 401.189   1
 -11   3   0 1252.50 403.305  19
 -11  -3   0-117.279 262.931  19
  11   3   0 1851.61 498.377  18
  11   3   0 1626.04 502.247   8
  11  -3   0 1085.19 385.766   8
  11   3   0 1195.91 520.478   1
 -11  -3   0 53.9522 164.244  17
 -11   3   0 1099.45 376.875   4
  11  -3   0 1073.60 320.332   6
  11  -3   0 1094.50 398.150  14
  11  -3   1 75.8562 42.5740   1
  11  -3   1 23.2993 50.3371   6
  11  -3  -1 76.1331 55.8949   6
 -11   3  -1-267.455 489.489  12
  11  -3  -1-2.85140 41.1456   1
 -11   3  -1 138.383 156.936   5
 -11  -3  -1 45.2633 127.081  19
 -11  -3   1-104.001 189.338  19
 -11   3   1-34.7739 94.3414   5
 -11   3  -1 94.3504 77.2319  19
 -11   3   1 30.9766 111.253  19
  11   3   1-63.9158 143.301  18
  11   3  -1-19.4469 33.0399  18
  11   3   1 48.6061 162.437   1
  11   3   1-6.53917 118.142   8
  11   3  -1 142.141 104.047   8
 -11  -3  -1 70.3530 153.718  17
 -11  -3   1-114.509 167.658  17
  11   3  -1 142.443 108.729   1
  11  -3   1-49.4004 131.081   8
  11  -3  -1 10.6618 52.3242   8
 -11   3  -1-17.6240 63.9238   4
 -11   3   1 35.4087 65.4467   4
 -11   3  -1 31.0590 47.0914   2
 -11   3   1 12.4534 16.5939   2
  11  -3   1-35.2528 115.893  14
  11  -3  -1 6.23651 75.5201  14
  11  -3  -2 279.680 212.211  14
 -11   3   2 358.564 161.684   2
  11  -3   2 381.905 189.884   6
  11  -3  -2 357.657 210.334   6
 -11  -3   2 193.905 130.223  12
 -11   3  -2 500.093 301.605  12
 -11   3  -2 282.141 174.030   5
 -11  -3  -2 119.765 161.140  19
 -11  -3   2 94.7454 96.1199  19
 -11   3   2 452.833 267.981   5
 -11   3  -2 294.789 166.806  19
 -11   3   2 476.000 246.942  19
  11   3   2 132.954 214.288   1
  11   3   2 375.863 233.619  18
  11   3  -2 398.653 263.938  18
  11  -3  -2 395.127 241.173   1
  11   3   2 460.322 277.788   8
 -11  -3  -2-120.037 163.537  17
  11   3  -2 432.218 212.845   8
 -11  -3   2-8.76279 127.882  17
  11  -3   2 391.709 200.630   8
  11   3  -2 292.298 241.318   1
 -11   3  -2 257.971 173.294   4
  11  -3  -2 261.774 194.737   8
 -11   3  -2 325.866 109.211   2
 -11   3   2 216.879 171.900   4
  11  -3   2 388.119 212.759   1
  11   3  -2 378.367 344.533  14
  11  -3   2 301.034 187.818  14
  11  -3  -3 142.085 137.467  14
 -11   3   3 249.458 176.101   2
  11  -3   3 61.9390 73.3418   6
  11  -3  -3 159.707 155.426   6
 -11  -3   3-19.6894 33.5766  12
 -11   3  -3 145.328 193.076  12
  11   3  -3 215.551 174.522  11
 -11  -3   3-65.3907 263.317   5
 -11   3  -3 154.620 148.060   5
 -11  -3  -3 2.83567 96.2358  19
 -11  -3   3-9.24409 50.2225  19
 -11   3   3 256.717 229.405   5
 -11   3  -3 77.7727 120.957  19
 -11   3   3 156.448 157.961  19
  11   3   3 132.108 116.683  18
  11   3  -3 202.529 167.807  18
  11   3   3 96.6236 61.3002   8
 -11  -3  -3-235.242 259.380  17
  11   3  -3 132.294 88.4847   8
 -11  -3   3 145.519 180.836  17
  11  -3  -3 140.093 146.911   1
  11  -3   3 49.7220 18.4186   1
  11  -3   3 237.537 189.623   8
 -11   3  -3 85.4737 51.8186   4
  11  -3  -3-156.424 333.085   8
  11   3  -3 126.699 212.230   1
 -11   3   3 202.975 182.618   4
  11   3   3 324.546 247.283  16
  11   3  -3 62.3383 264.905  14
  11  -3   3 102.816 120.453  14
  11  -3  -4 115.053 167.950  14
  11  -3   4 13.8637 62.7657   6
 -11   3   4 199.111 209.347   2
  11  -3  -4 126.757 189.083   6
 -11   3  -4 28.0384 72.6129  12
  11   3  -4 233.703 211.694  11
 -11  -3   4-98.2689 231.448   5
 -11   3  -4 111.268 135.640   5
  11   3  -4 417.789 336.137  10
 -11  -3  -4 96.4391 198.595  19
 -11  -3   4-128.383 191.119   2
 -11  -3   4 165.122 180.231  19
 -11   3  -4-47.0566 91.1206  19
 -11   3   4 110.511 157.642   5
 -11   3   4 30.4107 88.6582  19
  11   3   4-69.4267 37.0129  18
  11   3  -4 110.060 112.858  18
  11  -3   4 31.3486 56.4391   1
  11   3   4 124.608 205.116   8
 -11  -3  -4-88.6826 113.427  17
  11   3  -4 107.763 90.2384   8
 -11  -3   4-193.354 238.490  17
  11  -3   4 219.256 152.119   8
 -11   3  -4 162.618 150.610   4
 -11   3   4-15.5547 102.914   4
  11   3   4 92.6291 157.372  16
  11   3  -4 102.941 138.642   1
  11  -3  -4 63.8749 51.5880   1
  11   3  -4 59.3606 50.4462  14
  11  -3   4 86.9902 91.3627  14
  11  -3  -5 254.690 225.742  14
  11  -3   5 267.885 180.740   6
  11   3  -5 239.161 144.558  13
  11  -3  -5 177.111 173.783   1
 -11   3   5 98.9447 227.696   2
 -11   3  -5 158.011 152.911  12
  11   3  -5 208.217 226.337  11
 -11  -3   5-23.9990 111.934   5
 -11   3  -5 72.7567 8.93308  20
 -11   3  -5 185.206 191.843   5
  11   3  -5 211.833 65.4388  10
 -11  -3  -5 91.4918 184.188  19
  11  -3   5 112.839 96.9563   1
 -11  -3   5-47.5613 163.871  19
  11   3  -5 682.730 396.302   9
 -11  -3   5 30.8424 130.354   2
 -11   3  -5 150.724 109.888  19
 -11   3   5 355.116 256.711   5
 -11   3   5 82.6320 192.391  19
  11   3   5 201.569 176.892  18
  11   3  -5 288.334 219.799  18
 -11  -3   5-460.929 453.628   4
  11   3   5 287.791 269.380   8
 -11  -3  -5 55.2662 137.540  17
 -11  -3   5-92.7038 112.581  17
  11   3  -5 309.317 192.705   8
 -11   3  -5 191.052 153.688   4
  11  -3   5 216.229 123.792   8
 -11   3   5 274.171 167.929   4
  11   3  -5 49.8367 101.259   1
  11   3  -5 82.9792 165.095  14
 -11   3  -5-147.683 342.515   3
  11  -3   5 127.859 87.4830  14
  11  -3  -6 384.483 299.003  14
 -11   3  -6 117.873 344.014   3
  11  -3   6 592.139 285.107   6
  11   3  -6 244.720 170.890  13
 -11   3  -6 250.042 298.432  12
  11  -3   6 764.150 354.605   1
  11   3  -6 775.985 421.190  11
  11  -3  -6 187.705 214.545   1
 -11  -3   6 234.511 236.196   5
 -11   3  -6 196.879 101.829  20
 -11   3  -6 112.049 170.662   5
 -11  -3  -6 188.783 287.130  19
  11   3  -6 739.351 507.732  10
 -11  -3   6 214.842 215.598  19
  11   3  -6 1162.54 492.283   9
 -11   3  -6 183.488 204.704  19
 -11   3   6 539.138 321.584   5
 -11  -3   6 204.354 204.073   2
  11   3   6 407.349 228.285  18
  11   3  -6 656.919 330.695  18
 -11  -3   6-364.770 402.062   4
  11   3   6 268.582 218.890   8
 -11  -3  -6-13.9074 127.985  17
 -11  -3   6 191.043 243.766  17
  11   3  -6 436.239 207.323   8
 -11   3  -6 219.581 161.389   4
  11  -3   6 378.735 217.907   8
 -11   3   6 508.866 272.064   4
  11   3  -6 426.982 430.516  14
  11   3  -6 406.762 297.371   1
  11  -3   6 444.791 287.976  14
  11   3  -7 139.628 286.179   1
 -11   3  -7 1719.77 702.250   3
  11   3  -7 329.226 212.174  13
  11   3  -7 662.095 378.826  11
 -11  -3   7 143.759 258.408   5
 -11   3  -7 1047.19 439.869   5
 -11   3  -7 1748.41 538.552  20
 -11  -3  -7 140.379 206.635  19
  11   3  -7-77.1384 379.898  10
 -11  -3   7 85.5542 75.9476  19
 -11   3  -7 767.964 382.772  19
  11   3  -7 187.702 464.563   9
  11   3   7 51.0369 171.801  18
 -11  -3   7 149.045 157.388   2
  11   3  -7 127.732 176.404  18
 -11  -3   7 24.7420 119.156   4
  11   3   7 179.777 146.620   8
 -11  -3  -7 113.555 170.949  17
 -11   3  -7 506.795 377.124   4
 -11  -3   7 133.061 233.875  17
  11   3  -7 194.586 120.935   8
  11  -3   7 1715.39 513.029   6
 -11   3  -7-222.867 321.879  15
  11  -3   7 1516.59 492.290  14
  11   3  -7 27.0073 165.273  14
  11  -3   8 835.443 502.479   1
  11  -3   8 590.065 326.091   6
  11   3  -8 320.774 276.901   1
 -11   3  -8 70.8049 524.231   3
  11   3  -8 95.4033 85.7824  13
 -11   3  -8 658.589 521.443  12
  11   3  -8 608.571 389.890  11
 -11  -3   8 144.643 202.889   5
 -11   3  -8 249.109 301.037   5
 -11   3  -8 1461.72 557.198  20
 -11  -3  -8 157.147 229.699  19
  11   3  -8-938.066 533.549  10
 -11   3  -8 236.861 273.025  19
 -11  -3   8 44.7764 67.7239  19
  11   3  -8 1436.97 631.244   9
 -11  -3   8 64.3413 60.1334   2
  11   3  -8 176.275 249.755  18
  11   3   8 224.792 208.052   8
 -11  -3   8-119.883 212.185   4
 -11   3  -8 5.46409 218.936   4
 -11  -3   8-84.6506 151.143  17
  11  -3   8 692.669 365.541   8
  11   3  -8 387.792 219.024   8
 -11   3  -8-612.755 311.344   7
 -11   3  -8-170.752 281.988  15
  11   3  -8 270.480 308.916  14
  11  -3   8 363.366 335.294  14
  11  -3   9-23.1662 29.8222   6
  11   3  -9 52.5445 78.7240  13
 -11   3  -9-89.2754 22.8051   3
  11   3  -9 125.933 253.314   1
 -11   3  -9-305.717 223.800  12
  11   3  -9 59.6683 177.124  11
 -11   3  -9 132.989 186.632   5
 -11  -3   9-13.9095 82.3257   5
 -11   3  -9 90.8031 122.276  20
 -11  -3  -9-36.4178 291.890  19
 -11   3  -9 118.258 167.291  19
 -11  -3   9 15.7160 87.8784  19
  11   3  -9-429.627 337.474   9
  11   3  -9 33.6873 117.416  18
 -11  -3   9 21.7301 92.9716   2
  11   3   9-104.617 103.616   8
 -11  -3   9-161.390 287.982   4
 -11   3  -9-92.7576 34.5324   4
 -11  -3   9 41.9865 150.188  17
  11  -3   9-14.6488 67.3288   8
  11   3  -9 17.2688 47.6311   8
 -11   3  -9 121.977 103.652   7
  11  -3   9-133.807 152.215   1
 -11   3  -9 41.2477 161.141  15
  11   3  -9 219.304 404.392  14
  11  -3   9-62.2847 97.3204  14
  11  -4   0 139.415 181.657  14
 -11   4   0 186.617 121.823   2
  11  -4   0 131.274 113.723   6
 -11  -4   0 40.5929 232.573  19
 -11   4   0 166.397 160.784   5
  11   4   0 209.875 229.307   1
 -11   4   0 394.567 239.425  19
  11   4   0 180.087 141.793  18
  11   4   0 171.586 179.357   8
 -11  -4   0 120.274 192.577  17
  11  -4   0 103.745 146.397   1
  11  -4   0 246.867 153.375   8
 -11   4   0 149.775 161.917   4
  11  -4   1 1006.98 381.854  14
  11  -4  -1 774.431 322.431  14
  11  -4  -1 1007.36 416.849   6
 -11   4  -1 1736.89 452.113   5
 -11   4   1 1702.50 483.898   5
 -11   4  -1 1408.98 290.297   2
 -11   4   1 2142.17 533.684   2
 -11   4  -1 1383.46 424.225  19
 -11   4   1 1496.06 450.967  19
  11   4   1 1666.80 502.144  18
  11   4  -1 1075.95 500.582   1
  11  -4   1 1168.44 384.123   1
  11   4  -1 1591.83 461.402  18
  11  -4   1 1334.19 442.336   8
 -11   4   1 1534.71 466.897   4
  11   4   1 1150.90 449.753   8
  11   4  -1 1490.98 491.423   8
  11  -4  -1 675.348 247.150   8
 -11   4  -1 1390.66 418.478   4
  11  -4   1 1316.07 420.773   6
  11  -4  -1 962.026 376.932   1
  11  -4  -2 74.0406 146.273  14
  11  -4   2 229.082 134.398   6
  11  -4  -2 228.780 276.731   6
  11  -4  -2 92.2135 140.914   1
 -11   4  -2-812.846 752.463  12
  11  -4   2 215.415 197.219   1
 -11  -4  -2 119.856 207.867  19
 -11  -4   2 70.5790 133.652  19
 -11   4  -2 4.36618 139.371   5
 -11   4   2 146.384 156.961   5
 -11   4  -2 50.1692 77.8992  19
 -11   4   2 8.48198 46.6809  19
  11   4   2 124.452 179.425  18
  11   4  -2 120.586 207.835  18
  11   4  -2-17.8834 137.330   1
  11   4   2 248.119 245.028   8
  11   4  -2 59.2122 102.263   8
 -11  -4  -2 139.383 175.500  17
 -11  -4   2-50.0732 20.4658  17
  11  -4   2 92.5885 135.271   8
  11  -4  -2-446.177 598.236   8
 -11   4  -2 55.8949 23.9999   4
 -11   4   2 157.208 139.309   4
  11  -4   2 74.4334 129.494  14
  11  -4  -3 221.500 208.798  14
  11  -4   3 161.873 127.644   6
  11  -4   3 260.258 175.946   1
 -11   4  -3 218.172 261.474  12
 -11  -4  -3 33.9157 104.636  19
 -11   4  -3 325.544 207.872   5
 -11  -4   3 1.97062 187.337  19
  11  -4  -3 376.288 289.744   1
 -11   4  -3 234.747 159.032  19
 -11   4   3 467.247 273.496   5
 -11   4   3-31.1100 232.130  19
  11   4   3 252.232 207.118  18
  11   4  -3 351.438 256.988  18
  11   4   3 138.795 179.249   8
 -11  -4  -3 6.86366 15.0796  17
  11   4  -3 132.191 224.174   1
  11   4  -3 332.545 260.875   8
 -11  -4   3 61.7757 82.7999  17
  11  -4   3 191.292 133.925   8
 -11   4  -3 262.064 205.210   4
 -11   4   3 267.678 190.233   4
  11  -4   3 201.601 171.047  14
  11  -4   4 248.028 161.122   6
 -11   4  -4 487.078 324.422  12
 -11  -4  -4-223.129 331.303  19
 -11   4  -4 411.486 238.202   5
 -11  -4   4 30.0925 59.7737  19
 -11   4  -4 237.434 169.840  19
  11   4   4 326.247 180.510  18
  11   4  -4 408.123 261.218  18
  11   4   4 311.821 254.964   8
 -11  -4  -4-163.454 199.278  17
  11   4  -4 479.530 239.468   8
 -11  -4   4 89.5580 127.378  17
  11   4  -4 278.406 219.057   1
  11  -4   4 274.861 173.429   8
 -11   4  -4 333.425 223.037   4
  11  -4   4 317.472 196.522   1
  11  -4   4 415.210 220.615  14
  11  -4   5 44.8567 9.81423   6
 -11   4  -5 235.967 255.253  12
  11   4  -5 124.619 37.1036  11
 -11   4  -5 112.497 96.4461   5
 -11  -4  -5 108.070 93.3312  19
 -11  -4   5 1.21544 69.6621  19
 -11   4  -5 75.7429 100.117  19
  11   4   5-140.173 272.267  18
  11   4  -5 91.0778 146.351  18
  11   4   5 14.2894 181.027   8
 -11  -4  -5 92.2674 176.773  17
  11   4  -5 259.916 230.297   8
 -11  -4   5 120.547 174.846  17
  11  -4   5 112.054 149.758   8
  11   4  -5 179.900 254.694   1
  11  -4   5 5.61911 49.9744   1
 -11   4  -5 51.8244 54.6426   4
  11  -4   5 33.8663 59.9973  14
  11   4  -6-199.054 338.124  13
  11  -4   6 410.272 212.998   6
 -11   4  -6 94.3650 98.8274  12
  11   4  -6 704.909 323.567  11
  11   4  -6 800.046 388.892  10
 -11   4  -6 300.225 182.080   5
 -11  -4  -6 59.0668 146.733  19
 -11  -4   6-172.693 253.997   2
 -11  -4   6 278.807 289.980  19
 -11   4  -6 321.285 244.166  19
  11   4  -6 753.099 363.271  18
  11  -4   6 436.667 233.467   1
  11   4   6 438.632 338.231   8
 -11  -4   6 20.3422 83.3365  17
  11   4  -6 410.439 201.416   8
  11  -4   6 463.171 233.316   8
 -11   4  -6 215.120 162.153   4
  11   4  -6 269.907 292.980   1
 -11   4  -6-94.2548 326.777   3
  11  -4   6 409.390 228.738  14
  11  -4   7-104.649 132.735   6
  11   4  -7 45.3012 88.8548  13
 -11   4  -7 104.032 168.362  12
  11   4  -7 91.6394 72.6750  11
 -11  -4   7-91.0816 289.448   5
 -11   4  -7-710.767 336.722  20
 -11   4  -7 2.37956 82.2676   5
  11   4  -7 292.571 247.136  10
  11  -4   7-87.3515 96.6923   1
 -11  -4   7-194.819 219.683  19
 -11  -4   7-45.2484 142.802   2
 -11   4  -7 60.0122 80.6642  19
  11   4  -7 101.597 87.3665  18
 -11  -4   7-27.3683 35.1802  17
  11   4  -7 40.3363 78.1701   8
 -11   4  -7 71.7726 138.424   4
  11  -4   7 115.307 133.747   8
  11   4  -7 117.415 174.431   1
  11  -4   7 2.73494 16.0242  14
 -11   4  -7 67.8622 137.472   3
 -11   4  -8 77.5496 311.213   3
  11  -4   8 371.118 195.324   6
  11   4  -8 265.798 178.966  13
 -11   4  -8 108.369 134.663  12
  11  -4   8 361.570 230.980   1
  11   4  -8 565.055 392.965  11
 -11  -4   8-113.893 96.2314   5
 -11   4  -8 50.6389 68.7136  20
 -11   4  -8 81.6285 96.4292   5
  11   4  -8 605.898 359.333  10
  11   4  -8 1136.40 532.039   9
 -11  -4   8 172.003 123.191  19
 -11   4  -8 136.629 112.995  19
 -11  -4   8 35.9920 124.815   2
  11   4  -8 333.946 212.346  18
 -11  -4   8 74.9903 126.987  17
 -11   4  -8 234.303 201.538   4
  11   4  -8 353.115 188.953   8
  11  -4   8 232.441 175.883   8
  11   4  -8 200.762 209.345   1
  11  -4   8 97.4885 104.141  14
  11  -5   0 542.381 320.399  14
 -11   5   0 1299.62 503.781   5
 -11  -5   0 46.6676 253.079  19
  11  -5   0 527.274 308.200   1
 -11   5   0 681.134 319.071  19
  11   5   0 454.427 211.476  18
 -11   5   0 1317.39 543.270   4
  11   5   0 467.581 266.842   8
 -11  -5   0 4.76760 109.114  17
  11  -5   0 50.6705 447.854   8
  11  -5   1 151.741 176.347  14
  11  -5   1 354.706 249.635   1
  11  -5   1 644.641 401.883   6
 -11   5  -1 1168.40 461.862   5
 -11  -5  -1 297.897 279.411  19
 -11  -5   1-63.2516 213.364  19
 -11   5  -1 515.963 315.070  19
  11   5   1 399.740 225.874  18
  11   5  -1 482.717 317.770  18
 -11   5  -1 1270.33 535.339   4
  11   5   1 208.123 186.791   8
  11   5  -1 324.217 208.625   8
 -11  -5  -1 48.3116 64.9587  17
 -11  -5   1 125.818 225.504  17
  11  -5   1-42.1477 296.229   8
  11  -5   2 629.906 314.989  14
  11  -5   2 873.942 381.413   6
 -11  -5  -2 227.533 284.258  19
 -11  -5   2 154.686 232.814  19
 -11   5  -2 907.799 362.229   5
 -11   5  -2 938.612 359.893  19
  11   5   2 629.222 277.137  18
  11   5  -2 977.831 373.435  18
  11   5   2 291.218 214.560   8
  11   5  -2 1010.98 398.894   8
 -11  -5  -2 40.4367 112.307  17
 -11  -5   2-136.475 179.361  17
  11  -5   2 451.074 271.397   8
 -11   5  -2 1226.84 431.973   4
  11  -5   2 514.666 275.511   1
  11  -5   3 337.146 237.520  14
  11  -5   3 306.350 195.655   6
 -11  -5  -3-225.311 323.171  19
 -11  -5   3-89.2059 195.903  19
 -11   5  -3 463.762 263.984   5
 -11   5  -3 423.577 246.908  19
  11   5  -3 167.140 157.770   1
  11   5  -3 583.826 299.865  18
  11   5   3 227.180 206.812   8
  11  -5   3 396.436 236.311   1
  11   5  -3 481.155 218.274   8
 -11  -5   3 165.593 206.499  17
  11  -5   3 380.041 268.527   8
 -11   5  -3 540.948 300.535   4
  11  -5   4-54.2952 75.7139  14
  11  -5   4 139.212 158.001   6
 -11   5  -4-516.531 369.078  12
  11  -5   4 33.5627 115.559   1
 -11  -5   4-155.379 231.671  19
 -11   5  -4-187.640 183.907   5
 -11   5  -4 48.5109 101.435  19
  11   5  -4-47.2439 179.694   1
  11   5  -4 25.0531 80.2413  18
  11   5  -4 50.8120 116.121   8
 -11  -5   4 38.7838 133.291  17
  11  -5   4-68.1595 93.1041   8
 -11   5  -4 39.0931 79.5612   4
  11  -5   5 249.732 206.264   6
  11  -5   5 448.807 220.155   1
 -11   5  -5 302.487 300.290  12
 -11   5  -5 304.668 180.691   5
 -11  -5   5-106.731 262.392  19
 -11   5  -5 511.840 260.255  19
  11   5  -5 558.238 350.574  18
  11   5  -5 390.298 394.447   1
  11   5  -5 499.888 264.684   8
 -11  -5   5 10.4466 155.470  17
  11  -5   5 457.294 238.571   8
 -11   5  -5 610.484 313.334   4
  11  -5   5 307.324 160.320  14
  11  -5   6 23.8392 77.5749   6
 -11   5  -6 115.417 185.271  12
 -11   5  -6 157.905 186.490   5
 -11  -5   6-42.4781 154.445  19
 -11   5  -6 102.165 138.225  19
  11   5  -6 71.5178 159.615  18
  11   5  -6 19.9460 75.9566   1
  11   5  -6 83.8418 104.229   8
 -11  -5   6-22.2465 93.4897  17
  11  -5   6 68.1112 80.7311   8
 -11   5  -6 66.1945 54.6067   4
  11  -5   6 119.596 105.036   1
  11  -5   6 75.1024 110.257  14
  11   5  -7-1.12581 323.403  13
 -11  -5   7 115.945 141.361  19
 -11   5  -7 546.483 324.551  19
  11   5  -7 895.965 390.667  18
  11   5  -7 1008.80 330.614   8
  11  -5   7 850.931 328.632   8
 -11  -6   0-112.624 175.057  19
  11   6   0 428.469 264.665  18
  11   6   0 343.020 272.656   8
 -11  -6   0 74.8526 164.546  17
 -11  -6   1 65.8779 128.418  19
  11   6  -1 381.518 253.506  18
  11   6  -1 350.632 262.452   8
 -11  -6   1 258.845 354.654  17
 -11  -6   2 142.951 275.386  19
  11   6  -2 180.374 164.483  18
  11   6  -2 152.517 153.457   8
 -11  -6   2 14.2555 93.2218  17
  11  -6   3 250.605 287.176  14
  11  -6   3 22.6977 230.529   6
  11  -6   3 254.650 249.704   1
 -11  -6   3-104.881 246.617  19
 -11   6  -3 66.4463 157.746   5
 -11   6  -3-320.329 229.275  19
  11   6  -3 37.9884 182.261  18
  11   6  -3-122.903 172.815   8
 -11  -6   3-20.6965 104.391  17
  11  -6   3-571.322 536.408   8
 -11   6  -3 24.7363 97.0909   4
 -11  -6   4 224.171 268.674  19
 -11   6  -4 849.349 373.517   5
 -11   6  -4 302.843 249.499  19
  11   6  -4 440.501 296.423  18
  11   6  -4 381.850 288.601   8
 -11  -6   4-88.6633 181.229  17
  11  -6   4 59.9705 108.299   8
 -11   6  -4 695.124 368.725   4
  12   0   0 351.337 275.233   1
 -12   0   0 145.850 80.8509  12
  12   0   0 266.361 299.447  11
 -12   0   0 221.952 202.906   5
 -12   0   0 24.1337 106.247   2
 -12   0   0 329.225 246.905  19
  12   0   0 464.788 288.337  18
 -12   0   0 372.277 267.003   4
  12   0   0 298.088 228.376   8
 -12   0   0 690.833 381.382  17
 -12   0   0 320.781 266.425   7
 -12   0   0 249.813 65.2073  15
  12   0   0 380.387 295.783  14
  12   0   0 627.998 312.567   6
  12   0   1 240.579 265.726   1
 -12   0  -1 79.6585 131.717  12
 -12   0   1 20.5989 122.783  12
  12   0  -1 87.8191 127.711   1
 -12   0  -1 123.249 188.538   5
  12   0   1 262.939 456.756  11
  12   0  -1-41.0048 239.592  11
 -12   0   1-126.107 115.040   5
 -12   0  -1 157.370 159.098  19
 -12   0   1-12.7975 11.7488  19
 -12   0   1-64.7130 75.4531   2
  12   0   1 198.722 277.351  18
  12   0  -1-186.186 209.360  18
 -12   0  -1 152.796 241.267   4
 -12   0   1 50.4946 186.644   4
  12   0   1 103.347 176.353   8
 -12   0  -1 167.028 263.291  17
  12   0  -1 18.3957 90.4862   8
 -12   0   1 124.066 280.079  17
 -12   0  -1-197.077 128.364   7
 -12   0   1-171.994 204.027   7
 -12   0  -1-224.987 236.016  15
 -12   0   1 195.976 183.192  15
  12   0   1 122.117 130.937  14
  12   0  -1 24.4398 115.667  14
  12   0   1 184.181 238.084   6
  12   0  -1-74.8418 116.477   6
 -12   0  -2 294.730 226.929  12
 -12   0   2-263.849 465.765  12
 -12   0  -2 422.562 286.829   5
  12   0   2 783.127 395.896  11
  12   0  -2 518.060 292.252   1
  12   0  -2 521.013 301.733  11
 -12   0   2 578.522 338.708   5
 -12   0  -2 319.467 313.454  19
 -12   0   2 476.541 292.161  19
 -12   0   2 423.585 219.851   2
  12   0   2 771.034 342.506  18
  12   0  -2 811.972 391.350  18
 -12   0  -2 420.042 333.927   4
 -12   0   2 432.288 258.279   4
  12   0   2 957.245 355.072   8
 -12   0   2 498.786 295.084  17
  12   0  -2 595.162 270.376   8
 -12   0  -2 43.7943 73.5684   7
 -12   0   2 449.798 280.082   7
 -12   0  -2 336.961 232.007  15
 -12   0   2 468.953 272.767  15
  12   0   2 807.672 434.357  14
  12   0  -2 588.116 339.580  14
  12   0   2 1123.30 475.747   6
  12   0   2 593.019 329.909   1
  12   0  -2 841.458 311.394   6
  12   0  -3 122.038 149.646   6
 -12   0  -3 737.296 387.458  12
 -12   0  -3 453.304 417.466   5
  12   0  -3 733.268 531.235  11
 -12   0   3 59.9964 82.6918   5
  12   0  -3 57.8010 28.0561   1
 -12   0  -3 801.792 460.431  19
 -12   0   3-23.2282 127.341  19
  12   0   3 892.195 450.566  18
  12   0  -3 89.0045 174.007  18
 -12   0  -3 1633.21 632.072  17
 -12   0   3 60.5290 63.6558   2
 -12   0  -3 648.864 399.788   4
  12   0   3 229.070 265.591   8
 -12   0   3 151.565 161.878   4
 -12   0   3 234.275 108.346  17
  12   0  -3-18.0420 41.1793   8
 -12   0  -3 955.515 609.314   7
 -12   0   3 182.501 232.629   7
  12   0   3 1193.55 561.950   6
 -12   0   3 201.372 211.924  15
  12   0   3 323.529 222.607   1
  12   0   3 632.932 513.910  14
  12   0  -3-18.0623 36.3547  14
 -12   0  -4 736.561 360.903  12
  12   0   4 2114.94 635.300   1
 -12   0  -4 495.201 329.358   5
 -12   0   4 1319.27 360.314   2
  12   0  -4 2302.79 629.570   1
  12   0  -4 1842.16 703.293  11
 -12   0   4 1327.22 480.121   5
 -12   0   4 1531.51 462.954  19
 -12   0  -4 812.184 445.648  19
  12   0   4 3576.28 682.523  18
  12   0  -4 2409.34 758.050  18
  12   0   4 2937.10 658.974   8
  12   0  -4 2510.08 582.460   8
 -12   0  -4 819.337 425.640   4
 -12   0  -4 294.127 298.881  17
 -12   0   4 1463.22 459.173   4
 -12   0   4 1238.74 537.409  17
 -12   0   4 1679.65 445.040   7
  12   0   4 3130.52 764.605   6
  12   0  -4 2691.60 493.218   6
 -12   0   4 2187.26 463.655  15
  12   0   4 1998.27 645.402  14
  12   0  -4 2217.27 681.273  14
  12   0  -5 168.424 124.625  13
 -12   0  -5-223.995 186.084   3
 -12   0  -5-6.29109 208.948  12
 -12   0  -5-268.261 253.504   5
  12   0  -5 315.729 327.030  11
 -12   0   5-62.0844 57.7296   5
 -12   0  -5-56.9885 75.8167  19
 -12   0   5 4.23023 12.7222  19
  12   0  -5-48.3153 97.1567   1
  12   0   5-212.141 158.203  18
  12   0  -5-49.7290 55.8936  18
 -12   0  -5-126.739 248.082   4
  12   0   5 16.6298 137.049   8
 -12   0  -5-135.817 140.168  17
 -12   0   5 30.8262 36.6260   2
 -12   0   5-138.319 157.445   4
 -12   0   5-48.4192 179.014  17
  12   0  -5-14.6923 58.1604   8
  12   0   5 44.6281 175.092   1
  12   0   5-1.25785 72.0444  14
  12   0   5-122.528 234.108   6
  12   0  -5-201.062 188.444  14
 -12   0  -6 361.198 264.930  12
  12   0   6 3113.44 822.906   1
 -12   0   6 2853.00 703.091   5
 -12   0   6 2645.86 521.526   2
  12   0  -6 3066.13 742.333   1
  12   0  -6 1762.94 799.398  11
 -12   0   6 3103.12 654.303  19
 -12   0  -6 290.578 247.654  19
  12   0   6 4991.06 693.994  18
  12   0  -6 3415.78 905.215  18
 -12   0   6 2810.37 685.991   4
  12   0   6 4147.14 801.844   8
  12   0  -6 3925.22 817.968   8
 -12   0   6 1860.70 752.560  17
  12   0   6 3387.59 789.156   6
  12   0   6 3666.74 835.198  14
  12   0  -6 3579.52 878.831  14
 -12   0  -7 182.380 258.565  12
 -12   0  -7 98.1948 177.811   3
  12   0  -7 42.8447 105.508  11
 -12   0   7 8.94891 126.336   5
 -12   0  -7 145.753 187.283  19
 -12   0   7 70.4187 136.797  19
  12   0   7-38.5877 103.727   1
  12   0  -7 62.5261 205.588  18
  12   0   7-50.1389 112.367   8
  12   0  -7 19.0275 90.5367   1
 -12   0   7-7.23680 102.209  17
 -12   0   7-69.3038 94.8378   4
 -12   0   7-15.2233 112.818   2
  12   0  -7-56.5061 131.575   8
  12   0   7 82.2066 158.713  14
  12   0   7 8.58527 63.4527   6
  12   0  -7 61.7308 130.980  14
  12  -1   0 199.742 182.811   6
 -12  -1   0 278.387 204.184  12
 -12   1   0-45.4729 149.718  12
  12   1   0 464.595 333.399  11
 -12  -1   0 217.060 247.533   5
 -12   1   0 174.730 225.063   5
  12  -1   0 4.37899 69.5723   1
 -12  -1   0 83.6928 301.117  19
 -12   1   0-0.25175 33.8002  19
 -12   1   0 23.7638 73.5119   2
  12   1   0 228.829 188.068  18
  12  -1   0 669.394 476.617  18
 -12  -1   0 116.573 225.326   4
  12   1   0 131.007 181.683   8
 -12  -1   0 188.334 198.294  17
 -12   1   0 103.320 184.315   4
  12  -1   0 50.1954 57.5761   8
 -12   1   0 513.196 464.293  17
 -12   1   0 331.563 243.794  15
  12   1   0 26.1094 172.471   6
  12   1   0 194.470 302.315  14
  12   1   0 136.514 155.379   1
  12  -1   0 183.007 233.743  14
  12   1  -1-55.0656 47.7417   1
  12  -1   1 354.411 219.389   6
  12  -1  -1 223.012 145.160   6
 -12  -1  -1 101.762 66.3991  12
 -12  -1   1 255.295 146.836  12
 -12   1  -1 102.174 60.2284  12
 -12   1   1-379.068 517.623  12
  12   1   1 197.498 201.487  11
  12  -1   1 201.627 167.075   1
 -12  -1  -1 8.02067 98.2613   5
  12   1  -1 218.929 111.434  11
 -12  -1   1 249.288 236.145   5
 -12   1  -1 120.304 150.149   5
 -12   1   1 21.6537 36.1083   5
 -12  -1   1-23.4989 127.708   2
 -12  -1  -1 100.762 131.945  19
 -12  -1   1 181.087 208.408  19
 -12   1  -1 241.908 167.877  19
 -12   1   1 71.6342 90.5500  19
  12  -1  -1 184.485 194.049   1
 -12   1  -1 119.979 129.268   2
  12   1   1 325.392 233.018  18
  12   1  -1 390.445 233.172  18
  12  -1   1 264.319 288.959  18
  12  -1  -1 348.936 199.649  18
 -12  -1  -1 82.9134 151.078   4
 -12   1   1 136.768 113.093   2
 -12  -1   1 241.388 226.379   4
  12   1   1 107.679 132.049   8
 -12   1  -1 108.401 95.4897   4
 -12  -1  -1 39.8678 48.9760  17
  12   1  -1 227.973 170.360   8
 -12  -1   1 354.126 238.208  17
  12  -1   1 225.739 169.745   8
 -12   1   1 104.589 125.934   4
  12  -1  -1 38.4286 89.1052   8
 -12   1  -1 245.645 238.010  17
 -12   1   1 210.046 312.896  17
 -12   1  -1 345.229 268.069   7
  12   1   1 41.9739 170.945   1
 -12   1  -1 150.608 172.845  15
  12   1   1 6.76728 176.631   6
  12   1  -1 49.1132 145.421   6
  12   1   1 78.7137 32.3973  14
  12   1  -1 201.465 243.168  14
  12  -1   1 482.208 324.235  14
  12  -1  -1 255.040 205.124  14
  12  -1   2 65.8501 115.703   6
  12  -1  -2 8.23632 35.4120   6
  12   1  -2 202.465 190.063   1
 -12  -1  -2 89.9265 48.7594  12
  12  -1   2 124.448 127.875   1
 -12   1  -2 67.7263 120.259  12
 -12  -1   2 313.130 183.106  12
 -12  -1  -2-101.665 200.631   5
  12   1   2 219.417 158.210  11
  12   1  -2 169.718 264.939  11
 -12  -1   2 140.440 177.825   5
 -12   1  -2 48.4135 125.658   5
 -12   1   2 26.7776 68.1102   5
 -12  -1  -2 79.5629 153.093  19
 -12  -1   2 246.721 242.111  19
 -12   1  -2 187.602 261.874  19
 -12   1   2-46.4066 121.018  19
 -12  -1   2 58.9564 100.184   2
  12   1   2 96.7959 149.822  18
  12   1  -2 50.9990 99.9619  18
  12  -1  -2 76.1849 84.6000   1
  12  -1   2 15.7107 213.552  18
 -12  -1  -2-216.323 307.940   4
  12  -1  -2 122.056 86.5383  18
 -12  -1   2 189.256 249.169   4
  12   1   2 301.999 241.597   8
 -12   1  -2 282.001 252.272   4
 -12   1   2 8.84139 44.2844   2
 -12  -1  -2-128.139 201.950  17
 -12  -1   2 350.824 301.901  17
  12   1  -2 84.6042 99.5818   8
  12  -1   2 274.520 200.970   8
 -12   1   2-89.4488 140.831   4
 -12   1  -2 244.194 338.797  17
 -12   1   2 51.0503 187.558  17
  12  -1  -2-2.82062 52.4349   8
  12   1   2 235.735 238.253   1
 -12   1  -2 50.7841 68.0871   7
 -12   1  -2 94.4645 110.752  15
  12   1   2 420.462 348.315   6
  12   1   2 76.4444 147.318  14
  12   1  -2-44.0627 157.205   6
  12   1  -2 50.0343 135.574  14
  12  -1   2 145.790 143.130  14
  12  -1  -2 55.5501 108.172  14
  12  -1   3 1085.99 370.066   6
  12  -1   3 855.273 348.987   1
  12   1  -3 810.663 384.744   1
 -12  -1  -3 382.398 217.768  12
 -12   1  -3 1004.41 416.663  12
 -12  -1   3-554.247 482.195  12
  12   1   3 2293.12 496.413  11
 -12  -1  -3-20.9781 322.675   5
  12   1  -3 1810.40 570.850  11
 -12   1  -3 708.533 373.582   5
 -12  -1   3 853.385 409.744   5
 -12   1   3 897.854 384.189   5
 -12  -1  -3 354.682 253.782  19
 -12   1  -3 529.063 340.640  19
 -12  -1   3 824.778 398.462  19
 -12   1   3 683.161 294.118  19
  12   1   3 1714.28 448.180  18
 -12  -1   3 539.760 253.320   2
  12   1   3 1750.09 558.747   8
  12   1  -3 1236.40 389.474   8
  12   1  -3 1357.39 514.331  18
 -12  -1  -3-141.907 302.773   4
  12  -1   3 1665.46 538.859  18
  12  -1  -3 978.135 506.007  18
  12  -1  -3 885.685 385.560   1
 -12  -1   3 583.984 403.700   4
 -12   1  -3 659.086 309.773   4
 -12  -1  -3 190.669 122.121  17
  12  -1   3 1111.02 397.274   8
 -12  -1   3 929.675 449.984  17
 -12   1   3 737.714 233.811   2
 -12   1  -3 651.831 421.352  17
 -12   1   3 627.591 433.339  17
 -12   1   3 896.330 388.625   4
  12  -1  -3 959.817 363.803   8
  12   1   3 1328.43 531.429   1
 -12   1  -3 482.213 191.748   7
  12  -1  -3 1217.48 315.244   6
 -12   1  -3 490.145 218.147  15
  12   1   3 1672.58 624.719   6
  12   1   3 1183.48 495.790  14
  12   1  -3 1115.54 412.558   6
  12   1  -3 1431.13 555.756  14
  12  -1   3 887.365 375.601  14
  12  -1  -3 1073.53 457.295  14
  12  -1   4-2.33733 128.975   1
 -12   1  -4-50.7022 62.8652   3
  12  -1  -4-79.3910 97.5959   6
  12   1  -4-83.1601 59.6305  13
 -12  -1  -4 77.7880 25.3566  12
 -12   1  -4 247.231 319.983  12
  12   1  -4-50.6861 112.752   1
  12   1   4 11.0858 95.5075  11
  12   1  -4-100.519 127.270  11
 -12   1  -4 147.825 194.228   5
 -12  -1   4 130.152 163.217   5
 -12   1   4-217.755 196.933   5
 -12  -1  -4-10.5452 79.8213  19
 -12   1  -4 166.762 292.124  19
 -12  -1   4 1.62136 71.5443  19
 -12   1   4-74.3816 154.812  19
  12   1   4-82.2705 136.082  18
 -12  -1   4 46.1108 60.3154   2
  12   1  -4-85.4858 146.757  18
  12  -1   4 82.5998 137.479  18
  12  -1  -4-169.471 367.253  18
 -12   1  -4 388.379 323.965   4
 -12  -1   4 212.506 237.627   4
  12   1   4 5.25093 34.2239   8
  12   1   4 117.268 216.475   1
 -12  -1  -4-41.8542 89.6644  17
  12  -1   4 37.2705 13.0624   8
 -12  -1   4 41.7259 162.167  17
  12   1  -4 10.1610 51.8950   8
 -12   1  -4 34.5752 308.404  17
 -12   1   4 85.9256 249.199  17
 -12   1   4 58.2613 107.991   4
  12  -1  -4-7.49330 60.9027   8
  12  -1  -4-95.9155 112.481   1
 -12   1   4-11.8270 78.4844   2
 -12   1  -4 207.456 310.068   7
 -12   1  -4 74.5849 222.840  15
  12   1   4-111.261 128.689   6
  12   1   4-33.7717 101.980  14
  12   1  -4-93.0801 168.225  14
  12  -1   4-94.6124 159.457  14
  12  -1  -4 25.2790 34.8349  14
  12  -1   4-61.1991 155.695   6
  12   1  -5 2245.93 407.033  13
 -12   1  -5 153.754 181.806   3
 -12   1  -5 559.726 337.771  12
 -12   1   5 1695.71 560.295   5
  12  -1   5 2015.15 588.470   1
 -12  -1   5 1373.56 374.053   2
  12   1  -5 1828.74 582.822   1
 -12   1  -5 582.859 320.152   5
 -12   1   5 1757.61 403.129   2
  12   1  -5 2731.69 820.041  11
  12  -1  -5 1904.75 560.755   1
 -12  -1   5 1377.73 486.049   5
 -12   1   5 1939.92 515.805  19
 -12  -1  -5 42.9048 139.513  19
 -12   1  -5 720.762 431.893  19
 -12  -1   5 1341.00 414.097  19
  12   1   5 2755.14 519.923  18
  12   1  -5 2652.49 719.853  18
  12  -1   5 3091.07 707.323  18
  12   1   5 2286.31 617.227   8
  12  -1   5 2143.76 568.826   8
 -12   1   5 1559.49 487.191   4
  12   1  -5 2537.42 581.563   8
  12  -1  -5 2197.85 613.502   8
  12   1   5 1580.51 610.940   1
  12  -1  -5 1406.04 589.234  18
 -12   1  -5 742.118 354.890   4
 -12  -1   5 1008.45 416.409   4
 -12  -1  -5 10.2238 113.763  17
 -12  -1   5 968.422 496.042  17
 -12   1   5 807.768 581.440  17
 -12   1  -5 744.245 392.607   7
  12  -1   5 2433.44 598.323   6
  12  -1  -5 2054.37 375.031   6
 -12   1  -5 620.615 318.781  15
  12   1   5 1604.00 575.955   6
  12   1   5 1792.48 638.779  14
  12  -1   5 1597.98 507.118  14
  12   1  -5 1941.99 683.409  14
  12  -1  -5 1792.96 577.268  14
  12   1  -6 105.409 92.2809  13
 -12   1  -6-111.348 174.839   3
 -12   1  -6-41.7266 34.1919  12
 -12   1  -6-170.196 211.289   5
  12   1  -6-137.990 148.769  11
 -12  -1   6-58.9826 146.239   5
  12   1  -6 69.2141 95.4383   1
 -12   1   6-108.729 112.694   5
 -12  -1  -6-63.0974 192.087  19
 -12   1  -6-53.9200 132.749  19
 -12  -1   6-30.9211 40.5873  19
 -12   1   6 90.0867 116.084  19
  12   1   6-158.921 193.703   1
  12   1   6-149.663 147.978  18
  12   1  -6 110.151 145.047  18
  12  -1  -6-317.555 552.964  18
 -12   1  -6-59.1939 177.264   4
 -12  -1   6 33.6098 39.3410   2
  12   1   6 3.68876 108.396   8
 -12  -1  -6-59.2516 57.8437  17
 -12  -1   6-145.863 217.727   4
  12  -1   6-45.1189 138.534   8
 -12  -1   6-4.54726 30.9532  17
 -12   1   6 255.832 273.707  17
  12   1  -6-45.0372 49.1655   8
 -12   1   6-79.4703 141.472   4
  12  -1  -6-208.014 343.472   8
 -12   1  -6 20.0421 113.756   7
  12  -1   6-218.323 199.024   1
 -12   1   6 32.8504 7.17109   2
 -12   1  -6-129.082 266.569  15
  12   1   6-85.4619 213.360   6
  12  -1  -6-165.359 206.657   1
  12   1   6-54.6227 71.7265  14
  12  -1   6 29.4963 56.3415  14
  12   1  -6-166.050 224.712  14
  12  -1   6-3.27402 130.323   6
  12  -1  -6 105.891 194.052  14
  12   1  -7 3601.63 524.960  13
 -12   1  -7 304.196 222.140   3
 -12   1  -7 621.295 288.691  12
 -12  -1   7 2587.77 709.625   5
  12  -1   7 4345.57 931.021   1
 -12   1   7 3339.97 787.837   5
  12   1  -7 4334.18 1098.32  11
 -12   1  -7 813.424 388.891   5
 -12  -1   7 2365.79 556.217   2
 -12   1   7 3387.09 632.308   2
 -12  -1   7 2595.82 610.064  19
 -12   1   7 3245.14 695.704  19
 -12   1  -7 903.724 358.217  19
  12   1   7 4680.21 647.251  18
  12   1  -7 4214.12 959.996  18
  12   1   7 4217.19 874.681   8
 -12  -1   7 2139.89 639.983   4
  12  -1   7 3879.56 790.233   8
 -12   1   7 3643.22 747.414   4
  12   1  -7 4687.80 849.945   8
 -12   1  -7 885.490 387.490   4
  12  -1  -7 1175.31 338.981  18
 -12   1   7 2155.26 892.942  17
 -12  -1   7 1976.52 731.569  17
  12  -1  -7 3083.60 823.530   8
 -12   1  -7 762.346 367.554   7
  12  -1   7 4792.55 866.669   6
 -12   1  -7 548.164 215.091  15
  12   1   7 2882.34 813.597  14
  12  -1   7 3516.74 775.802  14
  12   1  -7 3227.52 846.639  14
  12   1   7 2586.11 670.083   6
  12  -1  -7 2817.54 789.265  14
  12  -2   0 44.9482 87.8024   6
 -12  -2   0 28.4818 105.998  12
 -12   2   0-552.053 661.586  12
  12   2   0-3.13096 120.475  11
 -12  -2   0-247.139 320.826   5
 -12   2   0-7.37091 26.4699   5
 -12  -2   0 52.4934 170.613  19
 -12   2   0-2.61509 83.6674  19
  12   2   0-32.2306 149.658  18
  12  -2   0 48.2055 93.5275   1
  12   2   0-16.0009 121.405   8
 -12  -2   0 242.141 205.518  17
 -12   2   0 117.432 102.221   2
  12  -2   0 87.1738 118.009   8
 -12   2   0 35.2826 78.9743   4
  12   2   0-49.9911 158.022   1
  12   2   0-195.946 322.114  14
  12  -2   0-83.3636 194.269  14
  12  -2   1 248.651 185.768   6
  12  -2  -1 90.5953 95.1739   6
 -12  -2  -1 253.573 210.216  12
 -12  -2   1 208.253 124.825  12
 -12   2  -1-151.432 274.880  12
  12   2   1 118.380 64.1701  11
  12   2  -1 227.580 200.876  11
 -12  -2   1 121.140 98.8427   5
 -12   2  -1-87.8480 170.306   5
 -12   2   1 28.8018 128.058   5
 -12  -2  -1 245.745 239.508  19
 -12  -2   1 118.316 170.298  19
 -12   2  -1-33.4002 113.125  19
 -12   2   1 52.2188 42.8177  19
  12  -2   1 83.3158 114.900   1
  12   2   1 58.3523 92.8954  18
  12   2  -1-100.247 145.773  18
 -12  -2   1-143.136 330.590   4
  12   2   1 72.1421 164.139   8
  12   2  -1-1.55129 32.6738   8
 -12  -2  -1 369.303 326.752  17
 -12  -2   1 134.078 135.309  17
  12   2   1 123.857 206.634   1
 -12   2  -1-24.9009 83.6574   4
  12  -2   1 80.9511 157.591   8
  12  -2  -1-0.14062 32.6147   8
 -12   2   1 225.805 218.767   4
 -12   2   1 75.2212 68.6001   2
  12  -2  -1 55.1871 77.8830   1
  12   2  -1 13.2506 13.0666   1
  12   2   1 141.602 269.710  14
  12   2  -1 154.549 90.1329  14
  12  -2   1-21.2865 76.6584  14
  12  -2  -1-81.6265 173.489  14
  12  -2   2 78.9751 103.484   6
  12  -2  -2 71.0844 95.0073   6
 -12  -2   2 60.1154 129.353  12
 -12   2  -2 200.085 245.683  12
  12   2   2-22.6534 69.3194  11
  12   2  -2 268.333 299.534  11
 -12  -2   2-58.5853 167.934   5
 -12   2  -2-66.2821 133.783   5
 -12  -2   2-270.149 274.240   2
 -12   2   2 83.0206 122.597   5
 -12  -2  -2 144.212 203.037  19
 -12  -2   2 71.2186 208.523  19
  12  -2   2 42.1406 76.7150   1
 -12   2  -2 33.1138 92.7327  19
 -12   2   2 29.6374 73.3179  19
  12   2   2 22.3232 101.412  18
  12   2  -2 243.249 194.437  18
 -12  -2   2-24.5750 252.225   4
  12   2   2 78.1745 208.827   1
  12   2   2 215.328 239.859   8
 -12  -2  -2-71.3000 99.9805  17
  12   2  -2 65.4643 135.997   8
 -12  -2   2 45.9957 185.230  17
 -12   2  -2 85.6424 104.357   4
  12  -2   2 34.0589 34.7450   8
  12  -2  -2 61.4030 85.4390   8
 -12   2   2 116.096 131.957   4
 -12   2   2 6.52967 63.6324   2
  12  -2  -2-86.5701 184.438   1
  12   2  -2 234.511 236.382   1
  12   2   2 17.9234 218.639  14
  12   2  -2 215.071 234.260  14
  12  -2   2 63.9012 110.815  14
  12  -2  -2-25.8547 81.3160  14
  12  -2   3-86.7865 70.3531   6
  12  -2  -3 23.8709 43.4964   6
 -12   2  -3 51.1437 211.724  12
  12   2  -3-170.166 197.165  11
 -12  -2   3 137.288 169.654   5
  12  -2   3 75.7121 148.820   1
 -12   2  -3 47.0611 128.266   5
 -12   2   3 52.7568 116.482   5
 -12  -2  -3 71.7768 72.6932  19
 -12  -2   3-47.8041 151.524   2
 -12  -2   3-94.6983 123.067  19
 -12   2  -3-19.9079 53.4584  19
 -12   2   3-19.0314 62.4060  19
  12   2   3 133.610 156.139  18
  12   2  -3 82.9429 172.511  18
  12   2   3 99.8753 202.585   1
 -12  -2   3-315.722 334.138   4
  12   2   3 313.452 242.724   8
 -12  -2  -3-8.97170 62.7886  17
 -12  -2   3-86.3044 155.940  17
  12   2  -3 102.084 126.635   8
 -12   2  -3 101.218 171.894   4
  12  -2   3 48.0606 57.5292   8
  12  -2  -3 43.9878 116.240   8
 -12   2   3-63.5502 102.838   2
  12   2   3 128.902 256.129  14
  12   2  -3 7.68148 244.890  14
  12   2  -3-19.6324 145.180   1
  12  -2   3 33.0349 113.465  14
  12  -2  -3 74.4222 110.980  14
  12  -2  -3 124.105 172.337   1
  12   2  -4 462.666 300.759   1
  12  -2   4 691.848 311.068   6
  12   2  -4-320.099 363.155  13
  12  -2  -4 545.234 318.489   1
  12  -2  -4 559.560 204.346   6
 -12   2  -4 165.247 204.020  12
  12  -2   4 669.584 305.410   1
  12   2  -4 967.968 405.326  11
 -12  -2   4 153.059 221.695   5
 -12   2  -4 311.627 263.560   5
 -12   2   4 812.490 365.460   5
 -12  -2  -4 72.5828 77.8323  19
 -12  -2   4 310.370 225.682  19
 -12   2  -4 187.985 168.298  19
 -12   2   4 615.222 303.789  19
 -12  -2   4 95.9469 142.064   2
  12   2   4 496.908 342.747   1
  12   2   4 783.320 318.047  18
  12   2  -4 953.120 411.923  18
 -12  -2   4 143.495 169.627   4
  12   2   4 873.348 405.679   8
 -12  -2  -4-53.5431 51.4690  17
 -12   2  -4 369.271 231.021   4
 -12  -2   4 274.761 129.586  17
  12   2  -4 939.218 348.019   8
  12  -2   4 701.839 306.288   8
  12  -2  -4 437.074 270.613   8
 -12   2   4 707.328 313.549   4
 -12   2  -4 432.686 255.789   7
 -12   2   4 569.734 251.841   2
 -12   2  -4 415.428 136.634  15
  12   2  -4 561.740 368.558  14
 -12   2  -4-163.749 276.657   3
  12  -2   4 647.294 307.853  14
  12  -2  -4 391.769 279.423  14
 -12   2  -5 194.127 217.599   3
  12  -2   5-10.7246 119.895   6
  12   2  -5-59.0106 96.9187  13
  12   2  -5 80.1802 186.190   1
  12  -2   5-216.659 208.180   1
  12  -2  -5 16.9464 60.8413   6
 -12   2  -5 136.214 208.946  12
  12  -2  -5 62.2493 132.332   1
  12   2  -5-13.8266 108.375  11
 -12  -2   5 64.1370 179.881   5
 -12   2  -5-97.3535 122.574   5
 -12  -2  -5-1.65320 121.897  19
 -12   2   5 33.7203 3.53098   5
  12   2   5-18.7520 76.2874   1
 -12  -2   5-16.2038 45.5225  19
 -12   2  -5 20.3280 82.6532  19
 -12   2   5-15.2179 102.980  19
 -12  -2   5 12.6493 65.9235   2
  12   2   5-33.0534 31.6649  18
  12   2  -5 94.9036 157.459  18
 -12  -2   5-127.574 218.839   4
  12   2   5-39.4080 103.423   8
 -12  -2  -5 22.0008 49.7400  17
 -12   2  -5-77.3643 92.6273   4
 -12  -2   5 115.100 230.999  17
  12  -2   5-44.8724 140.953   8
  12   2  -5-146.977 187.291   8
 -12   2   5-60.6562 71.1870   4
 -12   2  -5 101.646 137.278   7
 -12   2  -5-67.3785 144.589  15
 -12   2   5-6.11430 74.7879   2
  12   2  -5-167.991 256.966  14
  12  -2   5 4.43657 41.3816  14
  12  -2  -5 33.5139 140.913  14
  12   2  -6 1856.81 441.287  13
 -12   2  -6 120.501 181.864   3
  12   2  -6 1760.01 605.369   1
 -12   2  -6 529.457 293.913  12
  12   2  -6 3076.82 828.347  11
 -12   2  -6 743.965 345.652   5
  12  -2  -6 1299.28 477.755   1
 -12  -2   6 942.838 412.229   5
 -12   2   6 1893.15 481.657   2
 -12   2   6 1693.12 513.406  19
 -12   2   6 1453.79 497.074   5
 -12   2  -6 970.942 454.912  19
 -12  -2   6 1049.15 392.132  19
  12   2   6 2024.29 457.697  18
  12   2  -6 2463.21 710.014  18
  12  -2   6 2036.07 546.273   8
  12   2  -6 2023.43 489.341   8
 -12   2   6 1891.37 527.451   4
 -12  -2   6 934.675 343.573   2
 -12  -2   6 770.858 400.338   4
  12   2   6 1683.01 559.092   8
 -12   2  -6 854.738 387.505   4
 -12  -2  -6 125.824 165.643  17
 -12  -2   6 735.061 395.719  17
 -12   2  -6 775.058 383.948   7
  12  -2   6 2080.39 523.372   6
  12  -2  -6 1420.47 352.970   6
 -12   2  -6 871.696 345.248  15
  12  -2   6 1848.42 551.953  14
  12   2  -6 1751.11 707.507  14
  12  -2   6 1846.70 523.501   1
  12  -2  -6 1497.11 566.212  14
  12  -3   0 44.0491 40.5449   6
 -12   3   0 129.592 177.457   5
 -12  -3   0-48.1473 187.183  19
 -12   3   0-32.5335 109.178  19
  12   3   0-60.9382 118.200  18
  12   3   0-49.1336 97.2984   1
  12   3   0 145.844 232.257   8
 -12  -3   0-90.9988 115.550  17
  12  -3   0 71.9874 131.361   8
 -12   3   0-100.572 135.915   4
 -12   3   0-19.8893 18.0967   2
  12  -3   0 21.7300 110.976   1
  12  -3   0-86.2261 184.478  14
  12  -3   1 470.956 225.187   6
  12  -3  -1 428.035 201.293   6
  12  -3  -1 491.624 285.367   1
 -12  -3   1 147.271 135.808  12
 -12   3  -1-313.357 731.479  12
  12   3  -1 695.311 328.226  11
 -12   3  -1 315.024 190.966   5
 -12   3   1 452.744 260.175   5
 -12  -3  -1-142.770 146.466  19
 -12  -3   1-14.5855 112.515  19
 -12   3  -1 462.563 271.279  19
 -12   3   1 434.676 263.361  19
  12   3   1 631.822 298.926  18
  12   3  -1 705.721 326.924  18
  12   3   1 401.633 367.584   1
  12   3   1 674.162 364.298   8
  12   3  -1 580.149 262.369   8
 -12  -3  -1-15.5096 96.4513  17
 -12  -3   1 136.699 195.584  17
  12   3  -1 448.696 342.832   1
  12  -3   1 518.460 284.002   8
 -12   3  -1 292.248 184.762   4
  12  -3  -1 372.091 247.790   8
 -12   3   1 392.137 239.941   4
  12  -3   1 417.087 225.987   1
 -12   3   1 480.497 184.046   2
  12  -3   1 416.476 237.630  14
  12  -3  -1 473.665 289.454  14
  12  -3   2 34.6508 109.776   6
  12  -3  -2 53.6635 74.9079   6
 -12   3  -2-12.4805 198.608  12
  12   3  -2-204.042 249.579  11
  12  -3  -2 67.5153 57.0114   1
 -12   3  -2 148.392 185.214   5
 -12  -3  -2-12.9116 123.382  19
 -12   3   2-159.715 216.601   5
 -12  -3   2-99.4155 197.700  19
 -12   3  -2-2.34026 105.182  19
 -12   3   2 45.9673 105.436  19
  12   3   2-69.2814 159.979   1
  12   3   2-57.4245 122.867  18
  12   3  -2-14.6199 79.4662  18
  12   3   2 1.33395 51.5591   8
 -12  -3  -2 87.5165 132.771  17
  12   3  -2-79.4711 167.765   8
 -12  -3   2 158.490 117.845  17
  12  -3   2 3.41484 76.2936   1
  12  -3   2-68.8167 118.258   8
  12   3  -2-12.9283 48.6496   1
 -12   3  -2-30.5682 87.8766   4
  12  -3  -2-62.6581 139.068   8
 -12   3   2 76.0337 150.885   4
 -12   3   2 45.5605 52.8119   2
  12   3  -2 117.523 236.707  14
  12  -3   2 95.6184 125.403  14
  12  -3  -2-8.63256 97.6731  14
  12  -3   3-35.6363 118.846   6
  12  -3  -3 40.1793 113.363   6
 -12   3  -3 41.4724 84.7083  12
  12   3  -3 84.6379 82.3341  11
 -12  -3   3-130.756 357.185   5
 -12   3  -3 20.8840 100.815   5
  12  -3  -3 69.4299 83.5959   1
 -12  -3  -3-8.18650 168.047  19
 -12  -3   3 183.398 313.560  19
 -12   3   3-213.577 224.202   5
 -12   3  -3 24.9532 89.6839  19
 -12   3   3 89.4351 129.522  19
  12   3   3 36.9465 101.993  18
  12   3  -3-34.8368 130.561  18
  12  -3   3 13.9088 76.1926   1
  12   3   3 16.3441 91.2694   8
 -12  -3  -3-3.47493 162.741  17
  12   3  -3 104.232 165.246   8
 -12  -3   3 13.1268 38.3498  17
 -12   3  -3 130.852 126.162   4
  12  -3   3-35.3793 39.1723   8
  12  -3  -3-260.077 328.818   8
  12   3  -3 78.3654 141.883   1
 -12   3   3 130.711 164.595   4
  12   3  -3-27.8669 269.542  14
 -12   3   3 37.9595 31.5576   2
  12  -3   3 151.040 141.080  14
  12  -3  -3 114.278 196.380  14
  12  -3  -4 18.1292 48.4515  14
 -12   3   4 134.044 116.371   2
  12  -3   4 153.572 180.459   6
  12  -3  -4 75.6804 115.251   6
 -12   3  -4-44.3115 82.7542  12
  12   3  -4 233.232 237.452  11
 -12  -3   4-246.809 331.891   5
 -12   3  -4-51.8656 134.910   5
 -12  -3   4-203.557 267.072   2
 -12  -3  -4-45.7548 114.208  19
 -12  -3   4-77.0628 71.6354  19
 -12   3   4 191.602 187.846   5
  12  -3   4-18.2345 85.3463   1
  12   3  -4-179.519 217.808   9
 -12   3  -4 18.1776 72.3823  19
 -12   3   4 10.3585 50.6127  19
  12   3   4 84.0095 66.6655  18
  12  -3  -4-28.0225 72.8733   1
  12   3  -4 48.1332 144.944  18
  12   3   4 97.4124 157.373   8
 -12  -3  -4-44.3634 36.1982  17
 -12  -3   4 128.742 217.624  17
  12   3  -4 29.3629 61.1686   8
 -12   3  -4-33.7730 127.455   4
  12  -3   4 96.7778 127.505   8
 -12   3   4 52.7990 137.279   4
  12   3  -4 125.090 145.772   1
  12   3  -4 433.009 436.907  14
  12  -3   4-14.9940 128.677  14
  12  -3  -5 341.166 267.046  14
 -12   3   5 590.514 291.719   2
  12  -3   5 518.977 241.111   6
  12   3  -5-646.824 495.883  13
  12  -3  -5 231.347 230.728   6
 -12   3  -5 86.0945 174.186  12
  12   3  -5 534.486 344.399  11
 -12  -3   5 90.4548 127.247   5
  12  -3   5 238.895 165.189   1
 -12   3  -5 163.029 142.796   5
 -12  -3  -5-8.98942 162.581  19
 -12  -3   5-8.95902 201.561   2
 -12  -3   5 69.6552 14.1271  19
 -12   3   5 558.174 341.622   5
 -12   3  -5 71.3032 122.166  19
  12   3  -5 1204.47 552.453   9
 -12   3   5 166.777 67.1753  19
  12   3   5 380.805 234.049  18
  12   3  -5 382.575 201.469  18
  12   3   5 328.187 246.159   8
 -12  -3  -5 43.1686 23.0565  17
  12  -3  -5 382.647 339.260   1
 -12  -3   5 113.955 129.436  17
  12   3  -5 470.253 221.129   8
 -12   3  -5 285.399 216.080   4
  12  -3   5 469.746 261.225   8
 -12   3   5 298.981 221.915   4
  12   3  -5 420.067 310.526   1
  12   3  -5 619.781 480.142  14
 -12   3  -5-290.687 393.174   3
  12  -3   5 373.906 228.350  14
  12  -4   0 839.572 334.192   6
  12  -4   0 808.541 356.625   1
 -12   4   0 1180.41 434.350  19
 -12  -4   0-204.043 275.621  19
 -12   4   0 912.771 370.289   5
  12   4   0 1010.93 499.286   1
  12   4   0 1272.09 436.333  18
  12   4   0 992.794 412.204   8
 -12  -4   0-39.2610 155.243  17
  12  -4   0 911.904 410.088   8
 -12   4   0 1415.13 477.195   4
  12  -4   0 940.307 397.056  14
  12  -4  -1-12.7813 104.806  14
 -12   4   1 57.4225 80.0485   2
  12  -4   1 155.758 148.056   6
  12  -4  -1-9.51123 101.149   6
  12  -4   1 39.8077 107.493   1
 -12  -4  -1-212.189 326.527  19
 -12  -4   1-157.051 142.875  19
 -12   4  -1-30.9693 109.793   5
 -12   4   1 198.561 212.570   5
 -12   4  -1-36.6726 53.1481  19
 -12   4   1 76.2731 151.630  19
  12   4  -1-47.0668 191.617   1
  12   4   1-112.109 137.494  18
  12   4  -1 105.400 106.769  18
  12  -4  -1 80.4574 128.521   1
  12   4   1 40.9772 81.6590   8
  12   4  -1 56.5221 79.8602   8
 -12  -4  -1 202.059 162.083  17
 -12  -4   1 141.272 170.525  17
  12  -4   1 106.375 153.724   8
  12  -4  -1-308.277 324.521   8
 -12   4  -1-102.198 117.324   4
 -12   4   1-168.710 199.987   4
  12  -4   1-127.305 194.544  14
  12  -4  -2 304.371 229.909  14
  12  -4   2 474.637 234.018   1
 -12   4   2 542.142 270.442   2
  12  -4   2 421.410 226.602   6
  12  -4  -2 477.115 321.436   6
 -12  -4  -2 14.0422 148.854  19
 -12   4  -2 358.113 220.647   5
 -12  -4   2 23.2797 119.881  19
 -12   4   2 459.477 244.836   5
 -12   4  -2 305.539 224.115  19
 -12   4   2 337.969 186.150  19
  12   4   2 385.945 235.031  18
  12   4  -2 305.470 221.078  18
  12   4  -2 540.725 344.371   1
  12   4   2 212.448 216.654   8
 -12  -4  -2-77.1947 123.100  17
  12   4  -2 547.104 263.631   8
 -12  -4   2 62.8757 30.4210  17
  12  -4  -2 366.971 269.184   1
  12  -4   2 412.144 255.981   8
 -12   4  -2 331.813 210.794   4
  12  -4  -2-307.273 504.605   8
 -12   4   2 498.944 284.675   4
  12  -4   2 419.237 270.856  14
 -12  -4  -3 134.349 262.166  19
 -12  -4   3-14.5207 173.708  19
 -12   4   3-117.485 236.235  19
  12   4   3 97.7955 120.047  18
  12   4  -3 14.8721 144.576  18
  12   4   3 90.2252 86.4568   8
 -12  -4  -3 53.9557 87.1579  17
  12   4  -3-6.57562 91.9079   8
   0   0   0    0.00    0.00   0

TITL HFMOF_18 in P4/mnc
REM P4/mnc (#128 in standard setting)
CELL 0.71073  19.163054  19.163054  32.547135  90.0000  90.0000  90.0000
ZERR   16.00   0.001020   0.001020   0.002243   0.0000   0.0000   0.0000
LATT  1
SYMM -x,-y, z
SYMM -y, x, z
SYMM  y,-x, z
SYMM -x+1/2, y+1/2,-z+1/2
SYMM  x+1/2,-y+1/2,-z+1/2
SYMM  y+1/2, x+1/2,-z+1/2
SYMM -y+1/2,-x+1/2,-z+1/2
SFAC C H O Hf
UNIT 576.00 704.00 128.00 16.00
TREF
HKLF 4
END
;
_shelx_hkl_checksum              33754
_shelx_shelxl_version_number     2014/7
_olex2_submission_special_instructions 'No special instructions were received'
_oxdiff_exptl_absorpt_empirical_details
;
Empirical correction (ABSPACK) includes:
- Absorption correction using spherical harmonics
- Frame scaling
;
_oxdiff_exptl_absorpt_empirical_full_max 7.832
_oxdiff_exptl_absorpt_empirical_full_min 0.405
loop_
_space_group_symop_operation_xyz
'x, y, z'
'-x, -y, z'
'-y, x, z'
'y, -x, z'
'-x+1/2, y+1/2, -z+1/2'
'x+1/2, -y+1/2, -z+1/2'
'y+1/2, x+1/2, -z+1/2'
'-y+1/2, -x+1/2, -z+1/2'
'-x, -y, -z'
'x, y, -z'
'y, -x, -z'
'-y, x, -z'
'x-1/2, -y-1/2, z-1/2'
'-x-1/2, y-1/2, z-1/2'
'-y-1/2, -x-1/2, z-1/2'
'y-1/2, x-1/2, z-1/2'
loop_
_atom_site_label
_atom_site_type_symbol
_atom_site_fract_x
_atom_site_fract_y
_atom_site_fract_z
_atom_site_U_iso_or_equiv
_atom_site_adp_type
_atom_site_occupancy
_atom_site_site_symmetry_order
_atom_site_calc_flag
_atom_site_refinement_flags_posn
_atom_site_refinement_flags_adp
_atom_site_refinement_flags_occupancy
_atom_site_disorder_assembly
_atom_site_disorder_group
Hf1 Hf -0.0422(2) 0.1226(2) 0.0000 0.048(4) Uani 1 2 d DS TU P . .
Hf2 Hf 0.0000 0.0000 0.07477(15) 0.042(4) Uani 1 4 d DS TU P . .
O1 O -0.0259(17) 0.0910(13) 0.1087(10) 0.038(12) Uiso 1 1 d D U . . .
O4 O -0.082(2) 0.035(2) 0.0363(13) 0.084(16) Uiso 1 1 d . U . . .
O13 O -0.0593(19) 0.1712(19) 0.0584(7) 0.060(14) Uiso 1 1 d D U . . .
O19 O -0.148(3) 0.165(3) 0.0000 0.07(2) Uiso 1 2 d S TU P . .
O20 O 0.021(3) 0.225(3) 0.0000 0.058(19) Uiso 1 2 d S TU P . .
C3 C -0.0681(10) 0.3120(18) 0.1918(12) 0.077(19) Uiso 1 1 d D U . . .
C4 C -0.0883(15) 0.3255(17) 0.1509(16) 0.11(2) Uiso 1 1 d D U . . .
H4 H -0.1045 0.3695 0.1435 0.128 Uiso 1 1 calc R . . . .
C5 C -0.0840(16) 0.273(3) 0.1216(10) 0.10(2) Uiso 1 1 d D U . . .
H5 H -0.0973 0.2819 0.0947 0.115 Uiso 1 1 calc R . . . .
C6 C -0.0599(11) 0.207(2) 0.1322(12) 0.08(2) Uiso 1 1 d D U . . .
C7 C -0.0397(16) 0.1931(17) 0.1730(15) 0.11(2) Uiso 1 1 d D U . . .
H7 H -0.0236 0.1491 0.1804 0.128 Uiso 1 1 calc R . . . .
C8 C -0.0441(16) 0.246(3) 0.2023(10) 0.09(2) Uiso 1 1 d D U . . .
H8 H -0.0307 0.2367 0.2292 0.111 Uiso 1 1 calc R . . . .
C9 C -0.0741(12) 0.3683(15) 0.2195(9) 0.035(18) Uiso 1 1 d D U . . .
C16 C -0.0216(14) 0.4184(16) 0.2198(11) 0.00(2) Uiso 0.5 1 d DG U . A -2
C15 C -0.029(3) 0.473(3) 0.248(2) 0.03(3) Uiso 1 2 d DG U . A .
C15D C -0.088(4) 0.488(4) 0.267(3) 0.050 Uiso 0 1 d G . . A .
C9D C -0.141(3) 0.437(4) 0.267(3) 0.050 Uiso 0 1 d DG . . A .
C10 C -0.1337(16) 0.378(2) 0.2432(14) 0.04(3) Uiso 0.5 1 d DG U . A -1
C11 C -0.1890(18) 0.327(3) 0.2421(18) 0.09(4) Uiso 0.5 1 d D U . A -1
H11A H -0.2265 0.3438 0.2253 0.130 Uiso 0.5 1 calc GR . . A -1
H11B H -0.2057 0.3184 0.2694 0.130 Uiso 0.5 1 calc GR . . A -1
H11C H -0.1715 0.2839 0.2307 0.130 Uiso 0.5 1 calc GR . . A -1
C12 C -0.0572(13) 0.1561(15) 0.1007(9) 0.057(18) Uiso 1 1 d D U . . .
C17 C 0.0370(15) 0.420(2) 0.1977(12) 0.12(3) Uiso 1 1 d D U . A -2
H H 0.0755 0.4059 0.2147 0.185 Uiso 1 1 calc GR . . . .
HA H 0.0447 0.4662 0.1877 0.185 Uiso 1 1 calc GR . . . .
HB H 0.0328 0.3882 0.1750 0.185 Uiso 1 1 calc GR . . . .
loop_
_atom_site_aniso_label
_atom_site_aniso_U_11
_atom_site_aniso_U_22
_atom_site_aniso_U_33
_atom_site_aniso_U_23
_atom_site_aniso_U_13
_atom_site_aniso_U_12
Hf1 0.070(5) 0.054(5) 0.019(5) 0.000 0.000 0.006(4)
Hf2 0.056(5) 0.056(5) 0.014(6) 0.000 0.000 0.000
loop_
_atom_type_symbol
_atom_type_description
_atom_type_scat_dispersion_real
_atom_type_scat_dispersion_imag
_atom_type_scat_source
C C 0.0033 0.0016 'International Tables Vol C Tables 4.2.6.8 and 6.1.1.4'
H H 0.0000 0.0000 'International Tables Vol C Tables 4.2.6.8 and 6.1.1.4'
Hf Hf -0.5830 6.1852 'International Tables Vol C Tables 4.2.6.8 and 6.1.1.4'
O O 0.0106 0.0060 'International Tables Vol C Tables 4.2.6.8 and 6.1.1.4'
loop_
_exptl_crystal_face_index_h
_exptl_crystal_face_index_k
_exptl_crystal_face_index_l
_exptl_crystal_face_perp_dist
-1 -5 -4 0.0262
1 5 4 0.0262
5 0 1 0.0387
5 1 -4 0.0420
2 2 -5 0.0439
-2 2 -5 0.0466
-5 2 -5 0.0494
-1 0 0 0.0490
-4 -2 5 0.0460
-1 -2 5 0.0402
1 -2 5 0.0346
4 -2 5 0.0406
5 -1 3 0.0407
loop_
_geom_angle_atom_site_label_1
_geom_angle_atom_site_label_2
_geom_angle_atom_site_label_3
_geom_angle
_geom_angle_site_symmetry_1
_geom_angle_site_symmetry_3
Hf1 Hf1 Hf1 90.0 3 11
Hf2 Hf1 Hf1 59.66(4) 9 3
Hf2 Hf1 Hf1 59.66(4) . 11
Hf2 Hf1 Hf1 59.66(4) 9 11
Hf2 Hf1 Hf1 59.66(4) . 3
Hf2 Hf1 Hf2 88.83(14) 9 .
O4 Hf1 Hf1 32.7(12) 10 3
O4 Hf1 Hf1 32.7(12) . 3
O4 Hf1 Hf1 88.7(12) . 11
O4 Hf1 Hf1 35.3(12) 11 11
O4 Hf1 Hf1 88.6(13) 11 3
O4 Hf1 Hf1 35.3(12) 4 11
O4 Hf1 Hf1 88.7(12) 10 11
O4 Hf1 Hf1 88.6(13) 4 3
O4 Hf1 Hf2 35.5(11) . .
O4 Hf1 Hf2 34.0(13) 4 .
O4 Hf1 Hf2 86.6(12) 10 .
O4 Hf1 Hf2 35.5(11) 10 9
O4 Hf1 Hf2 34.0(13) 11 9
O4 Hf1 Hf2 88.8(12) 11 .
O4 Hf1 Hf2 88.8(12) 4 9
O4 Hf1 Hf2 86.6(12) . 9
O4 Hf1 O4 106(2) 11 .
O4 Hf1 O4 69(2) 11 10
O4 Hf1 O4 106(2) 4 10
O4 Hf1 O4 69(2) 4 .
O4 Hf1 O4 65(2) . 10
O4 Hf1 O4 70(2) 4 11
O4 Hf1 O13 76.4(16) 4 .
O4 Hf1 O13 142.0(17) 4 10
O4 Hf1 O13 76.4(16) 11 10
O4 Hf1 O13 142.0(17) 11 .
O4 Hf1 O19 144.3(12) 4 .
O4 Hf1 O19 144.3(12) 11 .
O4 Hf1 O20 86.9(16) 4 .
O4 Hf1 O20 146.7(12) 10 .
O4 Hf1 O20 146.7(12) . .
O4 Hf1 O20 86.9(16) 11 .
O13 Hf1 Hf1 109.2(10) . 11
O13 Hf1 Hf1 108.9(10) . 3
O13 Hf1 Hf1 108.9(10) 10 3
O13 Hf1 Hf1 109.2(10) 10 11
O13 Hf1 Hf2 73.1(10) . .
O13 Hf1 Hf2 161.9(10) . 9
O13 Hf1 Hf2 73.1(10) 10 9
O13 Hf1 Hf2 161.9(10) 10 .
O13 Hf1 O4 139.4(15) . 10
O13 Hf1 O4 78.6(15) . .
O13 Hf1 O4 78.6(15) 10 10
O13 Hf1 O4 139.4(15) 10 .
O13 Hf1 O13 125(2) . 10
O13 Hf1 O19 72.3(11) 10 .
O13 Hf1 O19 72.3(11) . .
O13 Hf1 O20 73.1(11) . .
O13 Hf1 O20 73.1(11) 10 .
O19 Hf1 Hf1 175.9(15) . 11
O19 Hf1 Hf1 85.9(15) . 3
O19 Hf1 Hf2 117.9(9) . .
O19 Hf1 Hf2 117.9(9) . 9
O19 Hf1 O4 87.9(18) . 10
O19 Hf1 O4 87.9(18) . .
O19 Hf1 O20 99.7(19) . .
O20 Hf1 Hf1 84.4(13) . 11
O20 Hf1 Hf1 174.4(13) . 3
O20 Hf1 Hf2 117.0(8) . 9
O20 Hf1 Hf2 117.0(8) . .
Hf1 Hf2 Hf1 91.17(14) 3 11
Hf1 Hf2 Hf1 91.17(14) 9 .
Hf1 Hf2 Hf1 60.67(8) 3 .
Hf1 Hf2 Hf1 60.67(8) 3 9
Hf1 Hf2 Hf1 60.67(8) 9 11
Hf1 Hf2 Hf1 60.67(8) 11 .
O1 Hf2 Hf1 166.7(10) . 9
O1 Hf2 Hf1 109.3(9) 3 .
O1 Hf2 Hf1 166.7(10) 3 11
O1 Hf2 Hf1 113.4(9) 4 .
O1 Hf2 Hf1 109.3(9) . 11
O1 Hf2 Hf1 75.8(9) 2 9
O1 Hf2 Hf1 166.7(10) 4 3
O1 Hf2 Hf1 75.8(9) 3 3
O1 Hf2 Hf1 75.8(9) . .
O1 Hf2 Hf1 166.7(10) 2 .
O1 Hf2 Hf1 109.3(9) 4 9
O1 Hf2 Hf1 75.8(9) 4 11
O1 Hf2 Hf1 113.4(9) 2 11
O1 Hf2 Hf1 113.4(9) 3 9
O1 Hf2 Hf1 109.3(9) 2 3
O1 Hf2 Hf1 113.4(9) . 3
O1 Hf2 O1 74.3(9) 4 .
O1 Hf2 O1 117.3(19) 2 .
O1 Hf2 O1 74.3(9) 3 .
O1 Hf2 O1 117.3(19) 4 3
O1 Hf2 O1 74.3(9) 3 2
O1 Hf2 O1 74.3(9) 4 2
O4 Hf2 Hf1 32.7(13) . 3
O4 Hf2 Hf1 90.7(12) . 11
O4 Hf2 Hf1 36.8(12) 2 9
O4 Hf2 Hf1 32.7(13) 3 9
O4 Hf2 Hf1 32.7(13) 2 11
O4 Hf2 Hf1 90.8(12) 4 9
O4 Hf2 Hf1 32.7(13) 4 .
O4 Hf2 Hf1 36.8(12) 4 11
O4 Hf2 Hf1 36.8(12) . .
O4 Hf2 Hf1 88.4(13) 2 .
O4 Hf2 Hf1 90.8(12) 2 3
O4 Hf2 Hf1 90.8(12) 3 .
O4 Hf2 Hf1 88.4(13) . 9
O4 Hf2 Hf1 88.4(13) 4 3
O4 Hf2 Hf1 36.8(12) 3 3
O4 Hf2 Hf1 88.4(13) 3 11
O4 Hf2 O1 137.8(16) 2 .
O4 Hf2 O1 76.9(15) 4 .
O4 Hf2 O1 147.4(16) 2 3
O4 Hf2 O1 137.8(16) 3 4
O4 Hf2 O1 137.8(16) 4 3
O4 Hf2 O1 147.4(16) 4 2
O4 Hf2 O1 82.8(16) . .
O4 Hf2 O1 147.4(16) 3 .
O4 Hf2 O1 82.8(16) 3 3
O4 Hf2 O1 82.8(16) 4 4
O4 Hf2 O1 82.8(16) 2 2
O4 Hf2 O1 76.9(15) 2 4
O4 Hf2 O1 76.9(15) . 3
O4 Hf2 O1 137.8(16) . 2
O4 Hf2 O1 147.4(16) . 4
O4 Hf2 O1 76.9(15) 3 2
O4 Hf2 O4 107(2) 3 4
O4 Hf2 O4 69.5(13) 3 2
O4 Hf2 O4 69.5(13) 3 .
O4 Hf2 O4 69.5(13) 4 2
O4 Hf2 O4 107(2) 2 .
O4 Hf2 O4 69.5(13) 4 .
C12 O1 Hf2 137(2) . .
Hf1 O4 Hf1 112.0(19) 3 .
Hf1 O4 Hf2 113(2) 3 .
Hf2 O4 Hf1 107.7(18) . .
C12 O13 Hf1 141(3) . .
C4 C3 C9 116(4) . .
C8 C3 C4 119.4(11) . .
C8 C3 C9 124(4) . .
C3 C4 H4 120.1 . .
C5 C4 C3 120(3) . .
C5 C4 H4 120.1 . .
C4 C5 H5 119.6 . .
C6 C5 C4 121(3) . .
C6 C5 H5 119.6 . .
C5 C6 C7 119.4(11) . .
C5 C6 C12 117(4) . .
C7 C6 C12 123(4) . .
C6 C7 H7 120.1 . .
C8 C7 C6 120(3) . .
C8 C7 H7 120.1 . .
C3 C8 C7 121(3) . .
C3 C8 H8 119.6 . .
C7 C8 H8 119.6 . .
C16 C9 C3 118.2(12) . .
C10 C9 C3 121.5(11) . .
C9 C16 C15 116.5 . .
C17 C16 C9 128.3(2) . .
C17 C16 C15 115.1(2) . .
C16 C15 C15 116(5) . 2_565
C16 C15 C15 121(6) . 8
C15 C15 C16 117(10) 7_455 .
C15 C15 C15 90(3) 7_455 2_565
C15 C15 C15 85(8) 7_455 8
C15 C15 C15 6(10) 2_565 8
C15 C15 C15D 76(10) 7_455 .
C15D C15 C16 124.1 . .
C15D C15 C15 114(5) . 8
C15D C15 C15 118(7) . 2_565
C15 C15D C9 114(8) 7_455 7_455
C15 C15D C9 116(3) . 7_455
C15 C15D C15 6(9) 7_455 .
C15 C15D C9D 118(2) 7_455 .
C9D C15D C9 20(4) . 7_455
C9D C15D C15 117.7 . .
C9 C9D C15D 93(5) 7_455 .
C9 C9D C10 95(8) 7_455 .
C15D C9D C10 120.0 . .
C9 C10 C11 120.0(2) . .
C9D C10 C9 120.0 . .
C9D C10 C11 120.0(2) . .
C10 C11 H11A 109.4 . .
C10 C11 H11B 109.5 . .
C10 C11 H11C 109.5 . .
H11A C11 H11B 109.5 . .
H11A C11 H11C 109.5 . .
H11B C11 H11C 109.5 . .
O1 C12 C6 119(3) . .
O13 C12 O1 112(3) . .
O13 C12 C6 125(3) . .
C16 C17 H 109.6 . .
C16 C17 HA 109.4 . .
C16 C17 HB 109.5 . .
H C17 HA 109.5 . .
H C17 HB 109.5 . .
HA C17 HB 109.5 . .
loop_
_geom_bond_atom_site_label_1
_geom_bond_atom_site_label_2
_geom_bond_distance
_geom_bond_site_symmetry_2
Hf1 Hf1 3.513(6) 11
Hf1 Hf1 3.513(6) 3
Hf1 Hf2 3.477(5) .
Hf1 Hf2 3.477(5) 9
Hf1 O4 2.05(4) 11
Hf1 O4 2.05(4) 4
Hf1 O4 2.19(4) 10
Hf1 O4 2.19(4) .
Hf1 O13 2.142(18) 10
Hf1 O13 2.142(18) .
Hf1 O19 2.18(6) .
Hf1 O20 2.31(5) .
Hf2 Hf1 3.477(5) 11
Hf2 Hf1 3.477(5) 9
Hf2 Hf1 3.477(5) 3
Hf2 O1 2.124(18) 2
Hf2 O1 2.124(18) .
Hf2 O1 2.124(18) 4
Hf2 O1 2.124(18) 3
Hf2 O4 2.12(4) 2
Hf2 O4 2.12(4) 4
Hf2 O4 2.12(4) 3
Hf2 O4 2.12(4) .
O1 C12 1.408(9) .
O4 Hf1 2.05(4) 3
O13 C12 1.407(9) .
C3 C4 1.41(4) .
C3 C8 1.39(4) .
C3 C9 1.411(6) .
C4 H4 0.9300 .
C4 C5 1.390(10) .
C5 H5 0.9300 .
C5 C6 1.39(4) .
C6 C7 1.41(4) .
C6 C12 1.411(6) .
C7 H7 0.9300 .
C7 C8 1.391(10) .
C8 H8 0.9300 .
C9 C16 1.3900 .
C9 C10 1.3900 .
C16 C15 1.3901 .
C16 C17 1.333(4) .
C15 C15 1.53(6) 2_565
C15 C15 0.15(19) 7_455
C15 C15 1.53(6) 8
C15 C15D 1.3354 .
C15D C9 1.50(7) 7_455
C15D C15 1.31(9) 7_455
C15D C9D 1.3900 .
C9D C9 0.52(12) 7_455
C9D C10 1.3900 .
C10 C11 1.444(4) .
C11 H11A 0.9600 .
C11 H11B 0.9600 .
C11 H11C 0.9600 .
C17 H 0.9600 .
C17 HA 0.9600 .
C17 HB 0.9600 .
loop_
_geom_torsion_atom_site_label_1
_geom_torsion_atom_site_label_2
_geom_torsion_atom_site_label_3
_geom_torsion_atom_site_label_4
_geom_torsion
_geom_torsion_site_symmetry_1
_geom_torsion_site_symmetry_4
Hf1 O13 C12 O1 10(5) . .
Hf1 O13 C12 C6 168(3) . .
Hf2 O1 C12 O13 -16(5) . .
Hf2 O1 C12 C6 -175(2) . .
C3 C4 C5 C6 0.0(4) . .
C3 C9 C16 C15 -179(5) . .
C3 C9 C16 C17 -3(5) . .
C3 C9 C10 C9D -174(5) . .
C3 C9 C10 C11 5(5) . .
C4 C3 C8 C7 0.0(3) . .
C4 C3 C9 C16 -80(3) . .
C4 C3 C9 C10 93(3) . .
C4 C5 C6 C7 0.0(3) . .
C4 C5 C6 C12 180.0(2) . .
C5 C6 C7 C8 0.0(4) . .
C5 C6 C12 O1 173(2) . .
C5 C6 C12 O13 17(3) . .
C6 C7 C8 C3 0.0(5) . .
C7 C6 C12 O1 -7(2) . .
C7 C6 C12 O13 -163(3) . .
C8 C3 C4 C5 0.0(4) . .
C8 C3 C9 C16 100(3) . .
C8 C3 C9 C10 -87(3) . .
C9 C3 C4 C5 180.0(2) . .
C9 C3 C8 C7 180.0(2) . .
C9 C16 C15 C15 76(28) . 7_455
C9 C16 C15 C15 -180(6) . 2_565
C9 C16 C15 C15 177(7) . 8
C9 C16 C15 C15D -15.1 . .
C9 C15D C9D C10 -97(7) 7_455 .
C9 C9D C10 C9 -96(5) 7_455 .
C9 C9D C10 C11 86(5) 7_455 .
C16 C15 C15D C9 38(4) . 7_455
C16 C15 C15D C15 113(23) . 7_455
C16 C15 C15D C9D 15.2 . .
C15 C15 C15D C9 -154(11) 8 7_455
C15 C15 C15D C9 -76(26) 7_455 7_455
C15 C15 C15D C9 -158(8) 2_565 7_455
C15 C15 C15D C15 -78(20) 8 7_455
C15 C15 C15D C15 -82(19) 2_565 7_455
C15 C15 C15D C9D 180(5) 2_565 .
C15 C15 C15D C9D -98(23) 7_455 .
C15 C15 C15D C9D -176(8) 8 .
C15 C15D C9D C9 90(8) . 7_455
C15 C15D C9D C9 83(16) 7_455 7_455
C15 C15D C9D C10 -14(10) 7_455 .
C15 C15D C9D C10 -7.2 . .
C15D C9D C10 C9 0.0 . .
C15D C9D C10 C11 -178.3(5) . .
C12 C6 C7 C8 180.0(2) . .
C17 C16 C15 C15 3(6) . 2_565
C17 C16 C15 C15 -101(28) . 7_455
C17 C16 C15 C15 0(7) . 8
C17 C16 C15 C15D 167.72(13) . .
loop_
_exptl_oxdiff_crystal_face_indexfrac_h
_exptl_oxdiff_crystal_face_indexfrac_k
_exptl_oxdiff_crystal_face_indexfrac_l
_exptl_oxdiff_crystal_face_x
_exptl_oxdiff_crystal_face_y
_exptl_oxdiff_crystal_face_z
-0.9944 -5.0065 -4.0047 -0.2025 0.0459 0.0006
0.9944 5.0065 4.0047 0.2025 -0.0459 -0.0006
4.9980 0.0012 0.9992 0.0039 -0.1714 0.0732
4.9990 1.0010 -4.0010 -0.0169 -0.2044 -0.0352
1.9995 2.0013 -4.9998 0.0087 -0.1101 -0.1034
-1.9992 2.0005 -4.9990 0.0141 0.0313 -0.1473
-4.9982 1.9999 -4.9984 0.0181 0.1374 -0.1803
-0.9997 -0.0002 0.0002 0.0013 0.0353 -0.0110
-3.9989 -2.0016 5.0002 -0.0060 0.1808 0.0814
-0.9999 -2.0011 4.9996 -0.0101 0.0747 0.1143
0.9995 -2.0007 4.9992 -0.0128 0.0040 0.1363
3.9985 -2.0001 4.9986 -0.0168 -0.1020 0.1693
4.9981 -0.9993 2.9988 -0.0071 -0.1544 0.1267
