#------------------------------------------------------------------------------
#$Date: 2019-11-25 22:30:06 +0200 (Mon, 25 Nov 2019) $
#$Revision: 241967 $
#$URL: file:///home/coder/svn-repositories/cod/cif/4/13/18/4131839.cif $
#------------------------------------------------------------------------------
#
# This file is available in the Crystallography Open Database (COD),
# http://www.crystallography.net/
#
# All data on this site have been placed in the public domain by the
# contributors.
#
data_4131839
loop_
_publ_author_name
'Yan, Yong'
'O'Connor, Alice E'
'Kanthasamy, Gopikkaa'
'Atkinson, George'
'Allan, David R.'
'Blake, Alexander J.'
'Schr\"oder, Martin'
_publ_section_title
;
 Unusual and Tunable Negative Linear Compressibility in the Metal-Organic
 Framework MFM-133(M) (M = Zr, Hf).
;
_journal_issue                   11
_journal_name_full               'Journal of the American Chemical Society'
_journal_page_first              3952
_journal_page_last               3958
_journal_paper_doi               10.1021/jacs.7b11747
_journal_volume                  140
_journal_year                    2018
_chemical_formula_moiety         'C88 H72 Hf6 O32'
_chemical_formula_sum            'C88 H72 Hf6 O32'
_chemical_formula_weight         2708.36
_space_group_crystal_system      tetragonal
_space_group_IT_number           128
_space_group_name_Hall           '-P 4 2n'
_space_group_name_H-M_alt        'P 4/m n c'
_atom_sites_solution_hydrogens   geom
_audit_creation_date             2017-02-03
_audit_creation_method
;
Olex2 1.2
(compiled 2015.09.30 svn.r3233 for OlexSys, GUI svn.r5103)
;
_cell_angle_alpha                90
_cell_angle_beta                 90
_cell_angle_gamma                90
_cell_formula_units_Z            2
_cell_length_a                   19.177(2)
_cell_length_b                   19.177(2)
_cell_length_c                   32.827(5)
_cell_measurement_reflns_used    1440
_cell_measurement_temperature    293(2)
_cell_measurement_theta_max      21.1420
_cell_measurement_theta_min      1.8790
_cell_volume                     12072(3)
_computing_cell_refinement       'CrysAlisPro 1.171.38.41 (Rigaku OD, 2015)'
_computing_data_collection       'CrysAlisPro 1.171.38.41 (Rigaku OD, 2015)'
_computing_data_reduction        'CrysAlisPro 1.171.38.41 (Rigaku OD, 2015)'
_computing_molecular_graphics    'Olex2 (Dolomanov et al., 2009)'
_computing_publication_material  'Olex2 (Dolomanov et al., 2009)'
_computing_structure_refinement  'ShelXL (Sheldrick, 2015)'
_diffrn_ambient_temperature      293(2)
_diffrn_detector                 'CCD plate'
_diffrn_measured_fraction_theta_full 0.731
_diffrn_measured_fraction_theta_max 0.731
_diffrn_measurement_details
;
List of Runs (angles in degrees, time in seconds):

  # Type    Start    End  Width  t~exp~   \w     \q     \k     \f   Frames
--------------------------------------------------------------------------
  1  \w   -105.00 -74.20   0.20    0.20    --   20.00  70.00 155.77  154
  2  \w   -105.00 -74.40   0.20    0.20    --   20.00  70.00 -24.23  153
  3  \w   -106.00 -66.00   0.20    0.20    --  -20.00 -70.00-155.77  200
  4  \w   -105.60 -66.00   0.20    0.20    --  -20.00 -70.00  24.23  198
  5  \w   -150.00 -94.20   0.20    0.20    --  -20.00  70.00 -24.23  279
  6  \w   -148.80 -94.00   0.20    0.20    --  -20.00  70.00 155.77  274
  7  \w    -96.00 -30.00   0.20    0.20    --   20.00 -70.00  24.23  330
  8  \w    -96.00 -30.00   0.20    0.20    --   20.00 -70.00-155.77  330
;
_diffrn_measurement_device       'abstract diffractometer'
_diffrn_measurement_device_type
'dectris-CrysAlisPro-abstract goniometer imported dectris images'
_diffrn_measurement_method       '\w scans'
_diffrn_orient_matrix_type
'CrysAlisPro convention (1999,Acta A55,543-557)'
_diffrn_orient_matrix_UB_11      0.0017750000
_diffrn_orient_matrix_UB_12      -0.0300672000
_diffrn_orient_matrix_UB_13      -0.0113829000
_diffrn_orient_matrix_UB_21      0.0263144000
_diffrn_orient_matrix_UB_22      0.0143412000
_diffrn_orient_matrix_UB_23      -0.0115898000
_diffrn_orient_matrix_UB_31      0.0244277000
_diffrn_orient_matrix_UB_32      -0.0134123000
_diffrn_orient_matrix_UB_33      0.0132721000
_diffrn_radiation_monochromator  synchrotron
_diffrn_radiation_probe          x-ray
_diffrn_radiation_wavelength     0.6889
_diffrn_reflns_av_R_equivalents  0.8787
_diffrn_reflns_av_unetI/netI     0.5450
_diffrn_reflns_Laue_measured_fraction_full 0.731
_diffrn_reflns_Laue_measured_fraction_max 0.731
_diffrn_reflns_limit_h_max       21
_diffrn_reflns_limit_h_min       -21
_diffrn_reflns_limit_k_max       15
_diffrn_reflns_limit_k_min       -15
_diffrn_reflns_limit_l_max       33
_diffrn_reflns_limit_l_min       -33
_diffrn_reflns_number            24533
_diffrn_reflns_point_group_measured_fraction_full 0.731
_diffrn_reflns_point_group_measured_fraction_max 0.731
_diffrn_reflns_theta_full        22.728
_diffrn_reflns_theta_max         22.728
_diffrn_reflns_theta_min         1.888
_diffrn_source                   synchrotron
_exptl_absorpt_coefficient_mu    2.364
_exptl_absorpt_correction_type   none
_exptl_crystal_density_diffrn    0.745
_exptl_crystal_F_000             2568
_refine_diff_density_max         2.554
_refine_diff_density_min         -2.562
_refine_diff_density_rms         0.301
_refine_ls_extinction_coef       0.0004(3)
_refine_ls_extinction_expression Fc^*^=kFc[1+0.001xFc^2^\l^3^/sin(2\q)]^-1/4^
_refine_ls_extinction_method     'SHELXL-2014/7 (Sheldrick 2014'
_refine_ls_goodness_of_fit_ref   0.964
_refine_ls_hydrogen_treatment    constr
_refine_ls_matrix_type           full
_refine_ls_number_parameters     77
_refine_ls_number_reflns         3345
_refine_ls_number_restraints     73
_refine_ls_restrained_S_all      2.587
_refine_ls_R_factor_all          0.3583
_refine_ls_R_factor_gt           0.2051
_refine_ls_shift/su_max          0.061
_refine_ls_shift/su_mean         0.017
_refine_ls_structure_factor_coef Fsqd
_refine_ls_weighting_details
'w=1/[\s^2^(Fo^2^)+(0.2000P)^2^] where P=(Fo^2^+2Fc^2^)/3'
_refine_ls_weighting_scheme      calc
_refine_ls_wR_factor_gt          0.4583
_refine_ls_wR_factor_ref         0.5498
_reflns_Friedel_coverage         0.000
_reflns_number_gt                874
_reflns_number_total             3345
_reflns_threshold_expression     'I > 2\s(I)'
_cod_data_source_file            HfMOF_All.cif
_cod_data_source_block           HfMOF_17.6kbar
_cod_original_cell_volume        12073(3)
_cod_database_code               4131839
_chemical_oxdiff_formula         'C88 H72 Hf6 O32'
_shelx_space_group_comment
;
The symmetry employed for this shelxl refinement is uniquely defined
by the following loop, which should always be used as a source of
symmetry information in preference to the above space-group names.
They are only intended as comments.
;
_reflns_odcompleteness_completeness 53.52
_reflns_odcompleteness_iscentric 1
_reflns_odcompleteness_theta     25.50
_olex2_refinement_description
;
1. Fixed Uiso
 At 1.2 times of:
  All C(H) groups
 At 1.5 times of:
  All C(H,H,H) groups
2. Restrained distances
 O13-C12
 1.41 with sigma of 0.01
 C12-O1
 1.41 with sigma of 0.01
 C6-C12 = C9-C3
 1.41 with sigma of 0.02
 C6-C12 = C9-C3
 1.41 with sigma of 0.01
 C9-C3 = C6-C12
 1.41 with sigma of 0.01
 Hf1-O13 = Hf2-O1
 2.11 with sigma of 0.02
 O1-C12 = O13-C12
 1.41 with sigma of 0.02
 C9-C15 = C9-C10
 1.41 with sigma of 0.02
 C10-C11 = C16-C17
 1.45 with sigma of 0.005
 C4-C5 = C7-C8
 1.39 with sigma of 0.01
 C6-C12 \\sim C9-C3
 with sigma of 0.01
 C9-C3 \\sim C6-C12
 with sigma of 0.01
 C11-C10 \\sim C16-C15 \\sim C17-C15
 with sigma of 0.01
 C9-C17 \\sim C15-C17 \\sim C9-C11 \\sim C11-C9D
 with sigma of 0.005
 C3-C7 \\sim C8-C6 \\sim C7-C5 \\sim C6-C4 \\sim C5-C3 \\sim C4-C8
 with sigma of 0.01
3. Restrained planarity
 C12, C6, C5, C4, C3, C9, C8, C7
 with sigma of 0.01
 C9, C3, C8, C7, C6, C12, C5, C4
 with sigma of 0.01
 C9, C3, C8, C4
 with sigma of 0.01
 C17, C15, C16, C10, C9, C11
 with sigma of 0.01
4. Rigid bond restraints
 C6, Hf2, Hf1, C8, C3, C5, C4, C7, C9, C10, C11, C12, C15, C16, C17, O1, O4,
 O13, O19, O20
 with sigma for 1-2 distances of 0.01 and sigma for 1-3 distances of 0.01
5. Uiso/Uaniso restraints and constraints
C6 \\sim Hf2 \\sim Hf1 \\sim C8 \\sim C3 \\sim C5 \\sim C4 \\sim C7 \\sim C9
\\sim C10 \\sim C11 \\sim C12 \\sim C15 \\sim C16 \\sim C17 \\sim O1 \\sim O4
\\sim O13 \\sim O19 \\sim O20: within 1.7A with sigma of 0.04 and sigma for
terminal atoms of 0.08
6. Others
 Fixed Sof: C16(0.5) C15(0.5) C15D(0.00001) C9D(0.00001) C10(0.5) C11(0.5)
 H11A(0.5) H11B(0.5) H11C(0.5)
 Fixed Uiso: C15D(0.05) C9D(0.05)
7.a Aromatic/amide H refined with riding coordinates:
 C4(H4), C5(H5), C7(H7), C8(H8)
7.b Fitted hexagon refined as free rotating group:
 C9(C16,C15,C15D,C9D,C10)
7.c Idealised Me refined as rotating group:
 C11(H11A,H11B,H11C), C17(H,HA,HB)
;
_shelx_res_file
;
    gkme_2_.res created by SHELXL-2014/7

TITL GKME_2_ in P4/mnc
REM P4/mnc (#128 in standard setting)
CELL 0.6889 19.177256 19.177256 32.827499 90 90 90
ZERR 2 0.002098 0.002098 0.005289 0 0 0
LATT 1
SYMM -X,-Y,+Z
SYMM -Y,+X,+Z
SYMM +Y,-X,+Z
SYMM 0.5-X,0.5+Y,0.5-Z
SYMM 0.5+X,0.5-Y,0.5-Z
SYMM 0.5+Y,0.5+X,0.5-Z
SYMM 0.5-Y,0.5-X,0.5-Z
SFAC C H Hf O
DISP C 0.003 0.001 10.848
DISP H -0 0 0.623
DISP Hf -0.293 6.108 23452.874
DISP O 0.011 0.006 30.192
UNIT 176 136 12 64
DFIX 1.41 0.01 O13 C12
DFIX 1.41 0.01 C12 O1
DFIX 1.41 C6 C12 C9 C3
DFIX 1.41 0.01 C6 C12 C9 C3
DFIX 1.41 0.01 C9 C3 C6 C12
DFIX 2.11 Hf1 O13 Hf2 O1
DFIX 1.41 O1 C12 O13 C12
DFIX 1.41 C9 C15 C9 C10
DFIX 1.45 0.005 C10 C11 C16 C17
DFIX 1.39 0.01 C4 C5 C7 C8
SADI 0.01 C6 C12 C9 C3
SADI 0.01 C9 C3 C6 C12
SADI 0.01 C11 C10 C16 C15 C17 C15
SADI 0.005 C9 C17 C15 C17 C9 C11 C11 C9D
SADI 0.01 C3 C7 C8 C6 C7 C5 C6 C4 C5 C3 C4 C8
FLAT 0.01 C12 C6 C5 C4 C3 C9 C8 C7
FLAT 0.01 C9 C3 C8 C7 C6 C12 C5 C4
FLAT 0.01 C9 C3 C8 C4
FLAT 0.01 C17 C15 C16 C10 C9 C11
DELU C6 Hf2 Hf1 C8 C3 C5 C4 C7 C9 C10 C11 C12 C15 C16 C17 O1 O4 O13 O19 O20
SIMU 0.04 0.08 1.7 C6 Hf2 Hf1 C8 C3 C5 C4 C7 C9 C10 C11 C12 C15 C16 C17 O1 =
 O4 O13 O19 O20

L.S. 6
PLAN  9
MPLA 6 C3 C4 C5 C6 C7 C8
MPLA 4 C9 C10 C15 C16
BIND Hf1 Hf2
CONN 1 0 C17
FREE C17 C15D
FREE C17 C15
BIND C16 C17
BOND
MORE -1
BOND $H
CONF
fmap 2
acta 52
OMIT -4 52
OMIT 2 5 3
OMIT 2 2 2
OMIT 1 6 0
OMIT 0 0 6
OMIT 2 3 0
OMIT 1 2 0
OMIT 0 3 3
OMIT 4 5 5
OMIT 2 5 0
OMIT 4 4 4
OMIT 3 5 3
OMIT 1 2 2
OMIT 0 5 9
OMIT 0 4 6
OMIT 3 4 4
OMIT 7 8 9
OMIT 3 4 2
OMIT 0 5 5
OMIT 4 6 3
OMIT 1 3 3
OMIT 8 8 8
OMIT 0 6 2
OMIT 8 9 9
OMIT 1 3 1
REM <olex2.extras>
REM <HklSrc "%.\\GKME_2_.hkl">
REM </olex2.extras>

WGHT    0.200000
EXTI    0.000350
FVAR       0.11503
HF1   3   -0.042960    0.122696    0.000000    10.50000    0.11384    0.09923 =
         0.03041    0.00000    0.00000    0.01483
HF2   3    0.000000    0.000000    0.074475    10.25000    0.09410    0.09410 =
         0.02421    0.00000    0.00000    0.00000
O1    4   -0.020026    0.093612    0.107519    11.00000    0.04788
O4    4   -0.081119    0.033002    0.035796    11.00000    0.04138
O13   4   -0.064030    0.160870    0.061411    11.00000    0.07004
O19   4   -0.155135    0.155610    0.000000    10.50000    0.06491
O20   4    0.005764    0.231879    0.000000    10.50000    0.10328
C3    1   -0.070436    0.307074    0.190877    11.00000    0.07891
C4    1   -0.086092    0.327767    0.151344    11.00000    0.11370
SPEC 0.3
AFIX  43
H4    2   -0.098971    0.373125    0.144723    11.00000   -1.20000
AFIX   0
C5    1   -0.080861    0.274938    0.122575    11.00000    0.14390
AFIX  43
H5    2   -0.090680    0.285421    0.095516    11.00000   -1.20000
AFIX   0
C6    1   -0.063305    0.213049    0.131521    11.00000    0.09946
C7    1   -0.047679    0.192402    0.171014    11.00000    0.09702
AFIX  43
H7    2   -0.034791    0.147055    0.177657    11.00000   -1.20000
AFIX   0
C8    1   -0.052960    0.245400    0.199807    11.00000    0.09469
AFIX  43
H8    2   -0.043175    0.234948    0.226874    11.00000   -1.20000
AFIX  66
C9    1   -0.077912    0.365659    0.216510    11.00000    0.08497
PART -2
C16   1   -0.021917    0.411141    0.220623    10.50000    0.03771
PART 0
C15   1   -0.022001    0.460829    0.251451    10.50000    0.07085
C15D  1   -0.078079    0.465036    0.278165    10.00001   10.05000
C9D   1   -0.134074    0.419554    0.274051    10.00001   10.05000
PART -1
C10   1   -0.133991    0.369866    0.243224    10.50000    0.13449
AFIX   0
C11   1   -0.191887    0.322807    0.238970    10.50000    0.14018
AFIX 137
H11A  2   -0.198115    0.311368    0.210734    10.50000   -1.50000
H11B  2   -0.233419    0.344618    0.249177    10.50000   -1.50000
H11C  2   -0.182788    0.281008    0.254159    10.50000   -1.50000
AFIX   0
PART 0
C12   1   -0.056954    0.157006    0.103950    11.00000    0.07627
PART -2
C17   1    0.035453    0.413000    0.197096    11.00000    0.17963
PART 0
AFIX 137
H     2    0.075887    0.419280    0.213942    11.00000   -1.50000
HA    2    0.031928    0.451068    0.178218    11.00000   -1.50000
HB    2    0.039501    0.369978    0.182333    11.00000   -1.50000
AFIX   0
HKLF 4

REM  GKME_2_ in P4/mnc
REM R1 =  0.2051 for     874 Fo > 4sig(Fo)  and  0.3583 for all    3345 data
REM     77 parameters refined using     73 restraints

END

WGHT      0.2000      0.0000

REM Highest difference peak  2.554,  deepest hole -2.562,  1-sigma level  0.301
Q1    1   0.0000  0.0000  0.0195  10.25000  0.05    1.85
Q2    1   0.0000  0.0000  0.1282  10.25000  0.05    1.66
Q3    1  -0.1350  0.1217  0.0331  11.00000  0.05    1.58
Q4    1   0.0051  0.0769  0.0735  11.00000  0.05    1.48
Q5    1  -0.0419  0.2234  0.0312  11.00000  0.05    1.42
Q6    1   0.0031  0.1183  0.1138  11.00000  0.05    1.38
Q7    1  -0.1158  0.0606  0.0357  11.00000  0.05    1.16
Q8    1  -0.1978  0.1032  0.0838  11.00000  0.05    1.05
Q9    1  -0.0021  0.0525  0.2111  11.00000  0.05    1.01
;
_shelx_res_checksum              17014
_shelx_hkl_file
;
   0   0  -3-1.93839 3.64665   3
   0   0   3-2.60150 6.49412   5
   0   0  -5 3.25733 6.84732   3
   0   0  -6 7.84379 10.2630   3
   0  -1   2-2.13581 6.86289   5
   1   0   3 4341.53 3014.01   8
  -1   0  -4-2.64958 7.18931   3
   0  -1   4-3.40385 12.7664   5
   1   0   4-2.26300 6.60617   8
   1   0   4 3.55892 10.1516   5
   0   1  -4-4.83864 8.16640   3
   1   0   5 346.833 187.148   5
  -1   0  -5 102.634 183.640   3
   1   0   5 469.454 186.557   8
   1   0   6-5.33869 10.8000   5
   0   1  -6-3.64353 12.1721   3
   1   0   6-3.39605 11.3709   8
   0  -1   6 5.12070 20.4303   5
  -1   0  -6-3.97623 10.6470   3
   0  -1   7 574.991 199.013   5
   1   0   7 305.463 192.574   8
   0   1  -7 692.207 196.672   3
  -1   0  -7 9.28618 189.204   3
  -1   0  -8-5.31161 15.8098   3
   0  -1   8-6.96069 24.9000   5
   0   1  -8-5.04519 17.3399   3
   1   0   8 13.6161 14.9351   8
   0   1  -9 2677.82 1862.39   3
   0  -1  11 5100.77 3546.78   5
   0   1 -12 24.0160 35.2434   3
   0  -1  12-10.7474 40.4390   5
   0  -1  12 6.88445 34.1061   8
   0   1 -13 866.044 1525.32   3
   0  -1  13 5698.82 1536.72   8
   0  -1  13 4080.73 1538.73   5
   0   1 -14-27.9386 47.7310   3
   0  -1  14-12.5014 47.0354   5
   0  -1  14 8.01086 42.0019   8
   0  -1  15 5912.64 798.745   8
   0   1 -15 258.970 767.534   3
   0  -1  16 9.12254 49.9334   8
   0   1 -16 21.2053 39.4495   3
   1  -1   2 5822.14 5600.04   8
  -1   1  -2 9133.10 5600.12   2
   1  -1   2 9616.95 5600.83   5
  -1  -1   2 8409.20 5600.41   8
   1  -1   3-2.84812 8.96095   5
  -1  -1   3 4.20611 10.4542   8
   1  -1   3 2.45090 10.0484   8
   1   1  -3 1.83488 6.07498   3
  -1   1  -3-2.01757 7.78163   3
  -1  -1   3 2.58027 9.93750   5
   1  -1   4 553.826 383.238   6
   1  -1   4 157.479 382.386   7
   1   1  -4 793.164 384.469   3
   1  -1   4 1033.03 386.747   5
  -1   1  -4 122.817 384.066   1
  -1  -1   4 953.667 386.498   5
  -1   1  -4 808.798 384.900   3
  -1  -1   4 830.975 384.973   8
  -1  -1   5 8.22602 15.8171   5
  -1   1  -5-3.04286 10.0327   3
   1   1  -5 5.80529 11.8907   3
   1  -1   5 2.05094 8.65620   6
  -1  -1   5-2.97652 11.4549   8
   1  -1   5-3.26434 12.1346   8
   1  -1   5-4.31766 16.6029   5
   1  -1   5 4.64704 9.52590   7
  -1   1  -5-18.8038 35.9603   1
  -1  -1   6 507.443 313.454   5
   1  -1   6 506.679 313.156   5
  -1  -1   6 409.253 311.269   8
   1  -1   6 412.441 311.462   8
  -1  -1   7-3.99773 16.8907   8
   1  -1   7-6.02820 21.6134   5
   1   1  -7 4.36729 14.4446   3
  -1  -1   7-6.02189 20.7478   5
   1  -1   7 12.3790 17.4300   8
  -1   1  -7 4.28811 15.4086   3
  -1  -1   8 920.448 523.845   5
   1  -1   8 953.091 524.084   5
   1  -1   8 693.483 520.624   8
   1   1  -8 617.837 520.220   3
  -1  -1   9 23.5723 32.2056   5
  -1   1  -9 5.72734 22.0996   3
   1  -1   9 7.90495 29.4143   5
   1   1  -9-11.7277 23.3581   3
   1  -1  10 2302.07 1602.03   8
   1  -1  11 6.37848 32.2930   8
   1  -1  11 68.4113 44.7446   5
  -1   1 -11 14.5731 30.9506   3
   1   1 -11 28.6496 30.4907   3
  -1  -1  11 9.78012 34.0208   5
  -1  -1  11-6.21988 29.7213   8
  -1  -1  12 3188.55 2762.14   5
   1  -1  12 4194.10 2760.97   8
  -1  -1  12 4335.22 2761.23   8
   1   1 -13 8.60569 27.7448   3
  -1  -1  13 11.5461 40.1931   5
  -1   1 -13 8.72428 37.2743   3
   1  -1  13-11.7180 49.7364   5
   1  -1  13 15.0136 40.6130   8
  -1  -1  13 14.6919 34.0040   8
   1  -1  14 3160.22 906.036   5
  -1  -1  14 3454.90 898.456   8
   1  -1  14 3461.04 899.257   8
  -1   1 -14 459.339 885.327   3
  -1  -1  14 2844.79 902.897   5
   1   1 -14 222.241 884.255   3
  -1   1 -15-10.0206 38.6666   3
   1  -1  15 8.62438 42.9290   8
  -1  -1  15 8.52141 42.4199   8
   1  -1  15-40.3729 50.0832   5
   1   1 -15-9.90985 36.9575   3
  -1   1 -16 74.6277 655.216   3
   1  -1  16 1605.91 667.170   8
  -2   0   0 8945.24 6209.33   4
   2   0  -1-2.63518 10.4586   7
  -2   0   1 1.97298 8.53332   4
   2   0  -1 2.51195 7.47767   6
   2   0   1-2.49037 8.19566   6
   2   0   2 2158.27 859.027   7
  -2   0  -2 1379.68 858.669   1
  -2   0   2 767.464 856.199   4
   2   0  -2 1105.86 856.953   7
   2   0   2 1763.26 857.969   6
   2   0   3-1.74990 6.94572   8
  -2   0  -3-3.92398 44.7290   1
   2   0   3-2.70689 6.57957   5
  -2   0   3 2.26544 5.94798   4
  -2   0  -3-2.01657 5.66026   3
   2   0   3 3.36030 11.0580   7
   0  -2   3 3.74679 14.8699   5
   2   0   3 3.00086 8.93270   6
   2   0  -3 2.75717 7.73818   7
  -2   0  -4 262.714 190.523   3
  -2   0  -4 4.28507 193.874   1
   2   0   4 7.41666 188.915   7
   0   2  -5-3.42505 14.6075   3
  -2   0  -5 18.7254 42.6331   1
   2   0   5-2.87509 10.1571   8
   2   0   5-4.52993 12.1210   5
  -2   0  -5-3.37037 9.15408   3
   0  -2   5-4.92591 19.0735   5
   0   2  -6 515.495 209.266   3
   0  -2   6 790.784 214.941   5
   2   0   6 368.358 207.371   8
  -2   0  -6 48.4219 204.570   3
   2   0   6 271.137 208.041   5
  -2   0  -7-4.70205 12.3438   3
   2   0   7 4.01235 16.4142   8
   0   2  -7 4.37960 17.9164   3
   0  -2   7-12.3284 29.3306   5
  -2   0  -8-10.7415 17.0587   3
   2   0   8 9.16700 16.6101   8
   0  -2   8 35.0101 32.6924   5
   0   2  -8 4.90101 21.9075   3
   0  -2   8-5.62718 26.9065   8
   0   2  -9-1.93562 10.0687   7
   0  -2  10 2975.04 2069.32   8
   0   2 -11-6.79270 29.4652   3
   0  -2  11 9.54608 44.4823   5
   0  -2  11-7.04104 38.3308   8
   0  -2  12 1803.39 1349.78   5
   0  -2  12 2021.96 1347.77   8
   0   2 -13-8.33022 34.1571   3
   0  -2  13 22.9880 55.9156   5
   0  -2  13 7.86454 42.0844   8
   0   2 -14 1037.48 1002.99   3
   0  -2  14 1736.31 1004.81   8
   0  -2  14 1704.57 1009.35   5
   0   2 -15 9.96875 38.3292   3
   0  -2  15 13.3665 45.9587   5
   0  -2  15-26.9729 48.0563   8
   0  -2  16 572.974 313.002   8
   0  -2  16 539.399 312.419   5
   0   2 -16 285.852 301.004   3
   0   2 -17 11.3969 46.6721   3
   0  -2  17-20.2079 53.0894   8
   0  -2  17 15.3038 62.6413   5
   0   2 -18 12.0141 60.2528   3
   0  -2  18 112.923 82.9372   5
   0  -2  18 95.8711 76.5203   8
   0  -2  19-22.3886 63.9431   8
   0  -2  19 16.9487 58.4064   5
   0   2 -19 25.2480 50.2802   3
   0   2 -20 13.2243 48.8335   3
   0  -2  20 93.8232 79.4538   8
   0  -2  20-17.7551 71.7338   5
   0   2 -21-13.8163 46.3607   3
   0  -2  21-12.2532 76.4604   8
  -2   1   0 52.1153 22.5241   4
   2   1   0 38.4090 21.3476   6
   2   1   0 2.86711 20.7040   7
  -2  -1   0 3.34596 40.9119   1
   2  -1   0 6.09437 19.5038   6
   2  -1   1 2302.92 443.371   6
   2   1  -1 2416.98 442.912   7
  -2  -1   1 1459.40 441.934   1
  -1   2  -2 2.58292 13.8445   2
   2  -1   2 35.9054 17.7911   6
   2   1  -2 24.7234 16.3545   6
   1   2  -2 2.36093 14.2383   2
   2  -1   2 2.39982 16.1517   8
  -2   1  -2 77.0465 20.9825   4
   2  -1   2 56.4196 22.8774   7
   2  -1   2 33.8437 17.0628   5
   2   1  -2 55.3939 20.5300   7
  -1  -2   2-3.08266 16.1780   8
   1  -2   2-3.37059 16.4519   8
  -2   1  -2 1.72698 13.9307   2
   1  -2   3 15.4208 265.975   8
  -1  -2   3 3.57527 265.792   8
   2  -1   3 2774.80 282.078   7
  -2  -1   3 1526.53 270.716   4
  -2   1  -3 1571.37 271.910   3
  -2   1  -3 2507.61 276.040   4
   1  -2   3 23.3339 265.872   5
   2  -1   3 2406.62 279.039   5
   2  -1   3 1870.01 275.183   6
  -1   2  -3 5.30807 265.566   4
   2  -1   3 1141.11 273.104   8
  -2  -1   3 1451.58 271.966   8
  -1  -2   3 75.7690 266.230   5
  -2  -1   3 1798.16 275.280   5
   1  -2   3 10.7936 265.672   7
   2  -1   4 55.2898 25.7772   6
   2   1  -4 64.9012 25.5385   7
   2  -1   4 43.5270 26.5487   5
   1   2  -4 41.0613 24.6917   2
   2  -1   4 43.0223 25.2942   7
  -2  -1   4 49.1399 24.5137   8
   2   1  -4 6.68783 20.9704   6
  -2  -1   4 19.4933 25.9225   5
   2  -1   4 41.4011 27.7205   8
  -2   1  -4 12.8783 22.4751   3
   1  -2   4 8.89046 27.0402   8
  -1   2  -4 24.9784 24.1366   2
   1  -2   4 13.3616 25.1973   5
   2   1  -4 43.5627 23.4908   3
   1  -2   4 6.22614 20.5780   6
  -1  -2   4 33.4941 27.5800   5
   1  -2   4 41.5654 24.1015   7
  -2  -1   4 1.82162 21.2050   4
  -2   1  -4 86.4625 64.3152   1
  -1   2  -4 23.5978 22.7001   4
  -1  -2   4 16.4178 27.9114   8
   2  -1   5 247.950 104.926   5
   2   1  -5 16.2566 98.8294   7
   1  -2   5 198.828 100.828   7
  -2  -1   5 136.131 102.646   5
  -1  -2   5 183.944 103.855   5
  -2   1  -5 29.4062 115.922   1
  -2  -1   5 107.646 100.157   8
  -2   1  -5 137.226 100.966   3
   1  -2   5 187.379 100.030   6
   1  -2   5 176.925 103.869   5
  -1   2  -5 151.061 101.540   3
   1   2  -5 156.995 101.520   3
  -1   2  -5 217.958 100.240   4
   2   1  -5 185.118 101.424   3
   2  -1   5 42.6465 99.7718   7
  -1  -2   5 66.4045 101.845   8
   1  -2   5 158.433 104.230   8
   2  -1   5 137.224 101.588   8
   2  -1   5 132.322 100.641   6
   1  -2   6 38.8877 41.2974   8
  -1   2  -6 55.4257 38.6498   3
  -2   1  -6 60.6401 37.2082   3
  -1   2  -6 83.0228 36.3430   4
   1  -2   6 4.49661 34.8578   7
   1   2  -6 64.5463 38.9029   3
  -1   2  -6 58.5337 65.8319   1
  -1  -2   6 80.0873 45.1789   5
   1  -2   6 34.9866 34.2386   6
  -2  -1   6 55.9801 40.8448   5
  -2  -1   6 33.7742 36.0617   8
   1  -2   6 61.2982 43.4379   5
  -1  -2   6 74.5225 42.1706   8
   2  -1   6 95.9836 44.8397   5
   2   1  -6 59.0770 37.3269   3
   2  -1   6 37.5866 37.6875   8
  -2   1  -6-22.5525 71.9471   1
   2  -1   6 3.90394 35.2278   7
   2  -1   6 20.4443 35.9697   6
   2   1  -7 193.777 141.968   3
   2  -1   7 239.231 145.311   5
   1  -2   7 297.021 145.496   8
   1   2  -7 387.417 144.890   3
  -1  -2   7 192.668 143.999   8
   1  -2   7 401.821 148.937   5
   2  -1   7 324.423 144.382   8
   2  -1   7-4.22161 138.883   7
  -1  -2   7 278.575 147.110   5
   2  -1   7 48.3508 139.741   6
  -2  -1   7 237.353 144.140   5
  -2  -1   7 342.724 143.706   8
  -1   2  -7 267.533 143.747   3
   1  -2   7 5.02080 138.795   7
  -2   1  -7 361.971 144.742   3
  -2   1  -7-14.6029 151.106   1
  -1   2  -7-14.5155 148.346   1
   1  -2   7 254.889 140.586   6
   2   1  -8 10.3114 21.7636   3
   2  -1   8 21.5004 36.7005   5
  -2  -1   8 6.90381 27.2658   5
  -1   2  -8 14.9312 27.2598   3
   1   2  -8 14.5887 26.7479   3
   1  -2   8 7.23416 18.2713   6
   2  -1   8 14.7011 24.1376   8
   1  -2   8 17.1503 30.6228   8
  -1  -2   8 27.7170 30.8255   8
  -2  -1   8 9.01130 25.1612   8
  -2   1  -8 31.1342 24.7101   3
  -1  -2   8 41.3834 34.7927   5
   1  -2   8 28.0190 30.1045   5
  -2   1  -9-5.80051 25.7470   3
   2   1  -9 5.80646 22.3234   3
   2  -1   9-8.00988 29.7436   5
  -2  -1   9-7.77438 31.8110   5
   1  -2   9 5.47863 16.5475   6
   1  -2  10 52.2588 38.7270   8
   1  -2  10 26.5832 44.8398   5
  -1  -2  10 19.1429 37.9237   8
   2  -1  10 41.1696 35.7671   8
  -1   2 -10 12.5998 35.8974   3
   1  -2  10-3.04897 22.2315   6
   2  -1  11 1402.49 691.208   5
  -1  -2  11 1547.62 688.986   8
   2   1 -11 303.890 682.178   3
   1  -2  11 1430.64 689.208   8
  -2  -1  11 1154.59 689.151   5
  -2  -1  11 1098.73 685.941   8
  -2   1 -11 750.729 684.857   3
   2  -1  11 1392.19 687.551   8
  -2   1 -12 8.00307 33.8920   3
  -1  -2  12 21.1528 42.1375   5
   1  -2  12 23.1145 39.8945   8
   1   2 -12 7.66776 29.6975   3
   2   1 -12 7.89870 28.4990   3
  -2  -1  12 10.5906 35.0469   5
   1  -2  12-10.7757 46.7491   5
  -1   2 -12 23.4110 33.9523   3
  -1  -2  12-7.23496 36.7897   8
  -2  -1  12-6.73860 36.8072   8
   2  -1  12 14.0184 32.0840   8
   2  -1  12-53.6918 44.0846   5
  -1   2 -13 1444.65 654.028   3
  -1  -2  13 1117.57 657.668   5
   1  -2  13 1435.88 654.106   8
  -2   1 -13 343.044 647.063   3
  -2  -1  13 1147.59 655.474   5
   2   1 -13 128.373 645.211   3
   2  -1  13 1764.31 655.129   8
   1  -2  13 1646.61 660.847   5
   2  -1  13 1276.68 657.025   5
  -2  -1  13 1270.68 652.730   8
   1   2 -13 1008.72 651.235   3
  -1   2 -14 35.9747 47.8387   3
   2   1 -14 9.21570 36.2377   3
  -1  -2  14 37.3348 64.6172   5
   1  -2  14 16.9918 49.0290   8
   2  -1  14 12.6923 44.2951   5
  -1  -2  14 8.36924 57.4432   8
   2  -1  14 8.13177 43.3787   8
  -2  -1  14-15.7280 44.1167   8
  -2   1 -14 18.8902 51.8997   3
   1   2 -14 9.28489 49.3482   3
   1  -2  14-12.6345 61.8895   5
   1   2 -15 287.382 300.192   3
  -1   2 -15 361.310 301.367   3
  -1  -2  15 757.013 314.856   5
   1  -2  15 323.149 304.215   5
   1  -2  15 606.759 305.671   8
   2  -1  15 668.957 305.400   8
  -2   1 -15 60.5398 295.582   3
   2  -1  15 311.829 304.667   5
  -1  -2  15 786.224 307.898   8
  -2  -1  15 525.875 306.099   8
  -1  -2  16 70.5584 68.1197   5
   1  -2  16 38.4517 63.0902   8
   1  -2  16 42.8686 67.4071   5
  -1  -2  16 37.9799 60.2482   8
   2  -1  16 73.9135 60.2727   8
  -2   1 -16 10.7288 43.3992   3
   1   2 -16 10.5312 45.3013   3
  -1   2 -16 10.6526 49.2214   3
  -1  -2  17 180.919 104.461   8
   2  -1  17 156.562 103.236   8
  -2   1 -17 11.3618 86.9723   3
  -1   2 -17 78.8445 94.4013   3
   1  -2  17 132.148 100.538   8
  -1  -2  17 60.8903 97.2668   5
   1   2 -17 113.425 95.2821   3
   1  -2  17 215.567 113.169   5
   1   2 -18-11.9626 50.3748   3
   1  -2  18 16.2228 70.1727   5
  -1  -2  18-10.6021 52.6138   8
  -1  -2  18-16.0545 55.1964   5
  -1   2 -18 36.2289 54.9248   3
   1   2 -19-12.5750 43.2321   3
  -1  -2  19-16.8757 62.6559   5
  -1   2 -19-12.6834 43.6043   3
  -1  -2  19 44.5840 70.8165   8
   1  -2  19 17.0380 63.2584   5
  -1  -2  20 70.0898 80.6492   8
  -1   2 -20 132.822 71.0874   3
   1  -2  20-17.8403 62.8535   5
   1   2 -20-92.2527 60.0864   3
  -1   2 -21-13.8705 58.3657   3
  -1  -2  21 73.2582 76.1971   8
  -2  -2   2 2.94016 10.9580   8
   2   2  -2 2.72579 9.15363   7
  -2  -2   2 3.14255 35.3912   1
  -2   2  -2-2.70472 7.82127   2
   2  -2   2 3.51888 11.2989   8
   2  -2   2 17.5579 12.7916   7
   2   2  -2-2.25792 6.56187   2
   2  -2   2-3.47072 8.08676   6
  -2   2  -3-2.77947 12.7072   4
  -2  -2   3-3.47076 14.6702   5
  -2   2  -3-2.94778 9.79108   2
  -2  -2   3-16.6225 40.0432   1
  -2  -2   3-3.43773 15.6866   8
   2   2  -3 2.40145 9.32356   7
   2  -2   3-3.41807 9.68404   6
   2  -2   3 4.03460 13.3429   5
   2   2  -3-2.12216 8.78297   6
   2   2  -3-2.53135 8.80154   2
   2  -2   3-4.00087 18.2390   8
   2  -2   3-3.45564 14.1988   7
   2   2  -4 23.2716 50.9220   7
   2  -2   4 82.6980 55.6037   5
  -2   2  -4 111.816 54.5062   4
   2  -2   4 115.842 55.6686   7
   2  -2   4 27.5100 54.2614   8
   2   2  -4 85.2685 52.8920   2
   2  -2   4 52.4299 52.4804   6
  -2  -2   4 76.2617 54.7969   5
  -2  -2   4 24.5979 66.8778   1
  -2   2  -4 62.6361 53.2239   2
   2   2  -4 102.042 51.8606   6
  -2  -2   4 35.8031 53.4106   8
   2  -2   5 3.16448 13.6925   6
  -2   2  -5-3.60528 15.5979   3
  -2  -2   5-4.31670 20.5443   8
   2  -2   5 5.18802 21.2273   5
   2   2  -5 6.51644 17.1112   3
   2  -2   5 6.83147 17.2857   7
  -2  -2   5-4.59804 21.4018   5
   2  -2   5-5.14982 27.9886   8
  -2   2  -5-2.61656 15.5823   4
  -2  -2   6 5350.21 3324.79   5
   2  -2   6 4302.19 3324.74   5
   2  -2   6 4274.69 3324.24   8
  -2  -2   6 4653.95 3323.80   8
  -2   2  -6 6018.02 3322.90   4
  -2   2  -6 3854.74 3323.03   3
  -2  -2   7 5.95146 26.0057   5
   2  -2   7 3.29383 16.7584   6
  -2   2  -7-4.54650 22.4095   3
   2  -2   7 6.40038 27.9285   5
  -2  -2   7 14.5690 26.6515   8
  -2   2  -7 36.0391 86.6312   1
   2  -2   7-11.1699 30.5771   8
   2   2  -7 21.1677 23.6805   3
   2  -2   7 3.81575 24.2309   7
   2  -2   8 299.438 186.320   6
  -2  -2   8 322.382 190.064   8
   2   2  -8 393.282 188.755   3
   2  -2   8 12.3911 183.787   7
  -2   2  -8 81.0575 204.724   1
  -2  -2   8 421.470 193.190   5
  -2   2  -8 323.708 188.788   3
   2  -2   8 313.423 191.494   5
  -2  -2   9 23.2970 44.2598   5
   2  -2   9-3.81096 21.7203   6
   2   2  -9-5.52795 26.8685   3
   2   2  -9-2.14321 11.4509   7
  -2   2  -9 66.0437 92.2537   1
   2  -2   9 4.40117 18.0039   7
   2  -2  10 242.391 162.763   5
  -2  -2  10 214.664 160.575   8
   2  -2  10 127.059 153.913   6
  -2   2 -10 280.703 160.149   3
   2  -2  10 370.580 162.697   8
   2  -2  11 39.0618 45.4856   5
  -2  -2  11-13.8141 35.6610   8
   2   2 -11-7.00590 32.6601   3
   2  -2  11-4.38271 23.0907   6
  -2  -2  11-19.3222 46.0100   5
   2  -2  11-7.20016 38.5183   8
  -2   2 -11 6.94009 33.0790   3
   2  -2  12 716.362 310.702   8
  -2   2 -12 638.522 308.138   3
  -2  -2  12 602.942 308.879   8
   2  -2  12 137.526 299.983   6
  -2  -2  12 545.537 311.327   5
   2   2 -12 464.163 305.621   3
   2  -2  12 675.230 314.176   5
   2   2 -13-8.60042 38.1688   3
  -2  -2  13 11.5218 47.1395   5
   2  -2  13 5.06640 27.5439   6
  -2  -2  13-7.74785 44.8298   8
   2  -2  13-8.37345 43.1755   8
  -2   2 -13 8.47661 36.6674   3
   2  -2  13-11.7082 44.9969   5
   2  -2  14 259.840 178.403   8
  -2  -2  14 332.708 177.117   8
   2   2 -14 129.234 169.537   3
  -2  -2  14 259.671 180.779   5
  -2   2 -14 290.200 173.745   3
   2  -2  14 150.300 176.507   5
  -2  -2  15 13.2067 51.0676   5
   2  -2  15-13.5746 57.4240   5
  -2   2 -15-20.2269 42.9516   3
   2  -2  15-18.2587 49.1097   8
   2   2 -15-9.85970 39.5431   3
  -2  -2  15 8.88436 47.8098   8
   2  -2  16 19.3693 60.2292   8
   2  -2  16 14.3975 59.1237   5
  -2  -2  16-14.3114 51.4572   5
  -2  -2  16 18.8953 50.7433   8
   2   2 -16-10.6677 42.6520   3
  -2   2 -16 10.7279 41.5475   3
   2   2 -17 11.2981 43.4280   3
  -2   2 -17 34.0088 50.3114   3
   2  -2  17-15.2132 62.2427   5
  -2  -2  17 10.0073 58.7494   8
   2  -2  17-30.7069 62.6110   8
  -2  -2  17-15.1550 58.2447   5
   2  -2  18 212.269 126.593   5
   2   2 -18 11.9211 103.639   3
  -2  -2  18 95.9408 121.405   5
  -2   2 -18 145.786 115.825   3
  -2  -2  18 168.965 122.557   8
   2  -2  18 291.090 128.549   8
   2   2 -19 12.5359 47.5162   3
  -2   2 -19-38.2626 53.0494   3
   2  -2  19-17.1407 68.6981   5
   2  -2  19-33.9569 64.2477   8
  -2  -2  19 11.1062 64.9642   8
  -2   2 -20 13.3506 151.301   3
   2  -2  20 269.110 174.952   5
  -2  -2  20 430.889 173.968   8
   2  -2  20 639.915 179.225   8
   2   2 -20 13.1440 153.322   3
  -2   2 -21-13.9378 50.0551   3
   2  -2  21-12.3720 70.6523   8
  -2  -2  21 60.8811 81.1597   8
   3   0   0 15.9340 20.1821   7
   3   0   0-3.53589 14.8443   6
  -3   0   0 22.8797 17.2525   4
   3   0  -1 2061.43 1433.59   7
   3   0   2-4.37439 18.5179   7
   3   0   2 7.68777 11.6089   6
   3   0  -2 11.9193 19.0067   7
   3   0  -2 3.95815 13.1723   6
  -3   0   2-6.29824 13.4008   4
   3   0   3 9.02553 10.3562   8
   3   0   3 22.3296 12.0252   5
   0   3  -3-3.74508 10.5299   2
   3   0  -3 8.07288 16.9375   7
   3   0   3 4.62712 19.8391   7
   3   0   3 4.10112 14.5913   6
   3   0  -3-3.98154 11.7929   6
  -3   0   3 3.24888 13.4341   4
  -3   0  -3 2.07679 7.52938   3
   3   0   4 11.1820 12.9103   5
   0  -3   4-5.39571 20.0943   5
   3   0   4-4.35861 15.0656   6
   3   0  -4-4.05818 9.14477   6
   3   0   4-4.94128 17.7486   7
  -3   0  -4-2.77052 10.4091   3
  -3   0  -4 28.8356 76.3553   1
   3   0   4-2.36691 10.3609   8
  -3   0   4-3.37841 10.7201   4
   0   3  -4-4.05030 14.5773   2
   3   0  -4-4.11294 13.6286   7
   0   3  -5 80.5907 40.0560   2
  -3   0  -5 24.4389 81.7232   1
   3   0   5 31.7302 39.2825   7
   3   0  -5 8.47651 34.8505   7
   0  -3   5-29.7342 40.5791   5
   3   0   5 18.6836 37.7902   6
   3   0   5 92.3535 40.3577   5
   3   0   5 129.049 39.4146   8
  -3   0  -5 20.5961 34.5549   3
   0  -3   5 17.6988 40.8779   8
   3   0   6 5.61468 17.6686   7
   0  -3   6 19.5804 28.9915   5
   3   0   6 5.51239 14.5342   5
  -3   0  -6-4.09817 10.0529   3
   3   0   6 6.99559 13.5097   8
   0  -3   6-6.51393 32.9820   8
  -3   0  -6 32.4212 85.3581   1
   0   3  -6-4.57541 19.8341   2
  -3   0  -7 162.032 429.909   3
   0   3  -7 2375.82 442.787   3
  -3   0  -7-48.1751 434.460   1
   0  -3   7 1734.92 445.862   8
  -3   0  -8-5.43512 17.2473   3
   3   0   8 13.9216 18.5970   8
   0  -3   9 107.788 91.5989   8
   0   3 -10 6.35115 31.6086   3
   0  -3  10-17.8795 46.1575   5
   0  -3  10-7.80502 47.8029   8
   3   0  10-5.78542 28.2346   8
   0   3 -11 27.6404 39.9770   3
   3   0  11-6.35594 26.7558   8
   0  -3  11-9.80708 41.2821   5
   0  -3  11-16.8697 48.7977   8
   0  -3  12 1.89278 12.3411   6
   0  -3  12-16.9579 46.8448   8
   0   3 -12 7.43161 42.3637   3
   0  -3  12 10.5436 53.3458   5
   0  -3  13 308.688 174.186   8
   0  -3  13 463.474 185.475   5
   0  -3  13 160.999 156.970   6
   0   3 -13 502.606 174.283   3
   0  -3  14-9.68142 78.3159   8
   0  -3  14-24.7019 68.1252   5
   0   3 -14-17.5700 49.9131   3
   0  -3  15 257.085 185.613   8
   0   3 -15 264.636 182.934   3
   0  -3  15 189.436 188.414   5
   0  -3  16-14.3174 73.8121   5
   0   3 -16 20.7456 41.1678   3
   0  -3  16-21.7688 64.7950   8
   0  -3  17 129.640 109.914   8
   0  -3  17 120.796 110.326   5
   0   3 -17 98.4672 101.700   3
   0   3 -18 12.0452 55.9484   3
   0  -3  18 16.1561 67.0743   5
   0  -3  18 22.7217 68.5918   8
   0  -3  19 694.409 446.578   5
   0   3 -19 530.424 437.574   3
   0  -3  19 679.050 442.605   8
   0  -3  20 17.7080 82.2410   5
   0  -3  20 87.2078 98.0327   8
   0   3 -20 39.6168 74.1556   3
   0  -3  21 779.649 290.382   8
   0  -3  21 357.637 282.680   5
   0   3 -21 168.167 270.396   3
   0  -3  22 19.5823 76.0911   5
   0   3 -22 14.5826 58.9666   3
   0  -3  24 29.0906 92.4565   8
   0   3 -24 15.6815 60.0573   3
   0   3 -25-32.4248 85.5960   3
   0  -3  25 90.2339 106.066   8
   3   1   0 633.179 399.945   7
  -3  -1   0 361.908 403.661   1
  -3   1   0 768.074 399.885   4
   3  -1   0 357.062 398.440   6
   3   1   0 627.118 399.315   6
   3  -1   1-1.44991 38.5935   2
   3   1   1 173.160 50.2563   7
   3  -1   1-2.02257 38.7648   8
   3  -1  -1 22.2544 42.0764   7
   3   1  -1 387.126 54.8317   6
  -3   1   1 143.204 46.3931   4
   3   1  -1 534.852 61.8778   7
  -3  -1  -1 5.18723 69.2508   1
   3  -1   1 404.160 58.8743   7
   3   1   1 214.042 50.2546   6
  -3  -1   1 416.039 81.7003   1
  -3   1  -1-1.95795 39.3092   8
  -3   1  -1-1.55596 38.4380   2
   3  -1  -1 8.78728 40.1302   6
   3  -1   1 379.904 56.4903   6
   3  -1   2 182.813 63.5227   5
   3  -1   2-2.53381 59.5458   8
  -3  -1   2 173.621 64.2328   4
   3  -1   2 409.564 73.0207   7
   3  -1   2 139.844 64.1377   6
  -3   1   2 3.72474 59.2143   4
  -3   1  -2 185.328 65.9627   4
   3   1   2 21.0968 59.7194   6
   3  -1  -2-4.53793 59.6558   7
  -3   1  -2 26.1727 58.6989   2
   3   1  -2 341.799 71.2318   7
   3  -1  -2 4.47975 58.6100   6
   3   1  -2 162.518 63.6622   6
   1  -3   3 15.0660 34.2983   8
   3  -1   3 142.520 44.3664   7
   3  -1   3 61.8867 35.8646   5
  -3  -1   3 36.9940 33.8892   8
  -3   1  -3 30.6668 33.3514   3
   3   1  -3 32.8725 33.9336   6
   3   1  -3 81.7121 37.9144   7
  -3  -1   3 73.5540 36.1733   4
  -3  -1   3 55.0188 34.2099   5
   3   1   3-5.10026 33.6595   7
   3   1  -3 72.5513 33.7384   3
   3  -1   3 20.3399 34.7949   8
  -3   1  -3 73.1375 38.9277   4
   1   3  -3 3.63497 31.7199   2
   3  -1   3 110.223 39.9909   6
  -1  -3   3-4.73072 33.8882   8
  -1   3  -3 3.85821 32.1043   2
   3  -1   4 360.340 121.357   7
   1   3  -4 74.9289 114.236   2
   3  -1   4 254.760 117.705   8
  -1   3  -4 16.6412 113.092   2
   1  -3   4-5.53960 113.748   5
  -1  -3   4 5.20475 114.411   8
   3  -1   4 396.892 120.012   5
   3   1   4-5.45332 113.707   7
  -1  -3   4 10.5102 114.686   5
   3   1  -4 455.562 120.651   7
  -3  -1   4 264.768 117.151   5
  -3  -1   4 318.917 116.288   8
   3   1  -4 178.613 115.824   6
   1  -3   4 10.9823 114.634   8
  -3  -1  -4 25.1632 125.665   1
  -3   1  -4 297.566 116.748   3
  -3  -1   4 167.316 115.236   4
   3  -1   4 276.448 119.020   6
  -1  -3   5 28.8138 132.653   8
   3   1  -5 3.57232 130.599   6
   1   3  -5 273.478 135.945   2
  -1  -3   5 11.6201 131.815   5
   3  -1   5 306.501 136.457   8
   1  -3   5 24.1610 133.301   8
  -3  -1   5 17.5162 131.097   4
   3   1  -5 419.317 135.262   3
  -1   3  -5 373.749 137.235   2
  -3  -1   5 261.836 135.666   5
   1  -3   5 6.08871 132.114   5
   3  -1   5 431.432 138.918   5
   1  -3   5-2.57462 130.791   7
   3  -1   5 316.455 136.445   6
  -3   1  -5 393.926 161.228   1
   3   1  -5 581.059 138.965   7
   3  -1   5 296.880 137.314   7
  -3  -1   5 511.645 136.460   8
   1  -3   6 392.452 306.172   8
   1   3  -6 1224.16 310.229   2
  -1  -3   6 383.015 305.508   8
  -3   1  -6 1377.27 309.227   3
  -1   3  -6 10.1461 300.311   4
   3  -1   6 384.305 304.600   7
  -3   1  -6 157.630 316.233   1
  -3  -1   6-3.02607 300.360   4
   1  -3   6 669.961 303.269   7
   3   1  -6 272.324 302.687   7
  -1  -3   6 761.082 309.456   5
   3   1  -6 812.727 305.325   3
   1  -3   6 626.299 307.899   5
  -3  -1   6 874.702 308.326   5
   3  -1   6 1231.91 309.798   8
  -3  -1   6 885.960 305.577   8
   3  -1   6 905.153 307.548   6
  -3   1  -7 408.296 133.826   3
   1   3  -7 325.249 133.412   3
   3   1  -7 231.217 130.917   3
  -3  -1   7 238.021 134.120   5
   3  -1   7 393.553 138.478   5
   3  -1   7 343.486 133.988   8
   3   1  -7 3.79151 126.874   7
   1  -3   7 29.2501 126.110   6
   1  -3   7 267.771 136.734   5
  -1   3  -7 271.534 132.850   3
  -1  -3   7 166.267 134.785   8
  -3  -1   7 201.950 130.060   8
  -1   3  -7 154.070 127.502   4
   3  -1   7 27.5815 128.477   7
   3  -1   7 149.224 129.553   6
   1  -3   7 229.403 129.266   7
   1  -3   7 208.284 137.682   8
  -1  -3   7 308.517 137.491   5
  -3   1  -7 76.4250 161.550   1
   3   1  -8 509.875 294.800   3
   1  -3   8 879.250 293.449   6
  -1   3  -8 1410.76 295.275   4
   3  -1   8-5.81855 290.407   7
  -1   3  -8 711.147 303.221   1
  -3  -1   8 716.392 300.723   5
   3  -1   8 456.409 295.259   6
   3   1  -8-3.95232 289.890   7
   3  -1   8 1528.03 304.247   8
  -3   1  -8 46.9910 308.748   1
   1  -3   8 125.421 290.698   7
   1  -3   9 288.412 113.225   6
   1  -3   9 389.946 130.743   8
  -3  -1   9 241.233 117.194   8
  -3  -1   9 78.4447 116.426   5
   3   1  -9 70.2504 113.122   3
  -1   3  -9 49.9590 131.360   1
   3  -1   9-6.14807 112.368   7
  -1  -3   9 248.122 128.531   8
   1  -3   9 2.70538 110.456   7
  -1   3  -9 351.574 113.809   4
  -3   1  -9-28.3406 143.928   1
   3  -1   9 37.9078 112.690   6
   1  -3  10 72.4369 78.7633   5
  -1  -3  10 132.499 84.6748   5
   3  -1  10 5.71606 68.6723   6
  -1  -3  10 53.9827 80.0170   8
  -1   3 -10 102.880 75.4586   3
  -1   3 -10 124.326 67.3945   4
   1  -3  10 31.6200 79.6424   8
   1  -3  10 85.9289 66.2046   6
   3  -1  10 104.288 75.3994   8
   1   3 -10 138.120 74.9155   3
  -3  -1  11 42.9070 39.7212   8
  -1  -3  11 29.1091 51.8890   5
   3   1 -11 14.3762 32.0582   3
   1  -3  11 39.9941 28.7255   6
  -1  -3  11 8.34575 55.4400   8
  -3   1 -11 14.8797 35.0864   3
   1   3 -11 68.3981 45.0998   3
  -1   3 -11 20.8171 44.0177   3
  -3  -1  11 19.2661 38.3803   5
   1  -3  11 17.0636 53.2239   8
   3  -1  11-9.99005 40.5849   5
   1  -3  11 87.9108 56.4967   5
   3  -1  11 19.5555 39.4428   8
   1  -3  12 31.9624 65.4907   5
   1  -3  12 17.1336 62.9177   8
  -1  -3  12 146.209 76.1501   5
   1  -3  12 58.8721 48.1269   6
   3  -1  12 65.1065 65.3377   5
   3   1 -12-7.85388 53.0291   3
   1   3 -12 147.304 65.0294   3
  -3   1 -12 8.08209 51.1794   3
  -1   3 -12 75.0539 58.6352   3
  -3  -1  12 80.3746 60.5159   8
  -1  -3  12 67.1908 68.5925   8
   3  -1  12 77.9019 61.9843   8
   1   3 -13-16.3463 41.3530   3
  -1  -3  13 11.4876 60.3128   5
   1  -3  13-9.81332 21.0434   6
   1  -3  13 35.0871 54.4308   5
   3  -1  13 22.9338 38.6795   8
  -1   3 -13 8.31299 42.0604   3
   1  -3  13-9.16401 56.7835   8
  -3  -1  13-50.8520 40.1352   8
   3   1 -13 8.51822 31.6290   3
  -3   1 -13-8.87571 35.2303   3
  -1  -3  13 45.0084 55.7778   8
   3  -1  13 11.9354 39.2799   5
  -1  -3  14 326.663 185.998   8
  -3  -1  14 313.124 177.281   8
   1   3 -14 226.768 175.293   3
   1  -3  14 498.262 191.100   5
   3  -1  14 303.520 179.289   8
  -3   1 -14 38.0991 169.582   3
  -1  -3  14 281.898 184.028   5
   3  -1  14 332.957 182.536   5
  -1   3 -14 345.380 178.629   3
   1  -3  14 172.606 169.236   6
  -3   1 -15 30.5037 173.036   3
   1  -3  15 300.010 192.719   5
   3  -1  15 164.037 182.030   5
  -1  -3  15 295.628 188.818   5
  -1  -3  15 449.367 189.492   8
  -3  -1  15 321.034 182.447   8
   3  -1  15 218.975 183.176   8
  -1   3 -15 375.964 186.335   3
   1   3 -15 223.979 180.926   3
   1   3 -16-20.6251 42.3993   3
  -1  -3  16-14.2277 61.6766   5
   1  -3  16-14.4197 62.5051   5
  -3   1 -16 10.8068 34.1710   3
  -1  -3  16-10.8170 63.6333   8
  -1   3 -16-10.4417 48.7768   3
   3  -1  16 9.31032 45.4520   8
   3  -1  17 167.538 109.833   8
  -1   3 -17 165.113 107.481   3
   1   3 -17 163.261 106.997   3
  -1  -3  17 229.183 115.476   5
   1  -3  17 45.5961 103.760   5
  -1  -3  17 150.396 112.668   8
  -3   1 -17-11.4378 95.3407   3
  -1  -3  18 813.766 382.446   8
  -1   3 -18 278.586 372.323   3
   1   3 -18 407.623 373.865   3
  -1  -3  18 771.449 386.446   5
   1  -3  18 698.910 385.593   5
   1  -3  19 170.317 100.939   5
   1   3 -19 37.7273 74.6104   3
  -1  -3  19 50.5701 98.7779   5
  -1   3 -19 38.0786 78.0698   3
  -1  -3  19 130.422 94.0913   8
   1   3 -20 289.406 388.999   3
  -1  -3  20 880.560 408.903   5
  -1   3 -20 225.534 388.045   3
   1  -3  20 1050.10 409.885   5
  -1  -3  20 1066.84 406.264   8
   1  -3  21-18.9115 78.2429   5
  -1   3 -21 42.2246 65.0554   3
   1   3 -21 13.9668 54.9314   3
  -1  -3  21-12.9434 85.0195   8
  -1  -3  21 56.2417 79.7772   5
  -1  -3  22 331.720 165.104   5
  -1   3 -22 87.8326 144.617   3
   1  -3  22 393.343 169.074   5
   1   3 -22 101.754 140.714   3
   1   3 -24 31.2892 57.6965   3
   1  -3  24 21.1367 81.2069   5
  -1   3 -24-15.7349 67.6823   3
  -1  -3  24 101.510 110.620   8
  -1   3 -25-16.2597 74.7818   3
  -3   2   0 4.07748 10.7766   4
   3  -2   0-4.97123 14.0067   7
   3   2   0-4.60579 15.2075   7
  -3  -2   1-24.7377 58.2435   1
   3   2  -1-4.28204 15.9262   7
   3  -2   1-4.81650 11.5407   6
   3   2  -1 15.1287 14.7018   6
  -3  -2  -1-5.72228 50.6490   1
  -3   2  -1 23.9385 16.8932   4
   3  -2   1 4.87741 16.6311   7
  -3   2  -2-2.81844 50.1041   2
   3  -2   2 86.7891 57.7957   7
  -3  -2   2 2.79248 50.2457   8
   3   2  -2 331.813 63.2390   7
   3  -2   2 142.983 56.8373   6
   3   2  -2 2.14407 49.7496   2
   3  -2   2 3.66791 51.1862   8
  -3  -2   2 9.21465 80.8908   1
   3   2  -2 348.392 62.5894   6
  -3  -2   3 116.459 77.3334   1
  -3  -2   3 119.878 40.1787   5
   2  -3   3 5.17393 35.6790   8
   3   2  -3 249.520 45.1496   6
  -2   3  -3-3.97446 33.3704   2
   3  -2   3 133.698 47.1732   7
  -3   2  -3 317.376 50.5317   4
   3  -2   3-4.14826 36.6160   8
  -2  -3   3 4.58946 35.5514   8
   3   2  -3 19.4196 33.8532   2
   3  -2   3 104.733 45.4095   6
  -3  -2   3 9.89097 37.1246   8
   2   3  -3-3.52661 33.3060   2
   3   2  -3 160.917 44.5396   7
   3  -2   3-4.18190 35.7329   5
  -3   2  -3 9.43016 34.0922   2
   2  -3   3-4.06620 34.1473   7
   3   2  -4 89.0920 32.1039   3
   3  -2   4 18.9150 33.2485   8
   3   2  -4 62.5506 32.4607   6
  -2  -3   4-5.11747 31.6881   5
   2   3  -4-3.83913 27.8174   2
   3  -2   4 74.8079 37.6548   7
  -3  -2   4 134.171 79.5117   1
   2  -3   4-5.64031 33.8272   8
  -2   3  -4 4.27377 28.6885   2
   3   2  -4 65.1157 33.0777   7
  -3   2  -4 27.1992 29.7016   2
   3  -2   4 82.6221 35.1976   6
  -3   2  -4 64.7683 36.8366   4
  -2  -3   4 5.06799 30.7673   8
   2  -3   4-3.94563 30.5679   7
  -3  -2   4 31.0756 33.8855   5
  -3  -2   4 19.5831 33.7865   8
  -2   3  -4 3.23106 27.5005   4
  -3  -2   4 67.0124 32.7374   4
   3   2  -4 57.7443 29.5628   2
   2  -3   4 5.68975 35.3369   5
   3  -2   4 47.3759 36.7454   5
   3   2  -5 1163.26 327.718   6
  -3   2  -5 1080.18 329.166   3
   3  -2   5 1200.54 330.651   6
   2  -3   5 7.65906 322.443   6
  -2  -3   5 68.1376 324.307   5
   3  -2   5 1240.96 333.063   5
   3  -2   5 660.741 328.829   8
   2  -3   5 12.4725 322.909   5
  -2   3  -5 243.675 323.738   4
   2  -3   5 263.128 324.180   7
   2   3  -5 316.133 323.269   6
   3   2  -5 1178.71 328.133   3
  -3  -2   5 747.900 325.248   4
   2  -3   5 37.1270 324.005   8
  -2  -3   5 28.1543 323.743   8
  -3  -2   5 967.562 329.044   8
  -2   3  -5 834.017 328.543   2
   3   2  -5 1756.29 331.955   7
   3  -2   6 600.461 257.979   6
  -2   3  -6 396.003 255.768   4
   2  -3   6 329.608 255.877   7
   3   2  -6 241.453 254.241   6
  -2  -3   6 100.119 255.506   8
  -2   3  -6 410.324 257.251   2
  -3   2  -6 635.298 257.833   4
  -3  -2   6 116.612 253.532   4
   2  -3   6 265.430 257.063   5
   2   3  -6 685.607 258.938   2
   3   2  -6 375.229 255.687   3
   3   2  -6 908.676 258.680   7
  -2  -3   6 235.654 257.222   5
  -3   2  -6 426.104 256.523   3
   2  -3   6 67.9418 255.451   8
  -3  -2   6 491.541 257.828   8
   3  -2   6 488.298 259.192   8
   2  -3   6 80.0337 253.365   6
  -3  -2   6 635.247 260.232   5
   3  -2   6 535.539 259.164   7
   3  -2   6 565.255 261.236   5
  -3  -2   7 5430.92 943.232   5
  -3   2  -7 7081.26 939.640   4
   3  -2   7 4699.11 940.396   8
   2  -3   7 2863.63 931.366   6
  -3  -2   7 4206.53 937.851   8
   3  -2   7 6089.13 947.562   5
  -2   3  -7 4694.70 933.612   4
   3   2  -7 37.6590 925.390   6
   3   2  -7 9328.80 941.099   7
   2  -3   7 4451.81 934.460   7
  -3   2  -7 4866.52 938.164   3
  -3  -2   7 13.0763 925.384   4
  -2  -3   7 3445.55 939.679   8
   3   2  -7 5249.34 937.434   3
   3  -2   8 10.8087 30.9581   7
  -2   3  -8-60.3419 118.530   1
  -3   2  -8 5.14394 25.7060   3
   3   2  -8-4.89894 26.8024   3
  -3  -2   8-6.88051 33.5866   5
   2   3  -8 15.6185 30.2781   3
  -3   2  -8-19.1355 127.708   1
  -2  -3   8-7.32156 34.2126   5
   2  -3   8-11.7699 25.7130   7
   3  -2   8 9.32743 24.6805   6
   3   2  -8 9.52082 23.1322   7
   3  -2   8 7.24660 36.7916   5
  -2   3  -8 2.93854 24.4160   4
   2  -3   8 17.7975 20.8252   6
  -3  -2   8 5.38882 30.8699   8
  -3   2  -9 79.7935 393.812   1
  -3  -2   9 790.354 382.835   5
   2  -3   9 783.605 383.541   8
   3   2  -9 850.431 377.650   7
   2  -3   9 81.6791 374.460   7
   3   2  -9 809.000 379.585   3
   3  -2   9 11.5310 374.280   7
   2  -3   9 777.370 377.418   6
  -2   3  -9 999.537 377.935   4
  -2   3  -9 336.958 392.231   1
  -2   3 -10 501.621 245.496   3
  -2  -3  10 497.796 250.377   5
  -3   2 -10 562.421 246.701   3
   2  -3  10 4.35863 238.076   7
   2  -3  10 432.729 246.086   8
   2  -3  10 449.756 249.619   5
   3  -2  10 6.03946 238.246   7
   3  -2  10 577.546 247.713   8
  -2   3 -10 125.621 260.742   1
   3  -2  10 282.273 241.050   6
  -3   2 -10 125.331 264.465   1
   2   3 -10 509.219 245.785   3
  -3  -2  10 493.856 245.278   8
  -2  -3  10 205.886 245.093   8
   2  -3  10 507.931 241.262   6
   3  -2  10 618.904 252.333   5
   3   2 -10 133.546 238.456   7
  -2   3 -10 633.975 242.304   4
  -2   3 -11 135.668 56.4814   4
  -2   3 -11-52.8448 106.819   1
   3   2 -11-3.60838 48.8689   7
   3   2 -11 62.5468 60.3181   3
   2  -3  11 168.113 76.6386   5
   2  -3  11 69.5645 51.3076   6
   3  -2  11 82.1953 55.4932   6
   3  -2  11 39.5506 69.3818   5
   3  -2  11 72.9051 64.2199   8
  -3   2 -11 63.2161 59.8161   3
  -2  -3  11 90.9016 73.6360   8
  -3  -2  11 95.7712 68.7431   5
   2  -3  11-4.59233 48.8209   7
  -2   3 -11 77.2358 64.8662   3
   2   3 -11 67.7533 57.2920   3
   3  -2  11-6.34243 50.9894   7
   2  -3  11 112.285 71.8186   8
  -3   2 -11 7.30333 115.640   1
  -2  -3  11 76.8493 68.8667   5
  -3  -2  11 95.8922 60.6764   8
   2  -3  12 75.4136 75.3390   5
   3  -2  12 77.1125 67.3332   5
   3   2 -12 7.91315 60.2629   3
  -2  -3  12 116.906 78.2987   5
   3  -2  12 47.2492 69.0997   8
   3  -2  12 23.1706 53.8206   6
  -3   2 -12 55.7876 59.4249   3
   2  -3  12 48.9370 51.5636   6
  -3  -2  12 71.2464 63.2798   8
  -2   3 -12 121.379 61.9018   3
   2   3 -12 105.882 69.1174   3
  -2  -3  12 83.2598 68.0826   8
   2  -3  12 55.6151 76.6856   8
  -3  -2  12 52.9818 64.1581   5
   3   2 -13 51.2939 53.1625   3
   2  -3  13-18.5148 75.6936   8
   2  -3  13 82.7076 70.1995   5
   3  -2  13 35.4946 59.6799   5
  -3  -2  13 23.0970 50.3500   8
   3  -2  13 76.1494 66.3540   8
  -3  -2  13 57.2321 58.1066   5
  -2  -3  13-8.93302 73.3552   8
  -3   2 -13 51.3660 57.7696   3
   2  -3  13 43.6136 38.1368   6
   2   3 -13 73.0244 53.5849   3
  -2  -3  13 45.5946 68.9976   5
  -2   3 -13 40.5327 53.5480   3
   3  -2  13-6.08379 44.4928   6
   2   3 -14-8.66597 41.4340   3
   2  -3  14-12.5736 57.9523   5
   3  -2  14 6.46717 38.0665   6
   3  -2  14 37.9404 55.5138   5
  -2  -3  14 19.0824 60.6205   8
   2  -3  14 68.9808 59.4278   8
  -2  -3  14-12.5573 59.2053   5
  -3  -2  14-12.2972 54.0249   5
   3  -2  14 9.04657 50.0723   8
  -2   3 -14 8.93490 45.3325   3
  -3  -2  14 49.6301 50.1503   8
   2  -3  14 14.0902 29.5325   6
   3   2 -14 36.7401 43.7885   3
  -3   2 -14-9.15244 40.7078   3
   3  -2  15 20.3634 42.4713   6
  -3   2 -15-10.1998 45.6420   3
   3  -2  15-9.62918 52.6606   8
   2  -3  15 39.9966 67.7063   5
  -2  -3  15-13.3540 56.5221   5
  -2  -3  15 40.6037 63.9701   8
   2   3 -15-9.68269 43.3680   3
   3   2 -15 9.98889 37.5510   3
   2  -3  15 31.3570 60.7572   8
   3  -2  15 27.3941 59.5301   5
  -2   3 -15-9.47541 46.4340   3
  -3  -2  15 17.6826 48.4087   8
  -3  -2  15 13.3943 56.6905   5
   3  -2  16 581.920 310.593   8
  -3  -2  16 620.993 310.484   8
  -3   2 -16 237.860 302.836   3
   2   3 -16 400.187 305.360   3
  -2   3 -16 494.440 307.983   3
   3  -2  16 377.478 309.922   5
   2  -3  16 486.134 310.595   8
   2  -3  16 639.520 319.207   5
   3   2 -16 106.287 300.010   3
  -2  -3  16 627.567 312.610   8
  -2  -3  16 565.945 314.271   5
  -3  -2  16 413.240 310.051   5
  -2  -3  17 304.095 373.100   5
   2  -3  17 814.895 378.612   8
   2   3 -17 453.799 371.630   3
   2  -3  17 872.687 384.840   5
  -2   3 -17 598.523 372.589   3
   3  -2  17 797.301 380.678   5
  -2  -3  17 897.928 378.793   8
   3   2 -17 11.2617 362.797   3
  -3  -2  17 513.327 375.922   5
  -3   2 -17 296.910 367.959   3
  -3  -2  17 927.250 376.579   8
   3  -2  17 549.994 373.790   8
   2   3 -18 23.8847 77.3768   3
  -3   2 -18 12.2311 75.4756   3
   3  -2  18 246.712 108.102   5
   3   2 -18-11.8882 76.2896   3
  -2  -3  18 191.319 106.073   8
   2  -3  18 49.0956 85.9086   5
   3  -2  18 124.879 92.7767   8
  -3  -2  18 84.2106 88.3558   8
  -2   3 -18 109.707 85.3607   3
  -2  -3  18 80.0119 89.1066   5
   2  -3  18 110.061 103.444   8
   2   3 -19 601.561 576.539   3
   2  -3  19 2088.22 594.860   8
   2  -3  19 1662.49 597.161   5
  -3   2 -19 359.407 573.024   3
  -2   3 -19 1302.42 585.162   3
  -3  -2  19 1750.15 588.616   8
   3   2 -19 25.0163 568.975   3
  -2  -3  19 1326.47 592.499   5
   3  -2  19 1674.11 595.600   5
   3  -2  20 87.2811 88.6999   8
  -3  -2  20 69.7077 79.9780   8
   2  -3  20 160.627 106.161   8
  -3   2 -20-13.4297 66.4023   3
  -2   3 -20 26.6775 68.7283   3
   2  -3  20 17.9042 80.4946   5
  -2  -3  20 71.6310 87.9996   5
  -2  -3  20 383.196 118.022   8
   3  -2  20-72.2287 88.5688   5
   2   3 -20 13.3457 76.0172   3
  -2  -3  21 1200.06 480.673   8
  -2  -3  21 1065.38 485.365   5
  -2   3 -21 444.868 467.599   3
   3  -2  21 1132.05 479.502   8
   2   3 -21 236.788 464.361   3
  -3   2 -21 56.0655 462.159   3
   2  -3  21 1283.61 484.183   8
   2  -3  21 1198.01 486.699   5
  -2  -3  22-19.4589 77.5303   5
   2   3 -22-14.5049 56.1595   3
   2  -3  22 98.8441 92.2526   5
  -2   3 -22 14.7071 60.5549   3
   2  -3  23 165.567 169.737   8
  -2  -3  24 14.4710 95.5291   8
   2  -3  24-15.5870 96.8649   8
   2  -3  24 42.4645 92.1262   5
   2   3 -24-15.6171 67.9516   3
  -2   3 -24 31.5962 57.0062   3
  -2   3 -25-16.3241 86.4362   3
   2  -3  25-16.1035 102.920   8
  -3   3  -2-4.43904 10.7881   4
   3  -3   2 5.41751 18.6195   7
  -3  -3   3-4.44813 14.7329   8
   3  -3   3-5.32778 17.6117   8
  -3  -3   3 42.7858 50.3877   1
   3  -3   3-5.31750 20.5016   7
  -3   3  -3-4.35544 14.4299   4
   3   3  -3 3.41732 8.47302   2
   3  -3   3-5.25298 15.7250   6
  -3   3  -3-4.09296 11.6078   2
   3   3  -4 3.78896 80.2919   7
   3  -3   4 241.539 90.2641   7
   3  -3   4-5.79453 82.5567   8
   3  -3   4 77.8823 83.2897   6
  -3   3  -4 4.43772 80.0908   2
   3   3  -4 771.137 95.1358   6
  -3  -3   4-78.5916 101.546   1
   3   3  -4 56.0294 81.2726   2
   3  -3   4-5.84364 82.2101   5
  -3  -3   4 4.97955 81.6090   5
  -3  -3   4 4.92909 81.7012   8
  -3  -3   5 5.49854 29.3796   8
   3   3  -5-3.47990 16.9171   7
  -3  -3   5-5.51701 25.6758   5
   3  -3   5 19.0197 28.1319   8
  -3   3  -5 14.0062 16.0491   2
  -3  -3   5 64.1517 71.3828   1
  -3   3  -5 4.20315 21.2660   4
   3  -3   5-5.17004 16.2238   6
   3  -3   5 5.18377 25.1977   7
   3   3  -5-6.02363 17.1686   6
   3   3  -5-4.05154 14.4968   2
   3  -3   5-6.38822 24.5492   5
  -3  -3   6 992.468 594.038   4
  -3  -3   6 62.7549 597.377   1
  -3  -3   6 765.925 596.911   5
  -3  -3   6 557.922 596.159   8
  -3   3  -6 1637.07 598.658   4
   3   3  -6 1542.45 595.821   6
   3  -3   6 1081.30 597.479   7
   3   3  -6 311.278 593.192   7
   3  -3   6 813.722 597.948   5
   3  -3   6 820.082 595.982   6
   3   3  -6 1556.60 598.401   2
   3  -3   6 145.820 594.306   8
   3  -3   7 5.02172 21.7924   6
  -3  -3   7-6.69381 45.5658   8
  -3   3  -7 15.6611 29.3547   3
   3   3  -7-5.24728 16.1478   6
   3  -3   7-5.13422 32.2673   7
   3   3  -7-9.38659 26.4027   3
   3  -3   7-7.51858 37.3413   5
  -3   3  -7-4.07667 28.3702   4
  -3  -3   7 13.2475 36.0401   5
   3   3  -7 5.90462 21.6004   7
  -3  -3   7 10.9256 20.8728   4
   3   3  -8 4978.68 857.762   3
   3   3  -8 561.677 842.359   6
  -3  -3   8 4711.39 862.408   5
  -3   3  -8 7535.16 859.957   4
   3  -3   8 3466.70 853.472   7
  -3  -3   8 38.0394 841.547   4
   3  -3   8 5919.45 858.527   6
   3   3  -8 5085.52 850.006   7
   3  -3   9-8.20541 49.6259   8
   3  -3   9 4.81211 23.1263   6
  -3   3  -9-6.11504 35.0034   3
  -3   3  -9 7.89497 30.7608   4
   3  -3   9-5.47283 34.0647   7
  -3   3  -9 136.456 147.611   1
   3  -3   9 34.4592 42.8589   5
   3   3  -9 5.23955 21.9880   7
  -3  -3  10 339.442 241.411   8
  -3   3 -10-73.6876 274.952   1
   3  -3  10 372.631 243.293   8
   3  -3  10 397.565 235.360   6
   3  -3  10-11.5027 232.761   7
  -3   3 -10 217.995 236.262   3
  -3  -3  10 421.112 243.792   5
   3   3 -10 297.008 236.266   3
   3   3 -10 496.417 234.275   7
  -3   3 -10 430.886 235.945   4
   3  -3  10 391.027 242.284   5
   3  -3  11 6.01881 36.3848   7
   3  -3  11 17.4997 53.5556   8
  -3   3 -11-16.3631 36.8132   4
  -3  -3  11-32.7450 52.0487   8
   3  -3  11 20.0364 49.7423   5
   3  -3  11 5.08125 25.7926   6
   3   3 -11-6.71556 33.3810   3
   3   3 -11-12.6404 21.0914   7
  -3  -3  11-9.51542 48.1844   5
  -3   3 -11 7.11011 37.3874   3
   3  -3  12 218.049 153.686   5
   3   3 -12 319.689 141.394   7
  -3   3 -12 248.391 144.054   4
   3  -3  12 253.257 153.941   8
   3  -3  12-6.25863 140.379   7
  -3   3 -12 184.165 147.763   3
   3   3 -12 195.117 146.340   3
   3  -3  12 184.611 142.525   6
  -3  -3  12 107.355 149.266   8
  -3  -3  12 242.452 152.973   5
   3   3 -13-8.46913 28.5358   7
   3   3 -13-8.06018 45.8953   3
  -3   3 -13-25.4485 53.0619   3
   3  -3  13 5.49194 36.6225   6
  -3  -3  13-35.4771 64.4239   8
   3  -3  13-11.9458 67.9626   5
  -3  -3  13-11.3167 60.4457   5
   3  -3  13-30.0423 75.1787   8
  -3  -3  14 237.085 133.698   5
  -3  -3  14 189.668 130.756   8
   3   3 -14 190.065 123.271   3
   3  -3  14 89.5918 129.356   8
  -3   3 -14 135.316 122.208   3
   3  -3  14 177.818 133.295   5
   3  -3  14 138.943 118.311   6
   3  -3  15-13.4576 68.5608   5
  -3   3 -15-19.1211 47.1686   3
  -3  -3  15-13.2804 62.3289   5
   3  -3  15-10.5507 68.3203   8
   3  -3  15-6.04434 37.3648   6
   3   3 -15-9.63524 42.4481   3
  -3  -3  15-10.0958 60.6416   8
   3   3 -16 299.527 231.492   3
   3  -3  16 356.652 239.873   8
  -3  -3  16 321.186 236.094   8
  -3   3 -16 307.625 234.177   3
   3  -3  16 322.572 240.303   5
  -3  -3  16 315.288 239.476   5
  -3  -3  17 10.6464 64.1732   8
   3   3 -17-67.8255 49.9156   3
  -3  -3  17-15.1404 66.2485   5
  -3   3 -17 11.1684 52.9415   3
   3  -3  17 30.8722 65.7527   5
   3  -3  17-11.7359 76.1300   8
  -3  -3  18 1457.68 886.440   8
  -3  -3  18 1658.07 892.264   5
   3  -3  18 2057.86 892.411   8
  -3   3 -18 969.940 882.921   3
   3  -3  18 1451.14 892.438   5
   3   3 -18 761.867 880.999   3
  -3  -3  19-17.0591 81.2226   5
   3   3 -19-37.4945 51.2105   3
  -3  -3  19 70.6431 80.1369   8
   3  -3  19 51.6087 94.9785   8
   3  -3  19-51.7852 87.3755   5
  -3   3 -19 12.8530 58.5105   3
  -3   3 -20 1087.26 954.252   3
  -3  -3  20 2724.26 965.413   8
   3   3 -20 479.327 949.518   3
  -3  -3  20 1892.89 966.173   5
   3  -3  20 2439.08 966.054   8
  -3  -3  21-37.2915 88.8148   5
   3  -3  21 19.1374 78.3937   5
  -3  -3  21 51.4923 76.7422   8
   3   3 -21-27.8069 57.0242   3
  -3   3 -21-13.9834 60.6134   3
   3  -3  21 42.1222 87.0930   8
   3  -3  22 676.189 300.464   5
   3   3 -22 57.9211 274.333   3
  -3  -3  22 952.028 304.503   8
  -3  -3  22 912.689 310.041   5
  -3   3 -22 162.677 280.379   3
   3  -3  23 30.2726 93.7313   8
  -3   3 -24-31.7425 99.6622   3
  -3  -3  24 173.388 121.084   8
   3  -3  24 128.047 108.205   5
   3  -3  24 172.327 123.711   8
   3  -3  25 16.1843 112.667   8
  -3   3 -25 32.7900 74.8976   3
   4   0   0 977.380 595.232   7
  -4   0   0 855.929 593.555   4
   4   0   0 752.108 593.706   6
   4   0  -1 4.86275 18.3148   6
  -4   0  -1-3.88690 20.6390   4
   4   0   1 4.85001 18.2682   6
   4   0  -1-5.23337 22.8428   7
  -4   0   1 24.1947 23.8701   4
   4   0   2 39.9065 36.4341   6
   4   0  -2 58.2857 37.5388   7
  -4   0   2 20.7375 35.3465   4
   4   0  -2 35.6155 33.5231   6
   4   0   3 5.85347 10.1361   5
  -4   0   3-4.22584 19.2537   4
   4   0   3 15.6387 20.7255   6
  -4   0  -3-7.06330 97.1109   1
   4   0   3-11.8708 25.6990   7
   4   0   3 3.85218 10.1887   8
  -4   0  -3 2.17237 6.92925   3
   4   0  -3-5.33019 21.1901   7
   4   0  -3-5.31101 19.0397   6
   4   0  -4 762.814 269.546   7
   4   0  -4 32.0554 260.944   6
  -4   0  -4 256.540 281.937   1
   0   4  -4 5.02226 260.368   2
  -4   0  -4 356.731 262.166   3
   0  -4   4-6.53620 261.211   8
  -4   0   4 457.114 264.919   4
   0   4  -5-5.35989 16.8461   2
   0  -4   5-6.99730 27.7873   8
   4   0   5-5.76724 24.9613   6
   0  -4   5 14.1254 30.5601   5
   4   0   5 4.70548 14.0412   5
   4   0  -5 5.48831 19.6584   7
  -4   0  -5-7.62722 108.879   1
   4   0   5 2.98758 14.2505   8
  -4   0  -5-3.49494 10.4505   3
  -4   0   5 4.50927 15.5301   4
   4   0   5 13.0787 29.0323   7
   4   0  -5 5.41406 15.2259   6
   4   0   6 96.5331 76.3394   7
  -4   0  -6 41.6314 68.6886   3
   4   0   6 291.329 79.7137   5
   0  -4   6 37.9415 74.6137   5
   4   0   6 182.680 79.9023   6
   4   0  -6 16.7972 70.0108   7
  -4   0  -6 87.5965 136.644   1
   4   0   7-8.26559 18.3544   8
   4   0   7 7.21154 35.0606   7
  -4   0  -7 33.2943 125.244   1
  -4   0  -7-4.83289 17.3065   3
   4   0   7 12.7229 30.2792   6
   4   0   8 645.141 670.558   6
   0  -4   8 1579.64 678.894   8
  -4   0  -8 126.592 667.441   3
   0  -4   9-18.2414 43.9668   5
   0   4  -9-6.45573 33.4120   3
   0  -4   9-18.4397 56.0867   8
   0   4  -9-6.59041 27.8666   2
   0  -4  10 69.2194 86.7174   8
   0  -4  10 39.1040 82.3194   5
   4   0  10 122.985 70.3402   8
   0   4 -10 76.1555 75.8136   3
   0  -4  11-9.82441 60.0858   8
   4   0  11-6.42877 29.2288   8
   0  -4  11 10.3132 52.1741   5
   0   4 -11 7.32824 40.4813   3
   0  -4  12 21.9865 56.6907   5
   0  -4  12-10.4759 63.2365   8
   4   0  12-6.99981 34.7516   8
   0   4 -12 7.80739 44.5191   3
   0   4 -13-16.5991 54.1701   3
   0  -4  13-11.6820 65.7072   5
   0  -4  13 33.4116 110.582   8
   0  -4  14 129.772 113.928   8
   0   4 -14 141.700 97.8944   3
   0  -4  14 50.2787 102.281   5
   0   4 -15 9.35854 45.6492   3
   0  -4  15 13.2792 63.3012   5
   0  -4  15-11.4285 84.9382   8
   0  -4  16-48.1739 79.3981   8
   0  -4  16 14.3612 72.8037   5
   0   4 -16 40.8440 53.8114   3
   0   4 -17-10.7306 48.2674   3
   0  -4  17-37.9723 88.9024   8
   0  -4  17-15.0885 77.4777   5
   0  -4  18 902.242 788.707   8
   0   4 -18 1216.86 786.963   3
   0  -4  18 1239.76 792.611   5
   0   4 -19-24.7040 56.2411   3
   0  -4  19 13.8737 84.9054   8
   0  -4  19 17.0523 87.9626   5
   0  -4  20 1379.64 856.841   8
   0  -4  20 1387.16 859.270   5
   0   4 -20 1017.86 850.706   3
   0   4 -21 14.0400 66.9770   3
   0  -4  21-18.8339 91.6676   5
   0  -4  21 14.0786 90.6500   8
   0  -4  23 15.1557 101.415   8
   0  -4  24 21.3671 90.0649   5
   0  -4  24-15.6780 104.452   8
   0   4 -24 15.9074 72.4787   3
   0  -4  25-22.0581 84.8805   5
   0   4 -25-16.4232 76.5610   3
   0  -4  25 16.1878 109.023   8
   0  -4  26 33.3697 124.869   8
   0   4 -26 67.6886 78.2756   3
   0  -4  26 68.1792 98.7497   5
   0  -4  27 17.1685 125.747   8
   0   4 -27 17.4115 65.7441   3
   0   4 -28 17.8811 67.5159   3
   0  -4  28 17.6334 131.499   8
  -4   1   0 2630.16 1701.34   4
  -4  -1   0 1692.65 1702.72   1
   4   1   1 111.326 69.1251   6
   4  -1   1 2.16679 63.7143   5
   4   1  -1 151.111 70.1510   6
   4  -1   1 211.475 75.5522   7
   4   1   1 79.9603 70.7052   7
  -4  -1  -1 6.74225 111.283   1
   4  -1  -1 17.1274 66.0054   6
  -4   1  -1 180.873 72.7057   4
   4   1  -1 210.964 74.7473   7
   4  -1  -1 40.4558 68.7598   7
  -4   1   1 167.898 71.3198   4
   4  -1   1 135.147 70.7739   6
  -4   1  -2-2.01917 58.2942   2
   4  -1   2 5.32317 59.6082   8
   4  -1   2 96.9259 64.8148   6
  -4   1  -2 276.983 69.8066   4
  -4   1   2 23.8591 62.0122   4
   4   1  -2 195.923 66.3583   6
   4  -1   2 194.604 63.5336   5
   4   1   2 101.031 66.0287   6
   4  -1  -2-5.82909 61.6299   7
   4  -1  -2 11.5020 60.1914   6
  -4  -1   2 165.826 65.3957   4
   4   1  -2 333.067 74.0905   7
   4  -1   2 220.878 71.8419   7
   4  -1   3 272.971 224.658   8
   4  -1   3 666.232 226.782   5
   4  -1  -3 5.90976 222.883   7
   4   1   3 129.466 223.893   6
   4  -1   3 467.982 228.773   6
  -4  -1   3 446.609 226.157   4
   4  -1  -3 11.6637 222.101   6
  -4   1  -3 445.692 224.382   3
  -4   1  -3 656.412 228.813   4
   4  -1   3 630.782 231.444   7
  -4   1  -3 258.064 223.480   2
   4   1  -3 481.631 227.067   6
  -4   1   3 29.1050 222.610   4
   4   1  -3 923.259 232.898   7
  -4  -1   4 66.6225 29.0183   8
  -4  -1   4 32.1374 26.0972   5
   4   1   4 11.7947 28.7022   6
  -4   1  -4 30.1077 25.9969   3
   1   4  -4 4.91323 24.2860   2
  -1  -4   4-6.39349 29.1480   8
   4  -1   4 21.0689 31.5186   6
   1  -4   4 6.68329 29.7810   8
   4   1  -4 14.1935 28.2802   6
   4   1  -4 18.6751 24.1109   3
   4  -1   4 65.5987 31.9195   5
   4   1  -4 115.746 39.3217   7
  -4   1  -4 59.0265 36.8392   4
  -4  -1  -4-23.1560 89.5123   1
   4   1   4-6.68477 33.9267   7
   4  -1  -4-6.02623 27.7301   7
   4  -1   4 48.4931 39.6037   7
  -4  -1   4 46.3243 31.6964   4
   4  -1   4 58.7930 34.9015   8
  -1   4  -4 5.13522 24.5557   2
  -4   1  -5 3443.10 539.591   3
  -1   4  -5 257.149 530.613   2
   4   1  -5 747.793 532.604   6
  -4  -1   5 3099.20 537.389   8
  -4  -1   5 1097.42 533.317   4
   1   4  -5 241.684 530.756   2
   4  -1   5 2827.79 543.727   6
  -4   1  -5 2697.91 560.047   1
   4   1  -5 918.770 531.656   3
  -1  -4   5-6.85768 529.533   8
   4   1  -5 5141.01 553.089   7
   1  -4   5 7.20875 529.510   5
   4   1   5 56.0856 529.747   7
  -1  -4   5 6.92238 529.457   5
   1  -4   5-14.2879 529.735   8
  -4  -1  -5-40.4873 537.729   1
   4  -1   5 3129.46 543.524   5
   4  -1   5 3104.48 540.628   8
  -4   1  -6 528.900 266.442   1
  -4  -1   6 20.5180 224.965   4
  -4  -1   6 986.389 232.035   8
  -1  -4   6-29.8033 226.662   5
   4  -1   6 989.789 237.354   6
   4   1  -6 1065.01 237.155   7
   4   1  -6 253.679 226.850   3
  -4   1  -6 1058.32 233.837   3
   1  -4   6 6.30759 224.575   7
  -4  -1   6 369.146 228.928   5
   4   1  -6-4.93376 224.650   6
   4  -1   6 914.531 234.258   8
   4  -1   6 447.625 233.264   7
   4  -1   6 1012.51 237.642   5
   1  -4   6-7.73193 226.597   5
  -4  -1   7-4.16150 429.243   4
   4  -1   7 2207.58 446.167   5
   1  -4   7 29.6133 429.598   7
  -4  -1   7 728.930 434.781   5
   4  -1   7 626.003 435.280   7
  -4   1  -7 214.351 452.100   1
   4  -1   7 1483.49 440.616   6
   4  -1   7 2142.45 440.819   8
   4   1  -7 397.059 431.849   3
  -4  -1   7 2101.17 438.824   8
  -4   1  -7 2502.58 442.170   3
  -1  -4   8 17.1977 67.8632   8
  -4  -1   8 54.9572 53.9844   5
   1  -4   8-8.78075 64.1116   5
  -4   1  -8 197.809 150.934   1
   4  -1   8 126.875 57.4951   8
  -4  -1   8 114.447 54.2115   8
   1  -4   8 17.7259 70.1676   8
   4   1  -8 15.3914 48.7226   3
   4   1  -8 5.15705 54.1081   7
   4  -1   8 28.5797 55.5947   7
   1   4  -8 136.031 63.9745   2
   1  -4   8 62.5827 50.3897   7
   4  -1   8 88.7925 60.0171   5
   4  -1   8 74.2600 56.8262   6
  -4   1  -8 80.2514 55.0249   3
   1   4  -9 732.870 266.652   3
  -1  -4   9 261.016 265.723   5
   4   1  -9 81.2126 256.557   3
   4   1  -9-5.29157 256.512   7
  -4  -1   9 1030.38 265.913   8
  -1  -4   9 363.936 266.717   8
   1  -4   9 334.220 257.844   7
   1   4  -9 1157.88 270.845   2
  -1   4  -9 837.620 267.350   3
   4  -1   9 14.8830 256.920   7
   1  -4   9 494.705 269.938   8
   1  -4   9 310.823 269.651   5
   4  -1   9 590.164 264.409   6
  -4  -1   9 201.990 258.819   5
   4  -1  10 168.906 87.5492   6
   1  -4  10 2.73271 75.0808   7
   4  -1  10 490.964 98.6839   8
  -1  -4  10 361.536 107.820   8
   1  -4  10 297.001 101.236   5
  -1   4 -10 371.452 97.1503   3
   1  -4  10 350.509 112.400   8
   4   1 -10 5.46048 76.7206   7
   1  -4  10-2.72322 73.5934   6
   1   4 -10 554.340 100.614   3
  -1  -4  10 390.887 110.128   5
  -1   4 -10 122.148 114.050   1
  -1   4 -10 29.1614 74.4072   4
  -1  -4  11 29.1570 61.4828   8
   1   4 -11-7.25303 39.5301   3
   1  -4  11-5.55575 15.1007   6
  -1   4 -11-65.7484 73.5650   1
  -1  -4  11 20.4069 55.0714   5
   1  -4  11 10.4322 55.3214   5
   4   1 -11 7.14439 23.7351   3
   4  -1  11 47.5766 40.6500   8
  -4  -1  11 42.9304 35.2943   8
   1  -4  11-5.71454 20.1613   7
  -1   4 -11 22.4344 19.9452   4
   4  -1  11 40.4424 40.8767   5
  -1   4 -11 14.8199 40.3522   3
  -4   1 -11 30.0980 30.8647   3
  -4  -1  12 93.9167 53.7393   8
   1   4 -12 116.028 62.5610   3
  -4   1 -12 16.3349 46.0858   3
  -1   4 -12 63.0881 56.2452   3
  -1  -4  12 87.0998 71.9151   5
   4  -1  12 81.1520 55.4954   8
   1  -4  12 11.5686 38.1002   6
   4  -1  12 10.9718 54.6083   5
  -1  -4  12 31.1252 74.4906   8
   1  -4  12 22.2188 64.1895   5
  -1   4 -12 68.3085 42.6863   4
   1   4 -13-8.23089 56.7012   3
  -1   4 -13 8.37550 49.9988   3
  -1  -4  13-34.7405 78.0134   5
  -4  -1  13 21.8469 43.5121   8
   4  -1  13 60.2933 53.6353   5
  -1   4 -13-2.35841 29.3714   4
   1  -4  13-2.92503 24.2226   6
   4  -1  13 47.7404 50.0678   8
   1  -4  13 23.5881 75.0188   5
  -1  -4  13-11.0402 95.5635   8
  -4   1 -13 8.96251 41.8756   3
  -4  -1  14 612.513 249.446   8
   4  -1  14 580.301 248.450   8
   4  -1  14 413.743 248.611   5
   1  -4  14 342.362 251.891   5
  -4   1 -14 19.2230 237.156   3
  -1  -4  14 525.696 255.234   8
  -1   4 -14 428.634 246.558   3
   1   4 -14 571.363 250.940   3
  -1  -4  14 461.402 257.362   5
   4  -1  14 48.4860 238.589   6
  -4  -1  15 101.049 67.3916   8
   1   4 -15 130.134 79.0624   3
  -4   1 -15 10.2541 62.6735   3
   4  -1  15 8.42000 62.5549   6
  -1  -4  15 92.2829 91.2538   5
  -1  -4  15 45.3878 88.7223   8
  -1   4 -15 94.2938 71.1102   3
   4  -1  15 54.6331 69.7257   8
   1  -4  15 107.085 81.1031   5
   4  -1  15 27.5890 65.0297   5
   1  -4  16 491.877 297.305   5
   4  -1  16 522.379 294.568   8
  -1  -4  16 514.502 299.046   8
   1   4 -16 568.354 294.640   3
  -1   4 -16 462.675 293.782   3
  -4   1 -16 43.5714 283.339   3
  -1  -4  16 513.604 301.858   5
   4  -1  17 368.496 279.717   8
  -1   4 -17 442.729 281.657   3
  -1  -4  17 452.956 289.475   8
   1   4 -17 362.822 280.540   3
   1  -4  17 425.322 290.839   5
  -1  -4  17 254.979 286.054   5
   1  -4  18 705.824 393.899   5
   4  -1  18 539.504 386.477   8
  -1  -4  18 454.299 392.783   5
  -1   4 -18 407.226 383.820   3
   1   4 -18 529.030 386.574   3
  -1  -4  18 712.619 393.838   8
  -1   4 -19 1514.90 1052.09   3
   1  -4  19 1080.48 1052.33   5
  -1  -4  19 2056.97 1058.40   8
   1   4 -19 1537.16 1051.17   3
  -1  -4  19 1340.55 1054.91   5
  -1  -4  20 17.7051 96.8351   5
   1  -4  20 107.273 102.219   5
  -1   4 -20 90.6250 90.4256   3
   1   4 -20 76.9951 84.3310   3
  -1  -4  20 80.7845 103.676   8
  -1  -4  21 1313.05 787.676   5
  -1   4 -21 987.152 778.745   3
   1  -4  21 1305.92 788.701   5
   1   4 -21 881.318 778.944   3
  -1  -4  21 1331.86 786.407   8
   1   4 -22 87.1964 93.8198   3
  -1  -4  22 116.901 118.960   5
  -1  -4  23 105.726 142.138   8
  -1  -4  24 15.6313 113.964   8
   1   4 -24 47.5908 70.3883   3
  -1   4 -24-47.0562 80.8648   3
  -1  -4  24 42.5967 101.342   5
   1  -4  24-21.4485 87.7410   5
  -1   4 -25 32.9473 85.4280   3
   1   4 -25 16.3825 81.8464   3
   1  -4  25 88.5416 109.452   5
  -1  -4  25 16.1444 126.586   8
  -1  -4  25 109.968 110.969   5
   1   4 -26 16.8886 66.0945   3
  -1  -4  26-16.6411 110.232   8
  -1  -4  26-22.6715 88.0133   5
  -1   4 -26-33.9471 59.6675   3
   1  -4  26-45.6099 91.3668   5
  -1   4 -27-17.4551 65.4317   3
   1   4 -27 17.3777 62.8241   3
   1  -4  27-23.4506 99.1278   5
  -1  -4  27 85.6391 121.696   8
  -1   4 -28 17.9267 67.6845   3
  -1  -4  28 17.5958 131.222   8
   4  -2   0-6.17200 33.8077   6
  -4   2   0 107.415 44.5604   4
  -4  -2   0-33.9286 89.8415   1
   4   2   0 88.1175 42.8799   7
   4  -2   0-6.25260 37.6467   7
   4   2   0 72.6316 41.1983   6
   4  -2   1 223.034 196.400   7
  -4   2  -1 757.668 204.091   4
   4   2  -1 980.495 207.138   7
   4   2   1 141.794 194.726   6
  -4  -2  -1 28.5537 209.061   1
  -4   2   1 187.113 195.357   4
   4   2  -1 928.186 204.257   6
   4   2   1 191.639 195.805   7
   4  -2   1 226.511 196.295   6
  -4  -2   1 51.6895 212.838   1
   4  -2  -1-6.25625 192.725   6
   4   2  -2 219.712 73.9500   7
   4  -2   2 122.159 72.3234   6
  -4  -2   2 2.66685 63.0357   5
   4  -2   2 220.602 75.3894   7
  -4   2  -2 450.902 81.0874   4
  -4  -2  -2-37.5731 101.499   1
  -4  -2   2 160.558 113.501   1
   4   2   2 13.0099 65.5614   7
   4   2  -2 305.906 73.9529   6
  -4   2  -2-2.92993 62.0417   2
   4   2  -3 1983.05 182.078   7
   4   2  -3 11.9060 150.420   2
   4   2  -3 1753.52 173.919   6
  -4  -2   3-6.29050 150.899   8
  -4  -2   3 994.940 192.169   1
   4  -2   3-4.29312 151.257   8
  -4   2  -3 19.5195 150.651   2
   4  -2   3 1377.77 175.945   6
   4  -2   3 1556.11 180.088   7
   4  -2   3 186.022 153.693   5
  -4  -2   3 1055.95 161.368   5
  -4  -2   4 1324.59 340.567   5
  -2  -4   4-6.25442 333.148   8
  -2   4  -4-5.25271 332.814   2
   4   2  -4 1487.54 342.699   6
   2  -4   4 6.83726 333.261   8
   2   4  -4 4.80707 332.809   2
  -4  -2   4 253.163 334.928   8
   4  -2   4 1844.71 350.073   7
  -4  -2   4 1769.28 359.321   1
  -4   2  -4 545.582 335.738   2
   4  -2   4 19.4858 334.006   8
   4   2  -4 1401.64 338.474   3
   4   2  -4 960.884 337.344   2
   4  -2   4 1636.47 346.367   6
   4   2  -4 1944.14 347.256   7
  -4  -2   4 1246.13 340.037   4
  -4  -2   5 20.4535 31.9977   8
   4  -2   5 12.2889 35.1714   7
   4  -2   5 33.1194 34.9952   8
  -2   4  -5-5.58746 23.3650   2
   4  -2   5 21.4683 28.1749   5
  -4  -2   5 38.7005 27.8675   5
  -4   2  -5 11.3840 23.8092   3
   4   2  -5 15.2804 19.4717   3
   2  -4   5-7.36101 34.7134   5
   4   2  -5 21.1558 24.7716   6
  -4   2  -5 4.52928 29.1942   4
  -2  -4   5 6.72106 31.9176   8
   2  -4   5-4.50932 19.6264   7
   4   2  -5 37.9510 31.1616   7
  -4  -2   5-3.38481 25.6927   4
   2  -4   5 7.29677 36.6440   8
  -2  -4   5 6.78764 31.4957   5
   4  -2   5 22.0501 27.8018   6
   2   4  -5 10.3005 19.9569   2
  -4   2  -5 19.3824 22.3412   2
   4  -2   6 5435.80 1213.01   5
   2  -4   6 13.1226 1199.73   7
  -2  -4   6 7.25597 1200.08   8
   4   2  -6 7404.69 1213.88   7
   4   2  -6 2768.35 1205.03   6
   2   4  -6 1919.34 1204.10   2
   4  -2   6 4463.83 1210.48   6
   4   2  -6 4135.11 1206.48   3
  -2  -4   6 14.6406 1200.03   5
  -4   2  -6 5400.04 1211.21   4
   4  -2   6 3360.83 1209.70   7
  -4  -2   6 4345.60 1208.86   5
  -4  -2   6 1839.88 1202.40   4
  -4  -2   6 4250.15 1207.46   8
  -4   2  -6 4080.82 1207.04   3
   4  -2   6 3001.74 1206.92   8
   4  -2   7 249.018 172.359   7
  -4  -2   7 18.4690 164.550   4
   4  -2   7 336.295 170.886   6
  -4   2  -7 496.709 173.549   4
   4  -2   7 426.071 174.910   5
   4   2  -7 708.945 174.511   7
   4   2  -7 358.588 169.273   3
  -2   4  -7 370.870 172.013   2
  -4  -2   7 305.686 171.696   5
  -2   4  -7-3.50139 163.661   4
   4   2  -7 49.6506 164.685   6
  -4   2  -7 354.099 169.758   3
  -4   2  -7 271.818 222.211   1
  -4  -2   7 281.541 169.166   8
   4  -2   7 310.715 173.500   8
   2  -4   7 42.3789 166.041   7
   4   2  -8 4.49938 453.440   6
   4  -2   8 2958.88 478.339   5
   2   4  -8 3426.49 476.229   2
  -4  -2   8 3.75769 453.582   4
  -4   2  -8 3322.90 471.392   4
   2  -4   8 571.097 461.850   5
   4  -2   8 706.358 460.060   7
   2  -4   8 1200.18 459.429   7
   4  -2   8 2320.39 469.966   6
  -2  -4   8 483.085 461.546   8
  -4  -2   8 2002.63 467.022   8
   4   2  -8 1923.16 465.729   3
  -2   4  -8 383.128 455.083   4
  -4   2  -8 1025.80 488.704   1
   2  -4   8 20.9225 453.369   6
   2  -4   8 342.305 459.065   8
   4   2  -8 4475.22 477.589   7
  -4  -2   8 2122.58 470.402   5
  -4  -2   9 234.693 156.698   5
   4   2  -9 278.203 153.359   3
  -4   2  -9-33.0678 216.622   1
   4  -2   9 231.708 157.109   8
   2   4  -9 283.259 156.591   3
   2  -4   9 181.611 158.835   5
   4   2  -9 586.644 157.744   7
   2  -4   9 144.826 161.088   8
   2  -4   9 8.36171 147.211   6
   4  -2   9 290.140 153.828   6
  -2  -4   9 159.965 159.142   5
   2  -4   9 143.964 150.557   7
  -2   4  -9 142.305 149.292   4
  -2   4  -9 379.647 158.053   2
   2   4  -9 359.697 157.265   2
   4  -2   9 70.9034 152.777   7
  -2   4  -9 238.993 155.643   3
  -2  -4   9 170.681 159.911   8
  -4  -2  10 668.568 326.083   8
   4  -2  10 22.2374 319.540   7
  -2   4 -10 532.514 324.647   3
   2   4 -10 603.053 325.656   3
  -4   2 -10 766.857 326.649   3
   2  -4  10 375.566 328.770   8
   4   2 -10 660.104 323.508   7
   2  -4  10 642.180 330.911   5
   4  -2  10 803.313 331.738   5
  -2  -4  10 263.937 324.355   5
  -2   4 -10 688.985 326.247   2
   2  -4  10 138.913 319.457   7
   4  -2  10 543.328 324.282   6
  -2   4 -10 657.251 321.197   4
  -2   4 -10 701.658 347.932   1
   4  -2  10 773.866 328.243   8
   2  -4  10 160.437 318.592   6
  -2  -4  10 347.790 329.357   8
  -4  -2  11 782.897 477.826   5
  -2  -4  11 848.470 480.214   5
   4   2 -11 635.439 473.330   3
   2  -4  11 573.993 477.967   8
   4  -2  11 1311.01 480.760   8
  -2  -4  11 1058.42 482.482   8
   2  -4  11 17.5157 469.062   7
   4   2 -11 528.969 471.947   7
  -2   4 -11 366.742 490.083   1
  -2   4 -11 1156.52 473.268   4
   4  -2  11 1112.08 482.273   5
   2  -4  11 770.980 480.336   5
  -2   4 -11 1154.67 478.589   3
  -2  -4  12-30.8450 68.6492   8
   2  -4  12 21.4117 73.7938   8
  -2   4 -12 7.97218 47.1141   3
   4   2 -12 9.83549 36.5982   7
  -4  -2  12-10.5225 53.5148   5
  -2   4 -12-3.42823 36.0927   4
   2  -4  12-22.4690 71.5812   5
   2   4 -12 15.3391 44.0552   3
   4  -2  12 11.1504 54.4736   5
   4  -2  12-7.97103 51.5453   8
  -4   2 -12 8.06202 48.3048   3
   4   2 -12 7.86265 39.3886   3
  -4  -2  12-14.7951 53.2090   8
   2  -4  12-18.2267 37.9521   7
  -2  -4  12-32.3683 70.4092   5
   2  -4  12-16.9489 30.2286   6
   2   4 -13 559.250 317.589   3
  -4  -2  13 500.649 320.043   5
  -2   4 -13 732.525 312.620   4
  -4   2 -13 536.515 316.959   3
  -4  -2  13 681.115 319.279   8
  -2   4 -13 642.881 318.189   3
   4  -2  13 479.078 317.987   8
  -2   4 -13-495.241 336.354   1
   4  -2  13 646.076 323.789   5
   4   2 -13 15.2921 308.657   7
   2  -4  13 261.292 321.785   8
   2  -4  13 582.108 311.903   6
  -2  -4  13 372.383 323.880   8
  -2  -4  13 536.624 325.668   5
   2  -4  13 512.416 324.522   5
   4   2 -13 195.571 311.295   3
  -2  -4  14-10.6521 68.5051   8
  -4  -2  14 24.9393 55.9771   5
   4  -2  14 9.13999 63.9548   8
   2  -4  14 25.6026 60.1066   5
  -4   2 -14 46.2143 42.6978   3
  -4  -2  14 8.23081 47.1795   8
   4  -2  14 13.0047 61.0026   5
  -2  -4  14 61.9072 66.7123   5
   2  -4  14-36.0654 78.7420   8
  -2   4 -14 36.0453 55.7037   3
   4   2 -14 55.8238 46.7454   3
   2   4 -14 8.73144 45.8415   3
  -2   4 -14 13.7213 35.2793   4
   4   2 -15 129.369 410.468   3
  -4  -2  15 400.103 417.207   5
   4  -2  15 677.679 423.336   5
   4  -2  15 476.433 417.284   8
  -2   4 -15 922.334 420.983   3
   2  -4  15 796.734 424.285   5
  -2  -4  15 685.825 422.882   5
   2   4 -15 1071.59 421.583   3
  -4  -2  15 730.740 418.015   8
  -4   2 -15 432.336 415.004   3
  -2  -4  15 518.591 422.248   8
   2  -4  15 720.556 426.938   8
   4  -2  16 41.2097 60.2286   8
  -4  -2  16 14.1977 53.5130   5
  -2   4 -16 31.0825 59.6644   3
  -4  -2  16 46.8785 59.7682   8
  -2  -4  16 59.4857 84.3277   8
   2  -4  16 48.9244 83.1312   8
  -2  -4  16 113.480 89.4916   5
   2  -4  16 14.5856 66.8756   5
   2   4 -16 10.0947 47.8576   3
   4  -2  16-14.6506 60.5364   5
  -4   2 -16 21.8092 46.4431   3
   4  -2  16 8.10851 49.1925   6
   4   2 -16-10.5959 42.7950   3
  -4   2 -17 333.837 581.915   3
  -4  -2  17 1113.36 588.036   8
   4  -2  17 819.584 590.341   5
  -2  -4  17 1154.51 596.396   5
   2  -4  17 1155.53 596.295   8
   4   2 -17 56.1660 578.338   3
  -2   4 -17 1315.92 591.658   3
   2   4 -17 1094.02 588.143   3
  -2  -4  17 1239.25 595.849   8
   2  -4  17 1499.96 600.029   5
   4  -2  17 1163.71 591.659   8
   2  -4  18 2097.38 866.906   8
   4  -2  18 2022.99 868.341   5
  -2  -4  18 2154.21 867.823   8
  -4  -2  18 2246.95 861.556   8
  -4   2 -18 394.409 850.417   3
  -2   4 -18 2072.38 861.766   3
   4   2 -18 47.4558 847.149   3
   4  -2  18 2037.13 861.851   8
  -2  -4  18 985.036 859.617   5
   2   4 -18 1966.66 860.937   3
   4  -2  19 313.005 310.912   5
  -4   2 -19 116.348 302.031   3
  -4  -2  19 497.361 313.275   8
  -2  -4  19 783.627 328.488   8
   4  -2  19 348.126 312.267   8
   2  -4  19 631.996 323.003   8
  -2  -4  19 321.062 316.810   5
   2  -4  19 569.687 322.739   5
  -2   4 -19 474.736 311.884   3
   2   4 -19 502.280 312.935   3
  -2  -4  20 1687.41 1063.67   5
   2  -4  20 2342.09 1066.69   8
  -2   4 -20 1861.85 1060.09   3
   2  -4  20 1942.73 1065.83   5
   2   4 -20 1821.34 1060.22   3
  -4   2 -20 121.697 1048.12   3
   4  -2  20 1673.28 1062.75   5
  -2  -4  20 2012.38 1063.11   8
   4  -2  20 2348.39 1063.16   8
  -4  -2  20 2169.05 1060.94   8
   4  -2  21 222.733 152.666   8
  -2  -4  21 317.788 157.107   5
  -4   2 -21-14.1041 128.890   3
   2  -4  21 171.312 156.125   5
  -2  -4  21 181.656 155.713   8
   2  -4  21 274.025 162.637   8
   2   4 -21 167.387 139.360   3
  -2   4 -21 184.287 140.035   3
  -2  -4  22 1029.60 549.090   5
   2   4 -22 623.385 536.304   3
   2  -4  23 143.164 141.762   5
   2  -4  23 147.286 150.626   8
  -2  -4  23 120.506 148.101   8
  -2   4 -23 137.117 127.636   3
  -2   4 -24-15.7514 79.8379   3
  -2  -4  24 15.5942 107.304   8
  -2  -4  24 42.5021 89.5879   5
   2  -4  24-15.8127 104.182   8
   2   4 -24 15.8326 77.1118   3
   2  -4  24 21.5484 80.1450   5
  -2  -4  25 80.5542 126.231   8
  -2  -4  25 43.9035 97.5092   5
   2  -4  25 293.715 137.495   8
  -2   4 -25 82.6872 96.9141   3
   2   4 -25-16.3551 89.0077   3
   2  -4  25-22.2319 98.4418   5
   2  -4  26-22.8980 86.6986   5
  -2  -4  26 33.2222 110.643   8
   2   4 -26 16.8648 69.0697   3
  -2   4 -26 85.1741 69.7237   3
   2  -4  26-16.8092 109.418   8
   2   4 -27 17.3609 62.3178   3
   2  -4  27-23.5391 90.5974   5
   2  -4  27 17.2834 128.425   8
  -2  -4  27 51.3042 120.086   8
  -2   4 -27-17.5131 71.8268   3
   2  -4  28-56.9714 132.496   8
  -2   4 -28-17.9771 65.8258   3
  -4  -3   0 14.7092 77.8940   1
  -4   3  -1-11.1144 18.5444   4
   4  -3   1 20.3403 29.4831   7
   4   3  -1 12.0559 24.8506   7
  -4  -3   1 6.95589 77.5273   1
   4   3  -2 281.317 97.9461   6
   4  -3   2-6.69150 93.7325   7
  -4  -3   2 111.794 130.437   1
   4   3  -2 34.1616 91.7324   7
   4  -3   2-6.60696 90.5818   6
   4  -3   3 5.48378 24.8381   8
   4   3  -3 103.331 34.3750   6
  -4  -3   3 4.35085 28.1855   5
  -4   3  -3 140.997 43.3988   4
  -4  -3   3 43.5370 97.1077   1
   4   3  -3 53.8845 31.2611   7
   4  -3   3 26.5110 36.4563   7
   4  -3   3-6.55086 26.7158   6
  -4   3  -3 4.21198 21.1775   2
   4   3  -3-3.30212 19.4212   2
   4  -3   4 189.865 68.0258   7
   4   3  -4 265.399 64.6177   7
  -4   3  -4-4.55640 54.1099   2
   4  -3   4-5.99936 57.4808   5
  -4  -3   4 9.56883 56.0881   8
   4  -3   4-5.95057 57.3759   8
  -3  -4   4 6.11693 54.4535   8
  -3   4  -4 5.37373 52.7962   2
   4   3  -4 7.33056 52.1414   2
  -4  -3   4 43.5174 57.2142   5
  -4  -3   4 82.4309 114.326   1
   3   4  -4-4.70176 52.2888   2
   3  -4   4-6.99681 57.2964   8
   3  -4   4-5.87100 55.3983   7
   4  -3   4 45.6974 59.0165   6
   3  -4   5-11.5265 177.642   7
  -3  -4   5 6.58758 176.731   8
  -3  -4   5 6.65350 176.780   5
  -4  -3   5 10.7230 177.036   8
  -3   4  -5 193.423 177.905   4
   4  -3   5 320.607 183.943   5
  -4  -3   5 212.302 207.382   1
   3  -4   5 7.51944 178.400   5
  -4  -3   5 1320.05 195.490   5
   4  -3   5-6.49347 177.834   8
   3   4  -5 60.5743 176.230   2
   4   3  -6 4.13894 26.0661   3
   3   4  -6 3.15212 19.1522   6
   3  -4   6-5.62103 18.6292   6
  -4   3  -6 5.09933 22.7344   2
  -4   3  -6 20.4509 37.3416   4
   4  -3   6 7.03104 34.2463   5
   4  -3   6 12.5890 25.8445   6
   4  -3   6-7.09692 40.5092   8
  -3  -4   6 7.18952 37.1308   5
  -4  -3   6 3.16678 26.0037   4
   4   3  -6 8.63598 20.6653   2
  -4  -3   6 53.2720 124.646   1
  -3   4  -6-4.65483 20.7725   4
   4   3  -6-9.04869 30.1935   7
  -4  -3   6-5.84446 33.8838   5
  -3  -4   6 7.12612 37.4774   8
   4  -3   6-19.2329 37.6952   7
   3   4  -6 5.40171 22.8456   2
  -4  -3   6 6.00433 37.2686   8
   3  -4   6-5.68297 33.9027   7
   4   3  -6 15.6123 23.0169   6
  -4  -3   7 3345.62 1297.73   5
   4   3  -7 5101.59 1297.73   7
  -4  -3   7 2121.76 1291.56   4
   4   3  -7 4593.90 1296.95   3
   3  -4   7 8.54705 1289.60   8
  -3   4  -7 2259.89 1293.03   4
   4  -3   7 3606.62 1300.46   5
   4  -3   7 3660.43 1299.57   6
   4   3  -7 5553.68 1298.76   2
  -3  -4   7 727.659 1291.21   5
   3  -4   7 11.1656 1288.74   6
  -4  -3   7 2562.48 1299.23   1
   3   4  -7 3969.73 1292.98   6
   4   3  -7 4606.22 1296.09   6
  -4   3  -7 6149.47 1301.06   4
   3  -4   7 966.014 1291.10   7
   4  -3   8 851.445 331.274   6
  -3   4  -8 855.960 329.337   4
   3  -4   8 172.368 327.571   5
  -4  -3   8 1002.52 335.914   5
   4   3  -8 491.234 326.064   6
   3  -4   8 44.6388 323.268   6
   4   3  -8 1136.41 330.842   7
  -4   3  -8 1052.97 333.649   4
  -4  -3   8 103.103 324.010   4
   4  -3   8 654.311 334.083   8
  -3   4  -8 1026.86 334.790   2
  -3  -4   8 287.370 323.942   4
   3  -4   8 608.328 329.410   7
   3  -4   8 73.2822 327.039   8
   4  -3   8 797.498 332.619   7
  -4  -3   9 10.1552 314.962   4
  -3  -4   9 1079.57 332.032   5
   3  -4   9 1048.30 334.836   5
   4  -3   9 1793.19 339.957   8
   3  -4   9 482.697 319.454   6
   3  -4   9 1183.31 326.350   7
   3   4  -9 2912.66 346.011   2
  -3   4  -9 2358.27 332.361   4
  -4   3  -9 1899.83 373.935   1
  -3  -4   9 920.915 332.430   8
   4  -3   9 991.801 327.984   7
  -3  -4   9 36.0731 314.847   4
   3  -4   9 774.606 331.605   8
  -4   3  -9 2653.67 337.080   4
   4   3  -9 12.1707 314.754   6
  -4  -3  10 52.0792 70.7949   5
   3  -4  10 71.2331 82.4586   5
  -4   3 -10 188.170 70.2621   4
   4  -3  10 135.051 78.5274   8
  -3  -4  10 7.11050 50.1891   4
   3   4 -10 86.2028 66.7123   3
  -3   4 -10 64.7825 67.1367   3
  -4  -3  10 164.189 77.3305   8
   4   3 -10 133.826 64.5340   7
   4  -3  10-14.2130 72.4560   7
  -3  -4  10 66.8932 78.6875   8
   4  -3  10 161.190 66.4942   6
   3  -4  10 90.8935 59.6649   6
  -3  -4  10-9.32464 74.7198   5
  -3  -4  10-37.3685 63.3789   1
   3  -4  10 72.0605 86.1592   8
   4   3 -10 91.8856 65.0093   3
  -4   3 -10 73.7106 65.0269   3
  -3   4 -10 130.333 63.6131   4
  -3   4 -10 132.362 65.0078   2
   4  -3  10 141.737 75.8687   5
   3  -4  10 5.67216 62.2343   7
   3  -4  11 160.487 180.916   5
   4   3 -11 268.871 175.302   3
   3  -4  11 11.6239 172.453   7
  -3   4 -11 197.422 177.527   3
  -4  -3  11 338.786 183.424   5
   3  -4  11 219.431 187.038   8
  -3  -4  11 152.484 182.717   8
  -3   4 -11 344.999 175.775   4
   3  -4  11 265.444 173.660   6
  -3   4 -11-47.9028 257.626   1
   4  -3  11 247.532 183.753   5
   4  -3  11 195.314 173.953   6
  -4   3 -11 239.381 176.688   3
   4   3 -11 454.913 175.342   7
  -4   3 -11 390.800 178.005   4
  -4  -3  11 292.043 181.038   8
   4  -3  11 280.751 186.916   8
   3   4 -11 327.186 178.174   3
   4  -3  11-7.38604 174.105   7
  -3  -4  11 200.102 179.306   5
   3  -4  12 535.702 407.522   6
   4   3 -12 918.156 408.282   7
  -4  -3  12 386.920 411.989   5
  -3  -4  12 406.539 411.221   5
  -3   4 -12 892.125 410.517   4
   3   4 -12 692.365 411.396   3
  -3  -4  12 723.901 419.259   8
   4  -3  12 474.876 418.284   8
   4   3 -12 558.778 409.413   3
  -4   3 -12 893.130 414.089   3
   4  -3  12 673.457 417.172   5
   3  -4  12 443.438 414.409   5
  -4  -3  12 606.324 413.527   8
   4  -3  12 603.147 411.205   6
  -4   3 -12 757.377 410.532   4
   3  -4  12 390.048 416.758   8
  -3   4 -12-230.688 465.024   1
   3  -4  12-42.1256 407.050   7
  -3   4 -12 661.262 412.936   3
   4  -3  13 60.7914 76.8560   8
   3  -4  13 33.0040 45.6166   6
  -4  -3  13 52.8666 67.2314   8
   3  -4  13 132.544 75.7029   5
   3  -4  13 22.9751 77.2258   8
   3   4 -13 89.8459 56.5093   3
  -3   4 -13-64.7141 166.810   1
   3  -4  13-6.24986 51.1727   7
   4   3 -13 80.6918 50.0351   7
  -3  -4  13-10.8718 77.7438   8
  -4   3 -13 68.6216 60.1667   3
   4   3 -13 67.3162 55.1304   3
  -3  -4  13 11.5805 65.7705   5
   4  -3  13 48.3427 65.7318   5
  -4  -3  13 81.1806 72.5374   5
  -4   3 -13 58.7292 58.3291   4
  -3   4 -13 8.54909 55.0281   3
  -3   4 -14 200.269 367.932   1
   3   4 -14 702.934 351.732   3
   4  -3  14 484.569 355.092   8
   3  -4  14 400.828 353.257   8
  -4   3 -14 401.100 348.560   3
  -3  -4  14 539.713 354.913   8
   3  -4  14-6.45831 342.292   7
  -3   4 -14 546.047 352.141   3
   3  -4  14 604.387 346.543   6
  -4  -3  14 518.538 350.740   8
  -4  -3  14 607.912 356.147   5
  -3   4 -14 912.541 348.199   4
  -3  -4  14 393.604 353.155   5
   4  -3  14 667.695 357.462   5
   3  -4  14 582.032 356.321   5
   4   3 -14 576.215 350.306   3
   4  -3  15-42.0789 68.2895   5
  -4   3 -15-9.65274 44.0651   3
   3  -4  15 12.8078 80.4646   8
   4  -3  15-10.6571 61.7798   8
  -4  -3  15 13.4487 58.2956   5
   3   4 -15 9.51681 49.2217   3
  -3  -4  15-26.7390 67.7515   5
   3  -4  15-27.2683 66.3868   5
  -3  -4  15-11.2102 74.7143   8
  -3   4 -15-19.1906 53.1524   3
   4   3 -15-9.59319 45.8172   3
  -4  -3  15 50.2345 66.9841   8
  -4  -3  16 71.3437 92.9268   5
   4  -3  16 29.6058 92.2481   5
   4   3 -16 63.9483 84.8467   3
  -3  -4  16 112.898 108.095   5
   3  -4  16 111.065 110.102   8
  -4   3 -16 117.738 88.2314   3
  -3   4 -16 104.494 90.4106   3
   4  -3  16 67.5048 104.198   8
   3   4 -16 160.786 88.9243   3
  -4  -3  16 74.6340 98.2988   8
  -3  -4  16 94.6933 108.622   8
   3  -4  16 161.882 112.820   5
  -3  -4  17 1042.05 579.310   5
   4  -3  17 1207.81 577.669   8
  -4  -3  17 980.774 574.883   8
   4   3 -17 383.113 566.107   3
   3  -4  17 787.122 576.737   5
   3  -4  17 712.084 575.698   8
   3   4 -17 822.302 570.870   3
  -4  -3  17 603.360 573.094   5
  -3   4 -17 986.544 572.868   3
   4  -3  17 856.564 575.788   5
  -3  -4  17 1071.71 578.303   8
  -4   3 -17 720.801 570.057   3
  -3  -4  18 798.086 446.229   8
   4  -3  18 914.596 450.350   5
   3   4 -18 781.565 441.891   3
   4   3 -18 201.866 432.721   3
   3  -4  18 555.500 448.346   8
  -4  -3  18 405.014 441.686   5
  -3  -4  18 643.378 444.938   5
  -3   4 -18 929.120 442.894   3
   4  -3  18 832.510 445.643   8
   3  -4  18 616.393 446.470   5
  -4   3 -18 433.102 437.304   3
  -4  -3  18 749.062 443.259   8
   3   4 -19 1514.81 1160.44   3
   4   3 -19 368.070 1154.33   3
  -3   4 -19 2427.94 1165.82   3
   3  -4  19 1860.84 1168.56   5
   4  -3  19 2705.08 1169.61   8
  -3  -4  19 2548.61 1169.97   8
   3  -4  19 2772.98 1173.31   8
  -3  -4  19 2450.52 1172.13   5
  -4  -3  19 1480.13 1163.78   5
  -4   3 -19 1463.20 1161.02   3
   4  -3  19 1844.45 1167.43   5
   3  -4  20 162.124 125.202   8
  -4  -3  20 71.2693 98.2600   5
   4  -3  20 72.6404 99.3045   5
  -4   3 -20 27.0351 89.1068   3
  -3  -4  20 173.883 127.742   8
  -3  -4  20 125.272 111.979   5
  -4  -3  20 73.8132 105.103   8
   3  -4  20 126.795 117.085   5
   4  -3  20 95.0327 114.242   8
   4   3 -20-13.2937 89.4192   3
   3   4 -20 106.863 98.9319   3
  -3   4 -20 209.660 101.284   3
   4   3 -21 138.852 685.387   3
   4  -3  21 1715.14 709.751   5
  -3   4 -21 1141.00 696.603   3
   3  -4  21 1915.85 713.999   5
   4  -3  21 1979.39 709.226   8
  -4  -3  21 1302.81 703.546   5
  -4  -3  21 1683.49 701.502   8
  -3  -4  21 1137.41 702.166   5
  -4   3 -21 272.109 687.096   3
  -3  -4  21 1784.17 706.710   8
   3   4 -21 751.610 691.637   3
   4   3 -22-14.4666 67.8861   3
   3   4 -22 57.8848 76.4661   3
  -3  -4  22 158.037 105.592   5
  -4  -3  22 120.531 106.242   8
   4  -3  23 487.457 263.303   8
   3  -4  23 390.852 265.920   5
  -3   4 -23 183.791 243.635   3
  -3  -4  23 285.665 264.140   8
   3  -4  23 427.935 269.756   8
  -3  -4  24-21.2137 87.4212   5
   3  -4  24 17.0083 116.849   8
   3   4 -24-15.8145 81.9110   3
  -4  -3  24 86.6304 109.756   8
   4  -3  24 110.328 121.397   8
  -3  -4  24 140.129 125.806   8
  -4   3 -24 15.9609 118.726   3
   4  -3  24-21.4720 93.4014   5
  -3   4 -24 15.8269 102.067   3
   3  -4  24 21.6614 94.1730   5
  -4   3 -25 16.4834 59.6596   3
   4  -3  25 16.2781 113.416   8
   3   4 -25 16.3413 63.4451   3
  -3  -4  25-21.9200 92.7135   5
   3  -4  25-35.0996 123.455   8
  -3   4 -25 33.2223 82.9017   3
   3  -4  25-22.3415 80.4345   5
  -3  -4  25 80.4533 113.249   8
  -3  -4  26 66.3698 129.782   8
  -3   4 -26-34.2121 76.1715   3
   3  -4  26 46.0084 82.5421   5
   3  -4  26-36.1377 126.925   8
   3   4 -26-33.7104 55.8350   3
   4  -3  26-16.7800 111.864   8
  -3   4 -27-52.7574 73.9620   3
  -3  -4  27-17.0868 113.756   8
   3  -4  27 18.5784 124.837   8
   3  -4  27-23.6472 89.4504   5
   3  -4  28 19.0666 133.034   8
  -3   4 -28 18.0462 77.0333   3
   4  -4   3 7.23575 29.1512   7
  -4  -4   4-12.0900 26.8297   5
  -4   4  -4 40.9381 27.2234   4
   4   4  -4 9.75217 24.1979   6
   4  -4   4 7.15962 29.2954   8
  -4   4  -4-5.49734 15.4409   2
   4   4  -4-4.59503 12.0800   2
   4  -4   4-14.2890 31.7070   7
   4   4  -5-4.94304 20.2293   2
   4  -4   5 14.1442 37.7899   7
   4   4  -5 4.51834 23.7284   6
  -4  -4   5-65.8964 86.7446   1
  -4  -4   5 19.5485 32.9703   5
  -4   4  -5 17.3462 25.6620   4
  -4  -4   5 6.44961 31.3539   8
   4  -4   5-15.3635 37.3419   5
   4  -4   5-20.9785 19.6324   6
   4   4  -6 2123.27 249.912   6
   4   4  -6 29.2067 231.270   7
   4  -4   6 265.142 236.727   7
   4  -4   6 20.8778 231.706   6
  -4  -4   6 27.9794 233.585   8
  -4  -4   6 106.599 247.290   1
  -4  -4   6 77.2425 234.441   5
  -4   4  -6 2088.19 257.289   4
  -4   4  -7-32.0536 30.8368   2
   4  -4   7 17.4147 49.8326   8
  -4   4  -7 5.64960 29.4748   4
   4  -4   7-6.92035 40.8707   7
   4  -4   7-6.95524 24.3286   6
  -4  -4   7-7.53405 39.8110   5
   4   4  -7 4.55375 22.5910   7
   4   4  -7-3.83379 22.3138   6
  -4  -4   7-57.7445 95.2916   1
  -4  -4   8 68.7790 628.544   1
   4  -4   8 74.5416 623.037   8
   4   4  -8 17.0800 620.764   7
   4   4  -8 3375.24 630.839   6
   4  -4   8 1098.27 629.944   5
  -4   4  -8 3543.93 637.865   4
   4  -4   8 1618.05 630.339   7
  -4  -4   8 1007.00 623.227   4
   4   4  -9 20.0347 30.3703   7
   4   4  -9-6.26980 28.6061   2
  -4  -4   9-82.8447 109.713   1
   4  -4   9 58.0960 59.2672   5
  -4   4  -9-7.15669 31.8441   2
   4   4  -9-6.08404 36.2962   3
   4  -4   9 14.2757 50.1327   7
  -4  -4   9 8.91889 55.3125   8
  -4   4  -9 5.57284 38.7771   4
  -4   4  -9 6.84322 36.6404   3
   4  -4   9-14.0740 34.9902   6
  -4  -4   9 3.04626 28.1297   4
   4   4  -9-3.71718 20.6725   6
  -4  -4   9 34.2295 58.8699   5
   4  -4   9 9.96081 64.0907   8
  -4  -4  10 841.497 350.616   8
   4   4 -10 290.824 337.107   7
   4   4 -10 1298.79 348.350   2
  -4   4 -10 1856.40 351.557   4
   4   4 -10 1128.97 348.100   3
  -4   4 -10 1343.31 350.291   3
   4   4 -10 135.494 335.613   6
   4  -4  10 403.931 349.235   8
  -4  -4  10 21.6109 353.698   1
   4  -4  10 1022.02 346.180   6
  -4  -4  10 6.01736 335.189   4
   4  -4  10 826.164 351.271   5
   4  -4  10 540.765 343.473   7
  -4  -4  10 498.125 351.645   5
  -4  -4  11 152.479 217.075   8
  -4   4 -11 284.649 202.331   3
   4  -4  11 324.949 207.368   7
  -4  -4  11 195.070 183.398   4
   4   4 -11 84.5931 188.383   3
   4   4 -11 106.209 184.496   7
  -4   4 -11 293.898 197.287   2
   4  -4  11 400.417 230.555   8
  -4  -4  11 89.2179 197.063   5
   4  -4  11 433.823 215.498   5
   4  -4  12 70.8780 93.7525   8
  -4  -4  12 30.3428 80.1587   8
   4  -4  12 60.1060 61.4545   6
  -4   4 -12 99.1737 67.2819   4
  -4   4 -12 16.3279 62.9881   3
  -4  -4  12 43.1124 76.5199   5
   4  -4  12 126.671 84.5952   5
   4   4 -12 106.446 70.1967   3
   4   4 -13 16.2280 38.6179   3
  -4   4 -13-22.5112 47.3866   4
   4  -4  13 11.6227 72.0191   8
  -4  -4  13-10.7966 68.5946   8
   4  -4  13 12.1916 59.2639   5
  -4   4 -13 8.64617 43.7496   3
  -4  -4  13-22.9958 69.3950   5
   4  -4  13-6.82500 32.4865   6
  -4  -4  14 125.514 132.009   5
  -4   4 -14 128.758 124.240   3
  -4  -4  14 68.8956 134.344   8
   4   4 -14 151.919 122.435   3
   4  -4  14 143.841 135.104   5
   4  -4  14 135.081 140.373   8
  -4   4 -14 255.213 123.180   4
  -4   4 -15 9.69093 50.9008   3
   4   4 -15-9.47170 47.9425   3
  -4  -4  15 13.3000 67.3022   5
   4  -4  15-41.3240 69.7030   5
  -4  -4  15 22.3008 77.4552   8
   4  -4  15 25.8816 77.0506   8
   4  -4  16 27.2019 95.2731   8
  -4  -4  16 11.7842 88.8801   8
  -4  -4  16 72.4715 88.8217   5
  -4   4 -16 31.6363 65.9468   3
   4  -4  16 163.447 95.4263   5
   4   4 -16 31.5414 60.6338   3
  -4   4 -17 33.1698 56.9649   3
  -4  -4  17 15.2650 77.9741   5
  -4  -4  17-24.8285 94.4188   8
   4  -4  17 13.0647 85.6794   8
   4   4 -17 11.0751 55.9885   3
   4  -4  17 46.7253 78.0125   5
   4  -4  18 1344.34 1075.97   5
   4  -4  18 2008.92 1078.42   8
  -4  -4  18 1234.42 1073.63   5
  -4  -4  18 1864.83 1076.78   8
   4   4 -18 1244.72 1070.35   3
  -4   4 -18 1664.03 1072.82   3
  -4  -4  19-27.3248 101.368   8
   4   4 -19-12.7593 60.7895   3
   4  -4  19-17.5307 82.6147   5
   4  -4  19-14.2610 97.8716   8
  -4   4 -19-25.3505 70.1016   3
  -4  -4  19-17.0889 82.3491   5
   4  -4  20 1843.36 806.390   5
   4  -4  20 1410.84 800.670   8
  -4   4 -20 1029.35 792.165   3
  -4  -4  20 1770.42 800.968   8
   4   4 -20 560.008 786.886   3
  -4  -4  20 1071.28 795.649   5
  -4   4 -21 14.3581 72.6623   3
  -4  -4  21-18.6110 86.6290   5
  -4  -4  21 13.9091 99.5304   8
   4   4 -21-13.8992 60.1401   3
   4  -4  21-19.2973 87.7575   5
   4   4 -22 250.077 299.362   3
  -4  -4  22 848.025 328.349   5
  -4   4 -23-30.8189 78.3812   3
  -4  -4  23-45.0481 111.785   8
   4  -4  23 20.7030 82.5649   5
   4  -4  23 33.1330 105.559   8
   4  -4  24 102.692 117.671   8
  -4  -4  24 15.5528 109.137   8
   4  -4  24-21.7923 91.7614   5
  -4   4 -24-16.1985 70.0934   3
  -4  -4  24-21.1932 91.6840   5
   4   4 -24-15.8094 66.5893   3
   4  -4  25 88.2486 137.642   8
  -4  -4  25 64.3114 104.534   8
   4  -4  25-22.4748 84.8613   5
  -4   4 -25 16.7027 79.2589   3
   4   4 -25-16.3383 62.6030   3
  -4   4 -26-17.1939 75.4682   3
   4  -4  26-36.3407 125.563   8
   4  -4  26 23.1275 92.6850   5
  -4  -4  26-33.1740 118.230   8
   4  -4  27-47.5382 105.516   5
  -4   4 -27 17.6668 70.1907   3
   4  -4  27-18.6735 139.913   8
  -4  -4  27 17.0821 123.427   8
   4  -4  28-19.1641 137.409   8
  -4   4 -28-36.2535 68.1809   3
   5   0   0 6.01289 24.9446   6
  -5   0   0-14.8536 31.7266   4
   5   0   0-13.4101 30.7662   7
   5   0   1 393.664 256.706   6
  -5   0   1 294.426 255.780   4
   5   0  -1 639.142 260.238   7
  -5   0  -1 279.134 255.442   4
   5   0  -1 318.299 255.751   6
   5   0  -2 6.40643 25.2068   6
   5   0   2 18.5573 27.9763   6
  -5   0   2 10.4430 33.2096   4
   5   0  -2-71.8272 38.1624   7
  -5   0  -2-4.95870 29.6060   4
   5   0  -3-6.66989 23.9801   6
   5   0  -3 19.9341 35.5827   7
   5   0   3 4.12025 14.7928   8
  -5   0  -3 2.22004 9.39357   3
   5   0   3-2.99468 10.9784   5
   5   0   3 32.0455 29.2382   6
  -5   0   3-10.6168 27.4716   4
   5   0   4-3.88913 14.5381   5
   5   0   4 2.56052 17.3143   8
   5   0  -4 13.4039 33.2902   7
  -5   0  -4-2.88501 10.8453   3
  -5   0   4-10.8985 29.1645   4
   5   0   4-6.58953 32.7333   6
   5   0  -4-13.3513 23.0069   6
  -5   0   5 77.5420 43.2425   8
  -5   0  -5 14.2161 41.0871   3
   5   0   5 159.195 48.6710   8
   5   0  -5-13.4291 46.0755   6
  -5   0   5-5.57912 45.9830   4
   5   0  -5 47.6028 53.1203   7
   5   0  -6-6.78466 19.0391   6
  -5   0   6-5.65168 20.9805   4
  -5   0  -6 4.22508 14.5211   3
   0  -5   6 8.65629 38.4079   8
   5   0   6 10.9210 25.0228   8
   5   0  -6-13.7583 34.8012   7
   0   5  -6-6.63123 21.8205   2
   5   0  -7 34.8996 329.885   7
   0  -5   7-18.4822 330.488   5
  -5   0  -7 112.655 329.213   3
   0  -5   7-9.16360 331.696   8
   5   0   7 1302.49 347.801   7
   0   5  -7 3721.94 367.439   2
  -5   0  -7 88.4403 365.609   1
   0  -5   8 9.71590 51.4770   8
   0   5  -8-7.15865 28.3683   2
  -5   0  -8-71.2500 155.620   1
   5   0  -8-14.2251 33.8174   7
   0  -5   8-19.5821 48.0919   5
   5   0   8-26.4707 40.7120   7
   5   0   8-4.76778 25.0973   8
   0  -5   9-2.05256 27.2514   7
   0  -5   9-10.3058 62.1959   8
   0  -5   9 41.2966 59.7119   5
  -5   0  -9-63.2957 154.454   1
   5   0   9 9.15702 41.9633   7
   0  -5  10 10.8198 54.7381   5
   5   0  10-8.35577 36.1379   6
   0  -5  10-10.9256 71.0818   8
   0   5 -10-7.85651 34.8615   2
   5   0  10 5.92169 31.0908   8
  -5   0 -10 174.996 149.968   1
   5   0  11-12.9938 36.6446   8
   0  -5  11-11.5687 75.3531   8
   0  -5  11-22.4878 58.0802   5
   0   5 -11 8.31943 37.9998   2
   0   5 -11-7.95849 43.4011   3
   5   0  11 8.66384 41.3845   6
   0  -5  12-35.6447 78.3021   5
   0   5 -12 25.2395 52.9514   3
   0   5 -12 8.59319 40.1999   2
   5   0  12 26.9477 50.5812   6
   5   0  12-7.06977 38.6380   8
   0  -5  12-12.0206 90.1343   8
   0   5 -13 1001.74 573.063   3
   5   0  13 985.424 571.459   8
   0  -5  13 646.918 576.196   8
   0  -5  13 420.529 572.452   5
   0   5 -14-9.24634 52.8116   3
   0  -5  14-13.0221 68.4521   5
   0  -5  14 13.3594 85.9678   8
   0  -5  15 123.124 85.8852   5
   0   5 -15 19.4341 67.4155   3
   0  -5  15 104.346 104.367   8
   0  -5  16-27.3588 90.5492   8
   0   5 -16-20.5212 59.9576   3
   0  -5  16-29.1315 80.8943   5
   0  -5  17-14.3165 102.935   8
   0  -5  17 76.1932 94.1178   5
   0   5 -17 75.1639 73.4897   3
   0   5 -18 69.6659 72.1784   3
   0  -5  18 14.9532 110.590   8
   0  -5  18-16.3344 82.8755   5
   0   5 -19 1403.76 830.506   3
   0  -5  19 872.825 835.903   8
   0  -5  19 1089.32 836.533   5
   0   5 -20 12.5880 62.7597   3
   0  -5  20 32.4252 111.618   8
   0  -5  20-17.6996 84.4503   5
   0   5 -21 1400.20 939.147   3
   0  -5  21 1232.13 943.917   5
   0  -5  22-15.9802 110.402   8
   0  -5  23 62.0022 123.673   5
   0  -5  23 99.1860 139.259   8
   0   5 -23 88.2664 101.682   3
   0   5 -24-15.9053 103.979   3
   0  -5  24-68.2873 125.725   8
   0  -5  24-21.3388 106.579   5
   0  -5  25 43.9832 108.000   5
   0   5 -25-49.1826 76.1214   3
   0  -5  25-17.5978 121.946   8
   0  -5  26-45.2568 105.511   5
   0  -5  26 36.2222 128.494   8
   0   5 -26-16.8707 76.9901   3
   0   5 -27-17.6389 74.9491   3
   0  -5  27-37.2236 134.820   8
   0  -5  27 23.6950 100.263   5
   0  -5  28 19.0919 138.040   8
   0   5 -28 18.0972 74.2933   3
   0  -5  28-24.3017 108.007   5
   0  -5  29 49.7918 102.999   5
   0  -5  29 78.2478 142.131   8
   0   5 -29-18.5364 72.8722   3
   0   5 -30 37.9187 68.7962   3
   0  -5  30-20.0038 147.638   8
  -5  -1   0 372.052 142.239   1
  -5   1   0 363.603 67.4894   4
   5   1   0 265.963 66.2398   7
   5   1   0 248.892 60.4743   6
   5  -1   0 169.135 57.9118   6
   5  -1   1 773.081 1088.81   5
  -5   1  -1 3490.62 1097.20   4
  -5  -1  -1 1644.86 1100.41   1
   5   1   1 2950.96 1096.47   6
  -5   1   1 3242.33 1096.48   4
   5   1   1 3276.32 1098.99   7
   5   1  -2 22.8894 39.2859   6
  -5   1   2 34.5898 40.2419   4
   5  -1   2 91.6358 51.4189   7
  -5   1  -2 6.38303 30.5335   2
   5  -1   2 85.1806 36.6010   5
   5   1  -2 125.768 51.4366   7
  -5  -1   2 45.8485 42.5061   4
  -5   1  -2 62.4228 45.9652   4
   5  -1  -2 35.8049 45.7841   7
   5  -1  -2 7.07105 37.7474   6
  -5   1  -2 89.6118 34.2144   3
   5  -1   2-5.54793 33.2707   8
   5   1   2 12.9168 40.6868   6
   5  -1   2 56.9026 43.5507   6
   5  -1  -3-7.20662 34.1392   7
  -5   1  -3 52.7978 40.2620   4
  -5  -1   3-2.31218 17.3035   5
   5  -1  -3 7.11754 25.3566   6
   5  -1   3 10.2600 26.4715   8
   5  -1   3 32.0920 32.9587   6
   5   1  -3 1.72660 15.9013   3
   5   1  -3 40.6529 32.0024   6
  -5  -1   3 9.64297 32.9634   4
   5   1  -3 106.720 46.6108   7
  -5  -1   3 35.5892 22.4912   8
  -5   1   3 11.8136 28.5018   4
  -5   1  -3 12.3073 18.8464   2
   5   1   3-6.72480 34.2562   6
  -5   1  -3 46.5205 21.8271   3
   5  -1   3 45.9272 26.5073   5
   5   1  -4 1096.83 366.967   6
   5  -1   4 1053.22 363.200   8
   5   1  -4 204.966 357.122   3
  -5  -1   4 1410.02 361.429   8
   5  -1  -4 7.29232 357.862   7
   5   1  -4 2255.47 377.577   7
  -5   1   4 101.767 358.445   4
  -5   1  -4 1209.23 361.689   3
   5  -1   4 1384.65 364.597   5
  -5   1  -4 1646.79 370.717   4
   5  -1  -4 7.19413 356.894   6
  -5  -1   4 44.6508 356.730   5
   5  -1   5 552.981 221.471   5
   5  -1   5 291.017 222.618   6
   5   1  -5 51.8134 215.079   3
   5  -1   5 499.793 221.340   8
  -5  -1   5 8.15779 215.089   5
  -5   1  -5 619.651 225.548   4
  -5  -1   5 565.797 218.779   8
  -5   1  -5 512.779 219.183   3
   5   1  -5 994.216 230.682   7
   5   1  -5 201.379 218.671   6
  -5  -1   5 270.787 219.630   4
  -5   1  -6 2521.04 331.731   3
   1   5  -6 326.313 319.178   2
   5   1  -6 130.148 316.095   3
  -5  -1  -6 69.4975 344.702   1
  -1  -5   6 8.51683 317.629   8
   5   1  -6 245.072 318.581   6
   5   1   6 223.607 320.416   7
   1  -5   6-8.80128 317.677   8
  -5  -1   6 2522.64 328.851   8
  -5  -1   6 467.381 320.255   4
   5   1  -7-6.30944 107.190   6
   5   1   7 35.7806 111.523   7
   1  -5   7-9.38329 112.544   5
   1   5  -7 198.425 116.026   2
  -1  -5   7 9.10499 112.842   5
   5   1  -7 8.78440 105.875   3
   5  -1   7 461.108 121.656   5
   5   1   7 7.87504 110.083   6
   5   1  -7 475.128 123.317   7
  -5  -1  -7 103.114 173.401   1
  -5  -1   7 10.4972 108.280   4
  -5  -1   7 488.922 116.358   8
  -1  -5   7-9.02865 111.642   8
  -5   1  -7 395.871 116.375   3
   5  -1   7 375.351 119.102   8
   1  -5   8-3.52886 353.880   7
   5   1  -8 1425.02 369.064   7
   5  -1   8 2906.17 376.569   8
  -5  -1  -8 96.3984 375.418   1
  -1  -5   8 9.65801 355.975   5
   5  -1   8 3323.26 388.084   5
   5  -1   8 1043.99 368.056   7
   1  -5   8 39.7267 357.491   5
  -5  -1   8-5.31024 353.727   4
   1   5  -8 3347.90 387.401   2
  -1  -5   8-28.7525 357.454   8
  -5   1  -8 2102.62 371.537   3
  -5   1  -8 39.2369 396.343   1
  -1  -5   9-10.1961 116.606   5
   5  -1   9 158.001 122.526   7
   5   1  -9 281.130 120.322   7
   1  -5   9 6.54134 109.572   7
  -5   1  -9 212.600 210.084   1
   1  -5   9 31.3830 116.629   5
  -1  -5   9 50.8861 124.604   8
  -5   1 -10 491.603 213.371   1
   5  -1  10 149.140 86.3414   6
   1   5 -10 178.423 87.4694   3
   1   5 -10 287.442 88.3874   2
   1  -5  10 21.0663 72.6150   7
   5  -1  10 63.5209 84.8415   7
  -5   1 -10 97.5952 80.7323   3
   1  -5  10 21.9038 90.2568   5
  -1  -5  10-10.8016 92.2451   8
   5   1 -10 26.6600 78.6032   7
  -1  -5  10-21.3955 90.6042   5
   5  -1  10 207.840 84.2808   8
   5  -1  10 149.985 83.8226   5
  -1   5 -11 476.309 199.105   1
   1  -5  11 34.1107 176.942   5
  -1   5 -11 603.330 184.359   3
   5  -1  11 286.039 176.767   6
   5  -1  11-9.38122 170.202   7
  -1  -5  11 263.322 187.711   8
   1  -5  11 8.79730 166.997   7
   1   5 -11 535.799 181.269   3
  -5   1 -11 159.905 170.142   3
  -1  -5  11 155.790 184.559   5
   5   1 -11-6.81301 168.865   7
  -5  -1  11 578.780 179.458   8
   5  -1  11 511.865 185.627   5
   1   5 -11 716.482 184.696   2
   5  -1  11 578.008 181.830   8
   5  -1  12 50.7109 56.0747   6
  -5   1 -12 25.2097 44.7572   3
   1   5 -12 119.193 61.2572   2
  -1  -5  12-11.6153 71.6127   5
  -1   5 -12 25.4903 59.3859   3
   1  -5  12-12.0034 83.6374   5
  -1  -5  12-23.8113 96.9697   8
   1   5 -12-8.25186 66.0799   3
  -5  -1  12 46.7074 44.8936   8
   5  -1  12 67.8786 59.2506   5
   5  -1  12 104.479 57.9144   8
   5  -1  13 731.907 369.379   8
   5  -1  13 682.662 372.956   5
   5  -1  13 262.296 365.321   6
  -1  -5  13 238.931 373.665   8
   1   5 -13 923.760 372.571   3
  -5  -1  13 819.219 368.462   8
  -1  -5  13 453.695 371.335   5
   1  -5  13 262.192 370.149   5
  -1   5 -13 549.730 370.772   3
  -5   1 -13 54.3337 360.488   3
   1   5 -13 980.205 372.406   2
  -1  -5  14 371.118 349.161   8
  -5  -1  14 719.949 339.648   8
   1  -5  14 420.337 343.383   5
   5  -1  14 801.741 340.217   8
   1   5 -14 844.332 342.403   3
   5  -1  14 692.309 343.696   5
  -1  -5  14 374.677 340.704   5
  -5   1 -14 77.6392 329.432   3
   5  -1  14 265.636 334.537   6
  -1   5 -14 671.259 341.002   3
   5  -1  15 151.641 274.969   6
  -1   5 -15 567.874 286.742   3
   1  -5  15 537.826 291.946   5
   5  -1  15 473.580 285.773   5
  -5   1 -15 82.7855 271.947   3
   5  -1  15 533.281 287.679   8
  -5  -1  15 646.470 282.186   8
   1   5 -15 733.502 287.549   3
  -1  -5  15 349.615 288.250   8
  -1  -5  15 190.152 286.905   5
   5  -1  16 9.76187 56.5734   8
  -1   5 -16-30.9949 57.1707   3
  -5   1 -16 10.9875 40.9265   3
  -1  -5  16-14.4702 88.5630   5
   1   5 -16-10.1969 50.6951   3
  -1  -5  16 40.7697 90.5097   8
   5  -1  16 19.6174 54.2872   6
   1  -5  16 102.718 93.2811   5
   1   5 -17 694.037 371.273   3
  -1  -5  17 825.393 380.671   8
  -1   5 -17 615.969 369.638   3
  -1  -5  17 651.334 380.977   5
   5  -1  17 91.2930 360.724   6
   5  -1  17 495.593 369.541   8
   1  -5  17 659.760 379.188   5
   5  -1  18 522.279 406.397   8
  -1   5 -18 496.268 406.051   3
  -1  -5  18 773.280 417.641   8
  -1  -5  18 422.348 417.046   5
   1   5 -18 670.031 408.873   3
   1  -5  18 558.869 414.057   5
  -1   5 -19 656.990 320.936   3
   1  -5  19 496.473 328.533   5
  -1  -5  19 217.106 328.364   8
  -1  -5  19 321.759 322.351   5
   5  -1  19 239.984 316.389   8
   1   5 -19 638.430 322.138   3
  -1  -5  20 1807.62 1057.03   8
   1  -5  20 1388.00 1053.08   5
  -1   5 -20 1480.07 1048.15   3
  -1  -5  20 1126.94 1053.31   5
   1   5 -20 1617.02 1048.61   3
  -1   5 -21 358.525 211.788   3
  -1  -5  21 132.115 215.215   5
   1  -5  21 95.2368 212.375   5
   1   5 -21 382.886 211.826   3
   1  -5  23 224.340 131.016   5
   1   5 -23 76.7836 89.1199   3
  -1  -5  23 123.576 118.782   5
  -1   5 -23 14.7696 99.6058   3
  -1  -5  23 16.4744 120.790   8
   1  -5  24 42.8452 100.057   5
  -1  -5  24-17.0156 126.622   8
  -1   5 -24 63.8422 91.3665   3
   1   5 -24-15.8638 82.2285   3
  -1  -5  24-21.2722 105.870   5
   1  -5  25-22.0711 112.478   5
  -1   5 -25-16.4456 77.3830   3
   1   5 -25 49.0678 80.3545   3
  -1  -5  25 87.7195 98.2754   5
  -1  -5  25 122.815 126.953   8
   1   5 -26-50.5083 80.8184   3
  -1   5 -26-16.9189 79.4553   3
  -1  -5  26 18.0617 122.007   8
   1  -5  26 22.7035 103.775   5
  -1  -5  26-23.0053 97.4245   5
  -1   5 -27 17.6847 95.3318   3
  -1  -5  27 141.854 133.612   5
   1  -5  27 213.904 138.260   5
  -1  -5  27 92.8244 154.604   8
   1   5 -27 70.4299 99.7766   3
   1  -5  28-48.7385 102.766   5
  -1   5 -28-18.1397 69.9797   3
   1   5 -28 54.1934 84.2938   3
  -1  -5  28 97.0082 120.468   5
  -1  -5  28-19.0538 142.858   8
  -1   5 -29 37.1500 81.0342   3
  -1  -5  29 19.5220 151.531   8
  -1  -5  29 124.220 117.557   5
   1   5 -29-37.0127 80.7554   3
   1  -5  29 74.8767 95.0680   5
   1   5 -30 151.461 100.319   3
  -1   5 -30-18.9947 71.8096   3
  -1  -5  30-59.9214 143.545   8
   5  -2   0 187.003 135.843   6
  -5  -2   0 183.093 185.815   1
  -5  -2   1 24.1314 193.767   1
   5  -2   1 119.354 146.258   6
  -5   2  -1 420.676 153.834   4
   5   2   1 156.587 147.259   6
  -5   2   1 193.563 147.029   4
   5  -2  -1 22.5931 143.267   6
   5   2  -1 343.959 150.874   6
   5   2  -1 347.430 153.098   7
   5  -2  -2-7.61061 278.783   6
  -5  -2   2 353.742 280.245   5
  -5   2   2 480.821 284.855   4
  -5   2  -2 3529.09 316.068   4
   5   2  -2 3311.73 316.810   7
   5   2   2 740.859 289.332   6
   5  -2   2 11.9482 278.739   5
  -5  -2   2 1417.78 323.726   1
  -5  -2   3 2676.43 222.577   4
  -5   2  -3 4404.49 253.720   4
   5   2  -3 3663.71 241.420   6
   5   2  -3 3165.18 209.175   3
  -5  -2   3 2894.82 276.027   1
   5   2  -4 2221.93 422.627   7
   5   2  -4 585.310 405.859   2
   5  -2   4 1153.17 414.705   6
   5   2  -4 1414.34 408.319   3
  -5  -2   4 995.846 410.937   4
   5  -2   4 10.0212 405.022   8
   5   2  -4 1644.08 415.430   6
  -5   2  -4 95.9739 404.582   2
  -5  -2   4 32.5882 404.663   8
  -5   2  -4 1812.51 418.114   4
   5  -2   4 1171.64 411.948   5
  -5  -2   5 1158.96 462.956   5
   5  -2   5 237.598 459.752   8
  -2   5  -5 6.53127 457.600   2
   5   2  -5 1443.39 461.985   3
  -5   2  -5 1423.20 466.741   4
   5  -2   5 1688.88 468.208   5
  -5  -2  -5 121.355 471.211   1
   5   2  -5 1381.22 466.141   6
  -5   2  -5 488.025 459.490   2
   2  -5   5-8.50295 458.169   8
  -5  -2   5 785.111 461.724   8
  -2  -5   6 25.1527 501.893   8
  -5  -2   6 1702.29 510.220   5
   5   2  -6 3623.71 524.429   7
  -5  -2   6 952.692 506.529   4
   5   2  -6 1549.08 510.129   6
   2  -5   6-8.95497 502.078   8
   2  -5   6-9.03338 501.944   5
   5   2  -6 2424.59 509.479   3
   5  -2   6 880.370 507.926   8
  -2   5  -6 116.566 501.828   2
   2  -5   7 4.93795 663.584   7
  -2  -5   7 17.7965 665.104   8
  -5  -2   7 3722.82 677.781   8
  -2  -5   7-8.97717 664.008   5
   2  -5   7 47.6747 664.887   5
  -5   2  -7 4108.85 678.341   3
   5   2  -7 5700.43 690.864   7
   2   5  -7 1956.30 673.690   2
   2  -5   7-9.45832 664.723   8
   5  -2   7 2916.13 679.244   8
   5   2  -7 4390.57 676.808   3
   2  -5   8-30.0202 245.821   8
   5   2  -8 1105.33 251.999   3
  -5   2  -8 1286.17 255.183   3
  -5  -2   8 14.4312 241.042   4
  -2  -5   8 9.48442 243.921   5
  -5  -2   8 1103.87 254.627   8
   2  -5   8 14.3280 241.393   7
   5  -2   8 1235.03 261.561   5
   5   2  -8 11.7562 240.871   6
  -2   5  -8 1242.94 259.903   2
   2  -5   8-10.0797 243.049   5
  -2  -5   8 9.45866 246.055   8
  -5  -2   8 620.021 251.234   5
  -5   2  -9-187.853 270.654   1
   5  -2   9 545.257 185.383   7
  -2  -5   9 39.8709 173.767   5
   2  -5   9 50.3447 168.646   7
  -5  -2   9 1097.02 191.368   5
  -2  -5   9 50.2850 173.063   8
  -2   5  -9 1723.55 206.856   2
   5   2  -9 5.87837 165.943   6
   5  -2   9 1713.32 201.569   8
   2  -5   9 31.8174 172.686   5
   2  -5   9-10.5894 174.885   8
  -5  -2   9 9.81782 166.245   4
  -5   2 -10-121.766 555.722   1
   2  -5  10 233.971 512.121   7
  -2  -5  10 128.220 515.445   8
   2  -5  10 210.771 516.565   5
   5  -2  10 1817.69 528.219   5
   2   5 -10 2467.49 529.984   2
   5   2 -10 2349.59 525.826   7
   5  -2  10 1971.05 527.912   8
  -2  -5  10 232.825 514.916   5
   2  -5  10 112.025 515.736   8
   5  -2  10 244.085 514.747   7
  -5   2 -10 1861.35 523.543   3
  -5   2 -11 72.0667 56.1159   3
  -2   5 -11 59.5629 60.6555   2
   2  -5  11-23.0122 83.0313   5
   2   5 -11 78.0579 61.9551   3
  -5  -2  11 47.9214 55.4047   5
  -5  -2  11 47.1522 57.1556   8
  -2  -5  11-11.3380 104.384   8
   5  -2  11 79.5668 76.7137   8
   5  -2  11-36.2573 84.4217   7
   2  -5  11 35.5176 100.029   8
  -2   5 -11-14.7644 43.8043   4
   5   2 -11 71.9908 60.5221   7
  -2  -5  11 22.0416 69.6057   5
   2   5 -11 171.287 69.4898   2
   2  -5  11 26.7787 52.3707   7
   5  -2  11 71.0816 71.1413   5
  -2   5 -11 32.5512 62.4355   3
   5   2 -11 35.8197 53.5707   3
   5  -2  11 84.9569 54.3568   6
  -5  -2  12 1192.64 492.125   5
  -2   5 -12 3623.31 510.211   2
  -2   5 -12 276.017 477.363   4
   2  -5  12 4.48197 477.257   7
   5   2 -12 1488.02 487.037   7
  -2  -5  12 955.630 491.912   5
   2  -5  12 606.812 489.533   5
   5   2 -12 609.327 482.262   3
   5  -2  12 2521.93 503.813   8
   2  -5  12 624.708 493.930   8
  -2  -5  12 826.142 496.178   8
   2  -5  12 8.92925 476.197   6
   5  -2  12 28.0335 478.748   7
  -2   5 -12 189.473 509.997   1
   2   5 -12 3199.39 504.905   2
  -5  -2  12 2615.22 497.425   8
  -2   5 -12 2670.55 501.271   3
   2   5 -12 2561.09 499.779   3
  -2  -5  13 162.177 171.001   8
   5  -2  13-9.65041 152.523   7
  -2  -5  13 231.122 170.795   5
  -2   5 -13 322.342 166.991   3
   5  -2  13 321.964 169.219   8
  -5   2 -13 262.487 159.939   3
  -5   2 -13 22.1959 229.526   1
   5   2 -13 68.9791 154.849   7
  -2   5 -13 462.161 167.162   2
   2  -5  13 75.6799 162.090   5
   2   5 -13 371.929 165.786   3
   5   2 -13 51.6532 153.512   3
   2  -5  13 155.241 174.984   8
   5  -2  13 278.762 163.862   6
  -5  -2  13 286.449 161.056   8
   2   5 -13 285.573 159.669   2
   5  -2  13 326.889 171.858   5
  -5  -2  13 138.370 158.619   5
   5   2 -14 74.1153 445.507   3
  -2  -5  14 894.875 462.882   8
  -2  -5  14 654.164 458.952   5
   5   2 -14 25.7135 445.441   7
  -2   5 -14 1232.43 460.184   3
  -5  -2  14 1179.56 457.120   8
  -5   2 -14 938.825 455.635   3
   5  -2  14 1209.62 465.415   5
   2  -5  14 870.664 466.909   8
   5  -2  14 928.413 456.151   6
   2  -5  14 530.414 459.229   5
   2   5 -14 1112.07 457.407   3
  -5  -2  14 409.506 452.330   5
  -5   2 -14 34.3591 469.849   1
   5  -2  14 1034.94 458.698   8
  -2  -5  15 64.3278 99.4816   8
  -2   5 -15 138.224 77.5821   3
  -5  -2  15 39.8482 74.2770   5
   2  -5  15 14.2788 103.890   8
   5   2 -15 29.7574 64.1426   3
   5  -2  15 127.705 90.9068   8
   2   5 -15 95.9354 77.5068   3
  -5  -2  15 122.801 80.6406   8
  -2  -5  15 41.1121 100.717   5
   5  -2  15 69.8684 78.8456   5
   2  -5  15 55.6463 99.9714   5
   5  -2  15 62.1092 69.9248   6
  -5   2 -15 31.1869 68.4999   3
  -2   5 -16 1728.40 609.332   3
   2  -5  16 1050.39 609.934   5
  -5   2 -16 528.278 598.719   3
   5  -2  16 1053.52 601.630   6
   5  -2  16 1425.20 607.551   8
  -2  -5  16 1378.02 615.226   8
   2  -5  16 1250.45 612.828   8
   5   2 -16 31.7012 592.845   3
  -2  -5  16 676.090 609.471   5
  -5  -2  16 1252.33 604.797   8
   5  -2  16 1390.65 612.578   5
  -2  -5  17 325.575 212.816   8
  -5  -2  17 366.854 196.629   8
   2  -5  17 278.288 208.070   5
   5  -2  17 285.375 200.740   8
   2  -5  17 116.194 204.485   8
  -2  -5  17 180.824 206.764   5
   5  -2  17 365.878 202.949   5
   2   5 -17 393.152 199.512   3
  -2   5 -17 380.916 199.538   3
   5  -2  17 208.129 192.028   6
  -5   2 -17 11.8168 187.301   3
  -2   5 -18 1396.57 748.654   3
   2  -5  18 1257.79 755.750   8
   2  -5  18 1125.70 752.959   5
   5  -2  18 1396.93 751.360   8
   5  -2  18 1154.20 750.936   5
  -2  -5  18 1180.29 754.565   5
  -5   2 -18 198.816 738.631   3
  -2  -5  18 1317.25 755.554   8
  -5  -2  18 1131.91 746.613   8
   2   5 -18 1702.52 750.903   3
  -2   5 -19 1946.40 927.921   3
   5  -2  19 1245.17 926.848   5
   2  -5  19 1344.09 931.240   5
  -2  -5  19 2100.07 935.176   8
  -2  -5  19 1230.95 928.654   5
   2   5 -19 1787.94 926.871   3
   2  -5  19 1530.73 933.933   8
   5  -2  19 1646.42 927.122   8
  -5  -2  19 1754.90 925.415   8
  -5   2 -19 208.462 915.618   3
   2   5 -20 957.983 642.859   3
  -5  -2  20 1077.54 643.168   8
  -5   2 -20 136.216 632.854   3
   5  -2  20 1026.57 646.775   5
  -2  -5  20 1195.18 653.074   5
   5  -2  20 1291.12 647.333   8
  -2  -5  20 1350.41 656.183   8
   2  -5  20 1394.03 657.038   8
   2  -5  20 1002.68 648.923   5
  -2   5 -20 1030.43 643.930   3
   5  -2  21 1003.33 597.382   8
  -2   5 -21 1635.80 603.734   3
  -5   2 -21 142.056 584.803   3
   2   5 -21 1090.73 597.678   3
  -2  -5  21 827.697 599.806   5
   2  -5  21 1111.15 606.174   5
   2  -5  22 369.965 299.571   8
   2  -5  23 183.523 179.171   8
  -2   5 -23 178.021 151.372   3
   2  -5  23 102.488 159.543   5
   2   5 -23 199.216 153.089   3
  -2  -5  23 246.491 172.194   5
   5  -2  23 85.5184 164.051   8
  -2  -5  23 262.848 182.879   8
  -2  -5  24 212.184 206.588   5
   2   5 -24 269.133 198.742   3
  -2   5 -24 176.315 196.826   3
  -2  -5  24 288.545 224.429   8
   2  -5  24 193.716 209.706   5
   2  -5  24 378.813 223.840   8
   2  -5  25-66.5051 98.3609   5
  -2  -5  25 65.6439 104.114   5
  -2   5 -25-16.5112 75.0691   3
  -2  -5  25-17.5104 121.610   8
   2   5 -25 16.3273 66.7901   3
   2  -5  25 17.7382 123.192   8
  -2   5 -26 101.886 110.399   3
  -2  -5  26 114.805 136.326   5
   2   5 -26 17.1064 97.0185   3
  -2  -5  26 252.442 161.910   8
   2  -5  26 250.769 146.500   5
   2  -5  26 18.2452 139.677   8
   2   5 -27-35.1720 67.8359   3
   2  -5  27 131.168 135.475   8
   2  -5  27 23.8588 111.187   5
  -2  -5  27 70.8007 107.464   5
  -2  -5  27-18.5345 134.004   8
  -2   5 -27-35.4902 80.8977   3
   2  -5  28 171.199 165.604   5
  -2  -5  28 152.220 198.657   8
  -2  -5  28 193.741 153.641   5
  -2   5 -28 54.5743 126.544   3
   2   5 -28 72.1877 131.101   3
   2  -5  28 307.477 180.106   8
   2  -5  29 200.277 131.793   5
  -2  -5  29-97.4994 179.313   8
   2   5 -29 92.4541 95.5322   3
   2  -5  29 59.0254 136.462   8
  -2   5 -29-18.6285 71.7850   3
   2  -5  30 422.454 220.531   8
  -2  -5  30 518.786 224.754   8
  -2   5 -30-38.0783 153.229   3
  -2   5 -31-19.4389 91.0384   3
   2  -5  31 246.416 179.504   8
   5   3   0 20.1033 34.8031   6
   5   3  -1 510.363 420.124   7
   5   3  -1 675.335 420.909   6
   5   3  -2 103.747 82.1577   6
  -5  -3   2 24.2404 149.071   1
   5   3  -2 111.945 84.5645   7
  -5  -3   3-77.6502 187.850   1
   5  -3   3-5.68466 128.051   5
  -5  -3   3 4.18412 127.720   5
   5  -3   4-6.15293 50.8210   5
  -5  -3   4 65.1432 53.1840   5
  -5  -3   4-52.3809 149.406   1
   5  -3   4 6.10448 50.3312   8
   5   3  -4 3.54334 43.7176   2
   5   3  -4 487.491 76.2424   7
  -5  -3   4-4.62615 47.8496   8
  -5   3  -4-4.68692 44.9712   2
   5   3  -4 441.898 71.1805   6
  -5   3  -5 30.2009 177.562   2
   3  -5   5 8.66456 178.234   8
  -5  -3   5-5.21467 178.507   8
  -3  -5   5 7.87703 178.866   5
  -5  -3   5 672.998 187.340   5
   5  -3   5 279.759 182.877   5
   5   3  -5 181.763 178.756   2
   5   3  -5 997.984 196.919   7
   5   3  -5 960.752 192.967   6
  -5  -3   5 420.200 184.067   4
   5  -3   5 6.64741 179.609   8
  -5  -3   5 440.376 231.138   1
   5   3  -5 920.615 186.613   3
  -3   5  -5 6.65410 177.296   2
   3  -5   6-9.19361 339.494   5
  -5  -3   6 1955.22 350.457   4
   5   3  -6 3524.89 358.700   3
   3  -5   6 18.9770 338.551   7
  -5  -3   6 176.012 340.685   8
  -5  -3   6 1831.99 382.768   1
   5  -3   6-7.24897 339.405   8
   5   3  -6 3992.54 375.447   7
  -3   5  -6 62.8086 338.667   2
   3  -5   6 9.11632 339.935   8
  -5  -3   7 768.072 533.141   8
   3  -5   7 9.69400 528.181   5
  -3   5  -7 625.827 531.618   2
   3  -5   7 12.3948 527.996   7
  -5  -3   7 867.802 531.321   4
  -5   3  -7 1524.14 535.258   3
   3  -5   7-9.61838 529.106   8
   5   3  -7 1971.76 537.436   6
   3   5  -7 552.091 531.223   2
   5   3  -7 1667.62 534.883   3
  -5  -3   7 951.570 533.744   5
   5   3  -7 1843.88 537.604   7
   5   3  -7 1776.35 535.575   2
  -5  -3   7 1201.16 552.934   1
  -3  -5   7-26.3200 528.716   8
  -5   3  -8 3173.20 544.917   2
  -5  -3   8 669.730 529.897   4
   3  -5   8 20.4750 528.112   5
   3   5  -8 2981.13 546.353   2
   3  -5   8 54.4721 527.563   7
   3  -5   8 40.6557 529.237   8
  -3   5  -8 2608.98 545.481   2
  -3  -5   8-9.33695 528.741   8
   5   3  -8 2017.43 537.060   6
  -5  -3   8 2743.05 545.754   5
  -3  -5   8-9.36398 528.104   5
  -3  -5   9 19.8832 400.545   8
   3   5  -9 2272.13 418.860   2
   5  -3   9 1860.06 420.632   5
  -3  -5   9 59.1256 401.196   5
  -5  -3   9 35.9901 398.238   4
   5  -3   9 1261.27 414.509   7
   5   3  -9 3202.99 420.935   7
   5   3  -9 214.124 399.307   6
   3  -5   9 136.780 400.160   7
   5  -3   9 894.289 411.785   8
   3   5  -9 1683.61 402.314   6
   3  -5   9-32.2342 401.864   8
   3  -5   9-10.7607 400.885   5
  -3   5  -9 212.653 398.640   4
   3  -5  10 46.5169 126.656   7
  -5  -3  10 538.839 141.565   8
   5   3 -10 991.029 144.166   7
   3  -5  10 5.95390 118.726   6
   3  -5  10 89.9538 133.021   5
   3   5 -10 974.018 150.913   2
  -3  -5  10 51.4251 131.744   5
   5  -3  10 76.1553 134.469   7
  -3   5 -10 718.017 143.730   2
   5  -3  10 575.627 150.904   5
  -3  -5  10-3.37421 118.455   4
  -3  -5  10 84.5976 138.223   8
   5   3 -10 5.41939 119.300   6
  -5   3 -10 741.273 142.525   3
   3  -5  10-22.7118 141.630   8
   5  -3  10 383.927 148.667   8
  -3   5 -10 162.377 123.633   4
   3   5 -10 553.592 140.608   3
  -5  -3  10-4.52180 120.153   4
  -5  -3  11 1179.51 576.387   5
   3  -5  11 193.013 567.491   7
   3  -5  11 311.724 573.315   8
  -5   3 -11 1808.52 577.667   3
  -5  -3  11 1655.75 578.671   8
   5   3 -11 1332.63 574.095   3
   5  -3  11 191.665 569.755   7
   3  -5  11-5.95396 565.535   6
   3  -5  11 559.270 573.760   5
   5  -3  11 1492.35 582.194   8
   5   3 -11 2692.07 578.610   7
  -3  -5  11 382.187 571.717   5
  -3  -5  11 280.835 572.461   8
  -3   5 -11 2136.52 582.323   2
   3   5 -11 2134.24 581.495   2
  -3   5 -11 1589.76 578.625   3
  -3   5 -11 770.590 569.067   4
   5  -3  12-7.69812 47.3679   6
   3  -5  12 36.8390 63.0168   5
  -3  -5  12 11.4189 67.0515   5
  -5  -3  12 53.5317 53.4369   5
   5  -3  12 11.1857 55.6156   5
   5   3 -12 57.8253 45.0389   7
   3   5 -12-8.11925 50.9552   3
   5   3 -12 77.7066 41.0718   3
   5  -3  12-10.5038 75.4353   8
  -3   5 -12 26.6230 42.5535   2
   3  -5  12 5.98415 31.0705   6
   3   5 -12 41.8715 42.1790   2
   3  -5  12-25.2849 81.9199   8
  -5   3 -12 31.4600 47.6419   3
  -5   3 -12 18.5987 54.2818   4
  -3  -5  12 23.8196 80.8913   8
  -3   5 -12 112.644 195.245   1
   3  -5  12-5.96844 49.3396   7
  -5  -3  12 78.3120 63.7284   8
  -5   3 -12 115.457 226.338   1
   5  -3  12-9.02810 56.8236   7
  -3   5 -12 17.3703 54.8422   3
   3   5 -13 2574.77 1148.64   3
  -3   5 -13 677.434 1154.34   1
   5  -3  13 2481.87 1150.65   8
   5  -3  13 2410.15 1152.84   5
   3  -5  13 889.360 1146.09   8
  -5   3 -13 2821.97 1147.14   4
   5  -3  13 37.4310 1139.23   7
  -5   3 -13-215.404 1157.33   1
  -3  -5  13 1337.36 1148.15   8
   5  -3  13 2217.90 1146.20   6
  -3   5 -13 1909.34 1146.31   3
  -3   5 -13 2250.52 1143.28   4
  -3  -5  13 1111.04 1146.03   5
   3  -5  13 1300.63 1146.88   5
   3   5 -13 2941.81 1150.18   2
  -5  -3  13 1647.54 1148.04   5
   5  -3  14 217.832 168.164   8
   5  -3  14-9.61902 153.802   7
  -5   3 -14 303.939 159.016   4
  -3   5 -14 275.502 162.028   3
   3  -5  14 93.7716 163.560   5
   5  -3  14 415.620 177.155   5
  -3  -5  14 76.4544 159.868   5
   5   3 -14 143.365 153.655   3
  -5   3 -14 202.762 157.647   3
  -3  -5  14 156.883 174.196   8
  -5  -3  14 175.785 164.241   5
  -5   3 -14 11.0664 239.684   1
   5  -3  14 218.706 157.883   6
  -5  -3  14 384.525 168.687   8
  -3   5 -14 343.599 160.502   2
   3   5 -14 226.515 158.763   3
   3  -5  14 96.2079 169.506   8
  -5   3 -15 68.2692 357.397   1
   5  -3  15-19.8098 311.810   7
  -3  -5  15 647.143 333.990   8
   3  -5  15 280.896 324.336   5
   3  -5  15 418.062 332.877   8
  -3   5 -15 577.894 323.525   3
   5  -3  15 482.053 326.433   5
  -5  -3  15 470.055 322.255   8
   3   5 -15 643.685 324.534   3
  -5   3 -15 727.348 325.731   3
  -5  -3  15 455.234 324.386   5
  -3  -5  15 190.732 324.050   5
   5   3 -15 380.126 318.881   3
   5  -3  15 806.844 334.798   8
   5  -3  15 582.849 320.784   6
   5  -3  16-14.9542 77.9700   5
   3  -5  16-14.9267 87.1365   5
  -5  -3  16 10.6214 60.7410   8
  -5  -3  16 28.4332 64.1470   5
   5  -3  16 36.4830 74.3112   8
  -3  -5  16 14.3123 88.3066   5
  -5   3 -16 10.8076 52.7291   3
   5   3 -16-21.2494 50.7984   3
   3  -5  16 15.0903 90.5834   8
   5  -3  16 17.1273 47.2161   6
   3   5 -16 30.2825 50.4285   3
  -3   5 -16 31.5019 54.3863   3
  -3  -5  16 67.1978 98.6751   8
  -3  -5  17 908.532 640.314   5
   5  -3  17 824.901 635.542   8
  -5  -3  17 989.168 635.912   8
   3  -5  17 810.688 638.881   5
  -3  -5  17 1099.18 640.675   8
   5   3 -17 320.253 627.002   3
  -3   5 -17 1360.35 637.055   3
   5  -3  17 1226.42 641.059   5
   3   5 -17 1325.99 636.281   3
   3  -5  17 952.044 641.284   8
  -5  -3  17 751.071 634.893   5
  -5   3 -17 750.138 631.393   3
  -5   3 -18 624.093 506.243   3
   3   5 -18 1043.01 511.198   3
  -5  -3  18 533.244 508.329   5
   3  -5  18 473.502 514.624   8
   5   3 -18 265.281 500.985   3
   3  -5  18 917.594 519.022   5
  -3  -5  18 708.547 515.473   5
   5  -3  18 463.926 510.297   8
  -3  -5  18 1194.04 526.705   8
   5  -3  18 1006.81 517.149   5
  -5  -3  18 1007.43 512.806   8
  -3   5 -18 960.837 511.010   3
  -5  -3  19 1108.67 584.997   8
  -3   5 -19 1294.25 586.805   3
  -3  -5  19 1092.41 591.301   8
   5   3 -19 139.399 571.255   3
   5  -3  19 1105.69 589.128   5
  -5  -3  19 764.180 581.696   5
   3  -5  19 867.989 586.900   5
  -5   3 -19 522.207 575.151   3
  -3  -5  19 866.784 588.357   5
   5  -3  19 1088.69 587.026   8
   3   5 -19 1303.95 583.525   3
   3  -5  19 763.005 587.823   8
   5  -3  20 1355.03 748.918   5
   3   5 -20 1753.70 745.758   3
  -3  -5  20 2003.41 758.863   8
   3  -5  20 1965.31 759.852   8
  -3   5 -20 1702.96 745.436   3
   5  -3  20 1724.48 751.590   8
  -3  -5  20 884.524 748.335   5
   5   3 -20 26.5569 729.340   3
   3  -5  20 1514.39 751.270   5
  -5  -3  20 1892.97 750.045   8
  -5   3 -20 640.232 736.145   3
  -5   3 -21 259.707 287.223   3
  -3  -5  21 300.102 303.566   5
   3   5 -21 408.075 290.924   3
   5  -3  21 621.479 306.141   5
  -5  -3  21 924.292 304.241   8
   5  -3  21 854.983 311.314   8
   5   3 -21-13.8794 279.276   3
  -3  -5  21 473.130 307.135   8
  -5  -3  22 615.561 341.842   8
   3  -5  22 248.175 348.997   8
  -3   5 -23 119.322 127.976   3
  -5   3 -23 31.0594 121.780   3
   3  -5  23 494.584 199.392   8
  -3  -5  23 229.530 173.990   8
   5  -3  23 122.741 144.762   8
  -3  -5  23 245.988 150.354   5
   3   5 -23 45.8945 126.693   3
   3  -5  23 226.796 156.314   5
   5  -3  23 83.6040 135.649   5
  -3  -5  24-16.9448 114.117   8
   3  -5  24-21.6387 93.6958   5
   5  -3  24-15.8696 103.352   8
  -3   5 -24-16.1064 83.1643   3
   3   5 -24-15.8095 73.7182   3
  -5  -3  24 72.1963 98.3234   8
  -5   3 -24 32.1227 65.8677   3
   3  -5  24 18.8992 128.633   8
  -3  -5  24 21.1824 89.2849   5
  -3   5 -25 66.3604 89.7697   3
  -5   3 -25 16.5801 69.3032   3
   5  -3  25-16.3802 110.033   8
  -3  -5  25 174.865 143.454   8
   3   5 -25 48.9292 88.4451   3
   3  -5  25-44.5572 101.476   5
  -3  -5  25 89.0685 106.132   5
   3  -5  25 77.8518 141.532   8
   5  -3  26 101.282 116.316   8
  -3   5 -26 51.1713 79.7910   3
   3  -5  26-22.9037 101.948   5
   3   5 -26 17.0930 70.3932   3
  -3  -5  26-45.8652 94.1617   5
   3  -5  26-73.3379 127.592   8
  -3  -5  26 18.0082 118.792   8
   3  -5  27 263.542 199.521   8
  -3   5 -27 89.0700 136.015   3
   3   5 -27-35.1541 131.994   3
  -3  -5  27 611.060 204.826   8
  -3  -5  27 141.462 150.495   5
   3  -5  27 191.709 172.557   5
   3  -5  28 115.774 147.143   8
  -3  -5  28-38.0190 133.466   8
   3   5 -28-18.0425 67.1870   3
  -3   5 -28-18.2637 79.1612   3
  -3  -5  28-48.4013 99.1390   5
   3  -5  28-24.5640 94.5365   5
   3  -5  29 177.802 142.450   8
  -3   5 -29 56.0762 81.1516   3
   3   5 -29-18.4902 86.4695   3
   3  -5  29-50.2776 105.052   5
  -3  -5  29 116.951 148.411   8
   3  -5  30-60.5623 151.450   8
  -3   5 -30 19.1048 71.4231   3
  -3  -5  30-19.9433 157.278   8
  -3   5 -31-19.4949 95.3677   3
   3  -5  31 134.982 169.964   8
   5  -4   2-8.60048 38.6242   7
   5   4  -3-14.2588 29.4869   7
   5   4  -3 43.9451 33.1676   6
  -5  -4   3 65.8017 109.649   1
   5  -4   3 17.0373 46.5736   7
  -5  -4   4-31.4360 116.649   1
   5   4  -4 177.867 47.6874   6
   5  -4   4 8.45023 45.7324   7
   5   4  -4 13.6286 37.8772   7
   5  -4   4 7.38579 37.2511   5
  -5  -4   4 17.6832 35.0316   5
  -5   4  -4 5.62083 24.4788   2
   4  -5   5-8.91182 43.3671   5
   5  -4   5-8.34608 53.4119   7
  -5  -4   5 7.50870 120.025   1
  -5  -4   5-6.30359 40.0943   8
   5  -4   5-7.84637 47.5210   5
   5   4  -5 78.0621 46.8760   7
  -5  -4   5-19.1123 45.8573   5
  -4  -5   5-7.74371 44.5635   5
   5   4  -5 14.5415 34.1329   2
  -4   5  -5 20.3421 37.5167   2
   4   5  -6 132.367 88.8764   6
  -4   5  -6 7.12576 85.8652   2
  -5  -4   6-6.85739 88.7292   8
   5   4  -6 93.3788 89.4226   7
   4  -5   6-9.28344 90.2779   8
  -5  -4   6 68.8435 92.1368   5
   5  -4   6 148.972 102.634   7
   4  -5   6-9.36118 93.6995   5
  -5  -4   6-35.8935 148.814   1
   4   5  -7 1319.66 448.445   6
  -5  -4   7 503.642 447.656   5
   4   5  -7 629.930 446.640   2
   4  -5   7-9.78476 444.152   8
   5  -4   7 159.974 445.749   5
   5   4  -7 2738.10 457.152   6
  -4   5  -7 599.105 446.996   2
  -5  -4   7-6.86921 464.307   1
   5  -4   7-8.87174 444.427   8
  -5  -4   7 654.761 445.214   4
  -4  -5   7 8.64705 443.192   8
   5   4  -7 1090.39 449.595   7
   5   4  -7 2008.21 454.908   3
   4  -5   7-9.86100 443.874   5
   5  -4   7 901.327 452.246   7
  -4   5  -7 461.828 445.236   4
   5   4  -8 233.843 93.1953   6
   4  -5   8-14.7834 85.0600   6
   5  -4   8 93.9053 103.453   5
   4  -5   8-10.3291 97.3478   8
   4  -5   8 10.3483 93.5397   5
   4   5  -8 195.754 94.3054   2
   5  -4   8-9.48134 104.269   8
  -4   5  -8 134.586 89.4962   4
  -5  -4   8 13.1641 175.987   1
   5   4  -8 171.550 92.3669   7
  -4   5  -8 156.397 91.3335   2
   5  -4   8 131.209 100.222   7
  -5   4  -8 216.335 94.5142   2
   4   5  -8 217.970 89.9276   6
  -4  -5   8-9.21884 96.8522   8
  -5  -4   8 28.1976 89.7409   4
  -4  -5   8-18.4941 96.5070   5
  -5  -4   9-770.713 422.792   1
  -4  -5   9 96.5965 367.321   4
  -4  -5   9 9.74313 370.877   5
   4  -5   9-7.37183 366.898   6
  -5   4  -9 1534.34 382.565   2
   4   5  -9 1469.76 381.573   3
   5  -4   9 806.907 381.866   5
  -4   5  -9 955.353 374.712   4
   4   5  -9 1761.38 384.618   2
   5  -4   9 574.682 377.591   7
   4  -5   9 10.9092 372.782   8
  -5  -4   9 405.027 376.191   8
  -4  -5   9-9.82770 371.093   8
  -5  -4   9 64.4491 367.871   4
   5  -4   9 101.235 374.928   8
   4  -5   9-32.7696 370.905   5
   5   4  -9 1674.34 378.214   6
   4   5  -9 1829.55 375.115   6
   5   4  -9 1257.04 376.871   7
   5   4 -10 1305.29 290.262   2
   4  -5  10 171.039 281.591   5
  -5  -4  10 392.482 284.455   5
  -4  -5  10 71.2781 280.241   5
   5  -4  10 724.284 293.205   5
  -5   4 -10 953.324 289.522   2
   5   4 -10 221.337 275.229   6
  -5   4 -10 865.256 285.806   3
  -4   5 -10 601.211 284.908   3
   4   5 -10 864.687 277.866   6
  -5  -4  10-37.0664 277.201   4
   5   4 -10 586.181 280.345   7
  -4  -5  10 2.78684 273.991   4
  -5  -4  10 383.438 286.607   8
  -4   5 -10 487.127 279.196   4
   4   5 -10 844.075 285.169   3
   5   4 -10 843.719 284.892   3
   4  -5  10-34.5537 291.368   8
  -4   5 -10 1068.06 290.075   2
  -4  -5  10 10.4678 283.614   8
   5  -4  10 290.611 282.345   7
   4  -5  10 7.37800 274.803   6
   5  -4  10 183.438 289.171   8
   4   5 -11-8.01480 39.2982   2
   4  -5  11 12.1489 73.5009   8
  -4   5 -11-8.34416 47.1159   3
  -5   4 -11 24.1610 38.6685   2
  -4  -5  11-10.6794 56.3045   5
   5  -4  11 21.9985 60.9801   5
   4  -5  11-23.6117 58.7936   5
  -5  -4  11-10.0705 68.6927   8
  -5   4 -11 296.675 253.797   1
  -5  -4  11 82.4113 165.372   1
   4   5 -11 15.1865 44.8689   3
  -5  -4  11 8.32945 28.4985   4
   5  -4  11 34.6373 63.9245   7
  -4   5 -11 6.00811 37.5839   4
  -5  -4  11 29.9207 56.2145   5
   5   4 -11-4.98345 24.2703   6
   4  -5  11 7.40987 30.7504   6
  -4  -5  11 11.1318 77.4836   8
  -4   5 -11 8.72704 42.7322   2
   5   4 -11 20.9646 40.7577   3
  -5   4 -11-7.79898 42.6960   3
   5  -4  11-11.2797 76.8966   8
   5   4 -11 20.0897 42.5974   7
  -4  -5  12 169.950 305.411   5
  -5   4 -12 239.997 379.417   1
   5   4 -12 407.485 301.721   3
   4   5 -12 556.127 304.910   3
   5  -4  12 26.6056 301.040   7
  -5   4 -12 620.123 306.098   3
   4  -5  12 112.019 297.823   6
   4   5 -12 739.691 307.433   2
   4  -5  12 166.399 308.574   8
  -5  -4  12 371.234 308.473   8
  -4   5 -12 448.252 304.070   3
   5  -4  12 263.321 309.380   8
  -5   4 -12 783.987 307.722   4
  -4   5 -12 671.184 308.738   2
  -4  -5  12 129.984 306.336   8
   5  -4  12 662.676 304.928   6
   5  -4  12 501.712 310.181   5
  -5  -4  12 438.354 308.112   5
  -4   5 -12 484.183 301.865   4
  -5   4 -12 495.653 304.038   2
   4  -5  12 184.047 305.536   5
  -5   4 -13 507.476 319.722   3
   4   5 -13 686.590 321.163   2
   4   5 -13 486.072 318.842   3
  -5  -4  13 386.935 321.784   5
  -5  -4  13 257.353 321.619   8
  -4   5 -13 699.204 322.202   2
   4  -5  13 309.617 322.193   5
   5   4 -13 784.895 322.180   3
  -5   4 -13 286.876 389.824   1
   5  -4  13 405.414 325.142   8
  -4   5 -13 483.327 316.150   4
   5  -4  13-18.2852 314.369   7
   4  -5  13 390.469 328.029   8
   5  -4  13 674.955 320.078   6
  -4   5 -13 530.740 320.223   3
  -4  -5  13 155.918 318.400   5
   5  -4  13 444.407 324.099   5
  -4  -5  13 418.124 323.755   8
   4  -5  13 128.335 311.674   6
  -5   4 -13 691.016 319.689   4
   4  -5  14 55.5767 218.914   8
  -5  -4  14 490.900 228.434   8
  -5   4 -14 399.904 216.453   3
  -4  -5  14 259.902 227.004   8
   5  -4  14-9.43279 210.287   7
  -5   4 -14 500.533 216.198   4
  -4   5 -14 239.991 213.988   3
   5  -4  14 426.238 214.145   6
   5   4 -14 328.880 213.080   3
   4   5 -14 441.425 217.447   3
   5  -4  14 149.077 223.963   8
   5  -4  14 211.693 220.950   5
  -4   5 -14 456.431 217.236   2
  -4  -5  14 141.495 219.964   5
  -5  -4  14 137.263 217.202   5
   4  -5  14 203.151 220.990   5
  -5   4 -14-65.0143 301.939   1
  -5   4 -15 121.151 89.8530   4
  -5  -4  15 95.5754 96.0602   5
  -5   4 -15 88.1394 86.4418   3
  -4   5 -15 104.010 89.7083   2
   4   5 -15 124.294 92.7321   3
  -4  -5  15 67.7602 97.5762   5
  -5   4 -15 33.2564 221.162   1
   4  -5  15 70.9532 107.600   5
   5  -4  15 83.5561 102.751   5
   5   4 -15 118.887 84.5696   3
  -4   5 -15 120.743 93.9446   3
  -4  -5  15 109.575 119.343   8
  -5  -4  15 77.6859 111.895   8
   5  -4  15 39.2482 115.762   8
   4  -5  15 58.2557 121.086   8
   4  -5  16 75.3530 178.842   5
   4   5 -16 190.996 165.585   3
  -5  -4  16 246.449 178.476   8
   5  -4  16 135.120 176.150   5
  -4  -5  16 190.107 177.967   5
  -5  -4  16 245.374 178.493   5
   4  -5  16 182.853 194.673   8
   5   4 -16 188.558 166.392   3
   5  -4  16 302.353 187.421   8
  -4   5 -16 317.956 171.301   3
  -4  -5  16 133.784 180.431   8
  -5   4 -16 308.843 169.515   3
   4  -5  17 15.7318 174.947   5
  -5  -4  17 76.0610 170.134   5
  -4  -5  17 126.310 184.933   8
   5   4 -17 242.924 166.877   3
  -5   4 -17 379.437 172.272   3
  -4  -5  17 61.3397 174.464   5
   5  -4  17 158.407 184.940   8
  -5  -4  17 284.546 181.141   8
  -4   5 -17 320.894 174.360   3
   4   5 -17 316.633 171.728   3
   5  -4  17 251.643 181.091   5
   4  -5  17 47.7316 185.817   8
   5   4 -18 109.382 155.708   3
  -5   4 -18 183.797 161.960   3
   4  -5  18 201.932 178.959   5
   5  -4  18 358.605 185.374   8
   4  -5  18 246.479 186.554   8
   4   5 -18 182.860 159.165   3
  -5  -4  18 338.102 181.576   8
  -4  -5  18 96.2727 172.326   5
  -4   5 -18 406.017 174.028   3
  -4  -5  18 88.1490 175.905   8
  -5  -4  18 81.3453 163.010   5
   5  -4  18 237.445 180.263   5
  -5  -4  19 716.072 662.775   5
   5  -4  19 1326.35 672.267   5
  -5  -4  19 1308.60 670.826   8
  -5   4 -19 1048.15 663.749   3
   4  -5  19 897.522 672.853   8
  -4  -5  19 905.179 668.715   8
  -4   5 -19 1453.32 666.414   3
   5  -4  19 1079.03 671.652   8
   5   4 -19 484.065 657.489   3
   4   5 -19 1065.52 662.525   3
  -4  -5  19 518.467 665.117   5
   4  -5  19 700.062 663.913   5
   5  -4  20 299.524 178.637   8
  -5   4 -20 186.235 143.410   3
  -4   5 -20 77.3850 143.277   3
   4  -5  20 332.817 179.409   8
   4   5 -20 195.921 143.817   3
  -5  -4  20 142.522 162.070   8
   5   4 -20 106.529 139.130   3
  -4  -5  20 47.9664 167.506   8
   4  -5  20 218.020 157.694   5
  -4  -5  20 72.0255 152.991   5
  -5  -4  20 196.047 151.367   5
   5  -4  20 404.876 168.737   5
   5  -4  21 622.425 453.231   5
  -4  -5  21 704.941 459.550   5
   5   4 -21 169.574 440.394   3
  -5  -4  21 966.151 461.706   8
  -5   4 -21 650.943 450.141   3
   4   5 -21 733.395 450.570   3
  -5  -4  21 757.727 459.274   5
  -4  -5  21 1030.90 469.682   8
   5   4 -22-14.7019 100.377   3
  -5  -4  22 157.624 123.481   5
   5  -4  22 64.5012 135.028   8
  -4   5 -22 217.888 120.660   3
   4  -5  22 80.3675 131.101   5
   4  -5  22 285.602 165.748   8
  -4  -5  23-20.4698 124.485   5
  -4  -5  23 196.465 151.206   8
   4  -5  23 18.4352 149.153   8
   5  -4  23 208.523 124.328   5
   4  -5  23 186.757 136.926   5
   4   5 -23-30.5721 112.007   3
   5  -4  23 183.535 154.335   8
  -4   5 -23 120.040 123.120   3
  -5   4 -23 46.5404 117.105   3
  -5  -4  23 256.959 151.516   8
   4   5 -24-15.8025 78.7382   3
   4  -5  24 21.7712 86.7150   5
  -4  -5  24 42.3198 111.333   5
  -4  -5  24 33.8544 134.556   8
  -5   4 -24 16.3003 72.7000   3
   4  -5  24-76.0566 133.598   8
  -4   5 -24-16.2011 82.2922   3
   5   4 -24 47.4325 57.0386   3
   5  -4  24-21.9464 81.8043   5
  -5  -4  24 99.8410 118.132   8
   5  -4  24-34.4601 122.303   8
   4  -5  25 39.1493 136.434   8
   5  -4  25 22.6194 71.8977   5
  -5  -4  25-48.2325 113.380   8
   4   5 -25-33.1883 76.3227   3
   5  -4  25 17.7648 116.150   8
  -5   4 -25-33.6049 73.5741   3
  -4  -5  25-44.5007 96.9135   5
   4  -5  25-22.4126 95.0438   5
  -4   5 -25-16.6772 69.1894   3
  -4  -5  25-17.4705 118.124   8
  -5   4 -26 51.8749 86.8078   3
   4  -5  26 184.283 120.605   5
  -4  -5  26 18.0012 137.112   8
  -4  -5  26 91.6910 117.945   5
  -4   5 -26 68.5655 98.8071   3
  -5  -4  26 142.034 163.505   8
   4   5 -26-34.1863 84.4616   3
   5  -4  26 109.699 137.784   8
   5  -4  26 139.633 105.176   5
   4  -5  26 100.615 143.070   8
   4  -5  27-24.0865 101.393   5
   5  -4  27-18.7872 134.416   8
  -4  -5  27 37.0294 145.805   8
   4   5 -27 17.5778 71.9136   3
  -4  -5  27-23.5733 96.4374   5
  -5   4 -27-17.7625 65.9476   3
   4  -5  27-61.9637 144.906   8
  -5  -4  27-18.2853 132.077   8
  -4   5 -27 53.7118 85.1963   3
  -5   4 -28-18.2181 62.2098   3
   5  -4  28 211.978 151.460   8
   4  -5  28 24.6851 99.3647   5
  -4  -5  28 57.0382 138.329   8
   4  -5  28 63.5114 149.449   8
   4   5 -28-18.0497 64.2230   3
  -4   5 -28-18.3444 81.0559   3
   4  -5  29 21.6633 168.711   8
  -4  -5  29 58.4732 133.642   8
   4  -5  29-25.2545 104.676   5
   5  -4  29 118.425 147.508   8
  -4   5 -29-18.7699 76.3743   3
  -4   5 -30 19.1798 71.7325   3
  -4  -5  30 99.7648 150.916   8
   4  -5  30-22.1382 150.432   8
   4  -5  31 22.5889 159.246   8
   5  -5   4-9.06879 45.4256   7
  -5   5  -5 7.34938 25.2663   4
  -5  -5   5-7.60521 39.2121   5
   5   5  -5 6.13403 28.5516   6
   5  -5   5 9.08280 39.2846   5
   5  -5   5-26.9155 51.1380   7
  -5   5  -5 6.91044 18.1499   2
   5  -5   6-9.53291 74.5236   5
   5   5  -6 333.748 77.0273   6
  -5   5  -6 7.25586 60.7814   2
  -5   5  -6 277.245 76.8129   4
   5  -5   6-9.45538 70.0004   8
   5  -5   6 35.6455 75.6927   7
   5  -5   6-8.80772 64.9667   6
  -5   5  -7 7.26319 36.7795   4
   5  -5   7 8.79373 58.9906   7
   5   5  -7 5.41605 30.8162   6
   5  -5   7 17.5391 31.0313   6
   5   5  -7 19.6001 33.8669   2
  -5   5  -7 7.61838 29.2296   2
   5  -5   7 29.8701 46.9188   8
  -5  -5   7 8.51902 45.3298   8
   5  -5   7-10.0329 48.3056   5
   5  -5   8 84.1615 276.777   5
   5  -5   8 26.2624 270.717   6
  -5  -5   8-90.9753 276.441   8
   5  -5   8-73.5040 275.742   8
   5   5  -8 731.628 274.030   2
   5  -5   8 69.6932 271.738   7
  -5   5  -8 770.775 278.433   2
  -5  -5   8 27.0837 273.016   5
   5  -5   9 10.9754 59.9062   5
   5   5  -9-20.0908 41.8720   3
  -5   5  -9 7.23772 44.6205   4
   5  -5   9-17.0673 58.9265   7
  -5   5  -9-8.38413 37.6218   2
   5   5  -9-9.44913 32.6224   6
  -5  -5   9 3.83887 38.1202   4
   5  -5   9-8.76387 38.3144   6
   5   5  -9 7.16521 39.3400   2
  -5  -5   9 28.3727 58.8667   5
  -5  -5   9-19.4288 76.0978   8
   5  -5   9-33.2398 67.1024   8
   5   5 -10-10.6147 28.9768   7
  -5  -5  10 20.1584 57.7033   5
   5  -5  10 11.6876 76.6621   8
  -5   5 -10 24.0713 45.4695   3
  -5   5 -10 17.1977 41.0526   2
  -5  -5  10-10.3608 69.0892   8
  -5  -5  10-36.6347 110.255   1
   5   5 -10 38.2229 40.8384   2
   5   5 -10 92.8711 44.5864   3
   5   5 -10 13.9525 30.8800   6
   5  -5  10-17.2016 64.5114   7
   5  -5  10-8.79583 40.0057   6
  -5  -5  10 3.87984 39.5378   4
   5  -5  10 46.2799 59.3622   5
  -5   5 -10 71.3576 47.2709   4
  -5  -5  11 11.0348 75.8603   8
   5   5 -11-15.0608 39.5531   3
  -5  -5  11-21.1735 64.7599   5
  -5   5 -11 17.6904 38.2722   2
  -5   5 -11 7.17869 48.3213   4
   5   5 -11-15.8909 35.2753   2
   5  -5  11-12.3171 76.3254   8
  -5   5 -11 16.9126 45.9695   3
   5  -5  11-8.85034 37.2741   6
   5  -5  11-23.9371 60.5609   5
   5  -5  11 26.9287 62.3521   7
   5  -5  12 49.7167 158.916   5
  -5   5 -12 437.633 165.811   2
   5   5 -12 472.844 165.830   2
   5  -5  12 71.3546 160.971   7
  -5   5 -12 273.080 162.298   3
  -5  -5  12-22.4878 161.122   5
   5  -5  12 107.123 155.290   6
  -5  -5  12 105.524 167.631   8
   5  -5  12 12.9664 165.521   8
  -5   5 -12 275.342 159.473   4
  -5   5 -12 829.958 313.886   1
   5   5 -12 295.793 162.050   3
  -5   5 -13 18.5184 55.9741   3
   5   5 -13-17.4948 43.5158   2
  -5  -5  13-37.2869 90.6749   8
   5   5 -13-16.9479 49.8455   3
   5  -5  13-18.0220 60.7231   7
   5  -5  13 13.0589 71.0392   5
  -5   5 -13 29.3632 47.6849   2
   5  -5  13-13.6300 91.7744   8
  -5   5 -13 14.2694 55.3821   4
   5  -5  13-36.0924 42.1162   6
  -5  -5  13-11.9130 67.9754   5
  -5  -5  14 370.863 476.494   5
  -5   5 -14 10.7961 528.680   1
  -5   5 -14 934.957 476.528   4
   5  -5  14 506.908 479.892   5
  -5   5 -14 722.473 476.407   2
   5  -5  14 286.071 481.714   8
   5   5 -14 1055.76 478.801   3
  -5   5 -14 630.928 476.259   3
   5   5 -14 804.906 477.577   2
  -5  -5  14 310.081 479.621   8
  -5  -5  15 53.9375 83.4598   5
  -5   5 -15-10.1677 55.8157   3
   5   5 -15-9.51798 49.8273   3
  -5  -5  15-27.2577 103.773   8
  -5   5 -15-63.0682 50.5663   2
   5  -5  15 14.3461 81.5294   5
   5  -5  15 14.7236 95.5333   8
   5   5 -16-20.7442 53.4847   3
  -5  -5  16 14.5613 85.4770   5
  -5  -5  16-14.3411 106.482   8
  -5   5 -16 10.7038 59.1401   3
  -5   5 -16-10.9896 51.1546   2
   5  -5  16-46.1866 102.472   8
   5  -5  16 91.3714 95.5645   5
  -5  -5  17-45.8413 89.7053   5
   5  -5  17-15.8859 98.4418   5
  -5   5 -17 11.1689 65.5784   3
   5   5 -17-10.8865 58.1887   3
   5  -5  17 48.2053 105.762   8
  -5  -5  17 13.9876 112.755   8
   5  -5  18 184.114 236.643   8
   5  -5  18 203.811 235.155   5
   5   5 -18 311.354 218.487   3
  -5   5 -18 349.384 223.830   3
  -5  -5  18 82.5222 222.927   5
  -5  -5  18 541.986 240.539   8
   5  -5  19-17.6564 93.1035   5
  -5   5 -19 12.5258 66.3343   3
  -5  -5  19-30.6131 106.660   8
  -5  -5  19-17.2415 89.3116   5
   5  -5  19 16.1687 110.320   8
   5   5 -19-37.5330 71.8361   3
  -5   5 -20 870.880 547.948   3
  -5  -5  20 909.638 557.104   8
   5   5 -20 704.283 542.689   3
  -5  -5  20 557.117 546.185   5
   5  -5  20 806.112 553.087   5
   5   5 -21 42.6174 78.7160   3
  -5  -5  21-19.0245 90.7323   5
  -5  -5  21-16.6016 106.924   8
   5  -5  22 89.9269 137.464   8
   5  -5  22 40.4889 101.287   5
  -5   5 -22 43.8977 86.5781   3
  -5  -5  23 17.8605 129.104   8
   5  -5  23 55.7146 135.494   8
   5  -5  23-21.2711 103.511   5
   5   5 -23-15.2806 71.2880   3
  -5   5 -23-30.2105 87.5314   3
   5  -5  24 65.7578 99.6906   5
  -5  -5  24 50.7690 130.080   8
  -5  -5  24 21.5557 98.0381   5
  -5   5 -24-16.3038 70.5552   3
   5  -5  24-19.1425 131.606   8
   5   5 -24-16.0829 65.8410   3
  -5   5 -25 50.3331 85.7139   3
  -5  -5  25-22.2520 98.7277   5
   5  -5  25 67.6658 109.503   5
   5  -5  25-19.7031 141.706   8
   5   5 -25 66.3978 74.7316   3
  -5  -5  25 87.3416 117.854   8
   5   5 -26-17.1034 78.6057   3
   5  -5  26 162.206 122.387   5
   5  -5  26 20.2469 145.902   8
  -5  -5  26-22.9270 94.7972   5
  -5   5 -26-17.2423 77.3010   3
  -5  -5  26 198.012 138.592   8
   5   5 -27-52.7826 70.1392   3
   5  -5  27 41.5515 145.904   8
  -5   5 -27 35.9946 78.1151   3
  -5  -5  27 18.5196 132.664   8
   5  -5  27 48.4576 104.991   5
   5  -5  28-49.6501 102.873   5
  -5   5 -28-18.4405 87.3736   3
   5  -5  28 149.022 158.912   8
  -5  -5  28 76.0936 137.090   8
   5  -5  29-43.5580 146.623   8
   5  -5  29 25.3912 103.968   5
  -5   5 -29-18.8636 70.1749   3
  -5  -5  29 19.5069 154.896   8
   5  -5  30 44.4878 149.680   8
  -5   5 -30-19.2621 76.4437   3
   5  -5  31-45.3940 166.937   8
   6   0   0 527.235 376.092   7
   6   0   1-16.9841 51.2192   7
  -6   0  -2 27.2079 21.8538   2
   6   0   3 15.0643 39.5742   6
  -6   0   3-1.36541 8.60423   8
   6   0   3-7.12488 21.0019   8
   6   0   3-17.3386 50.1775   7
   6   0   4 17.7217 51.5217   7
  -6   0  -4-10.5384 180.262   1
   6   0   4-7.77989 35.7484   6
   6   0   4-5.77285 22.4153   8
  -6   0   4 17.5130 14.5995   8
   6   0   5 27.4275 48.8508   7
  -6   0   5-2.52512 14.1852   8
   6   0   5-3.34516 22.7612   8
  -6   0  -5 10.7856 179.700   1
   6   0   5-7.96632 40.3058   6
   0  -6   6 9.86135 285.462   8
  -6   0   6 499.983 286.371   8
   6   0   6 683.299 297.298   7
  -6   0  -6 22.1424 340.066   1
   6   0   6 813.694 289.450   8
   6   0   6 689.364 295.382   6
   0   6  -6-7.57820 283.833   2
   0  -6   7-10.4000 47.2927   5
   6   0   7-4.40604 25.1273   8
   6   0   7 17.0617 42.3283   6
   6   0   7-9.74793 44.3283   7
  -6   0   7 3.68829 15.9749   8
   0  -6   7 10.3078 42.1755   8
   0   6  -7 7.92028 30.4468   2
   6   0   8 486.167 156.364   8
   6   0   8 298.213 160.770   6
   0  -6   8-10.8887 152.622   5
   6   0  -8-25.1215 151.459   7
   0  -6   8-10.7999 155.486   8
  -6   0  -8-303.891 253.990   1
   0   6  -8 388.856 159.549   2
   6   0   8 222.883 160.700   7
   0  -6   9-11.4160 49.5229   5
   6   0   9 9.09098 46.1550   6
   0  -6   9-11.3293 59.6048   8
   6   0   9-10.4376 46.4748   7
   0   6  -9-8.58490 32.1057   2
   6   0  -9 8.49756 44.7807   7
  -6   0 -10 74.3713 235.733   1
   6   0  10 84.2534 63.3515   6
   0   6 -10 61.3301 55.5793   2
   6   0  10 90.4842 45.2160   8
   0  -6  10-10.6635 26.7288   7
   0  -6  10 47.6509 70.4786   5
   0  -6  10-71.3446 107.844   8
   6   0  10 10.7486 53.2295   7
   0  -6  11 24.7208 67.2408   5
   6   0  11-6.61402 38.9462   8
   0  -6  11-49.9148 99.0940   8
   0   6 -11 18.3897 41.9207   2
   6   0  11-9.64442 47.9443   6
   6   0  11 11.0919 44.1291   7
   6   0  12 2388.42 727.750   8
   0  -6  12 91.6185 721.283   8
   6   0  12 804.841 722.381   6
   0  -6  12 77.7411 718.744   5
   0   6 -12 2682.57 733.491   2
   0   6 -13-18.8650 54.6152   3
   0  -6  13 39.9778 68.7367   5
   6   0  13 20.7391 53.5061   6
   0  -6  13-41.1466 85.0106   8
   6   0  13 7.77066 41.5790   8
   0   6 -13-19.7271 44.9024   2
   6   0  14 558.985 324.022   8
   0  -6  14 172.264 331.013   8
   0  -6  14 165.112 325.944   5
   0   6 -14 1115.01 334.429   2
   0   6 -14 654.672 326.768   3
   6   0  14 64.1357 318.511   6
   0   6 -15 10.2124 55.4961   3
   0   6 -15-10.5429 51.2439   2
   0  -6  15 14.3749 87.9168   5
   0  -6  15-15.0045 100.966   8
   0   6 -16 220.085 113.767   2
   0  -6  16 107.737 145.750   8
   0  -6  16 29.9976 123.673   5
   0   6 -16 106.492 114.529   3
   0   6 -17-22.1941 62.4821   3
   0   6 -17 11.4675 51.1270   2
   0  -6  17-15.6241 86.4528   5
   0  -6  17-16.0379 122.324   8
   0  -6  18 1618.64 451.164   8
   0  -6  18 297.041 398.124   5
   0   6 -18 596.613 397.124   2
   0   6 -18 406.820 390.714   3
   0  -6  19 17.1374 101.000   5
   0  -6  19-17.3334 120.724   8
   0   6 -19 24.1453 70.4316   3
   0   6 -20 505.589 254.072   3
   0  -6  20 91.1885 254.146   5
   0  -6  22 143.001 154.871   8
   0  -6  22 39.0190 133.214   5
   0   6 -22 166.486 120.998   3
   0  -6  23 20.7690 98.8377   5
   0   6 -23-60.1646 93.2108   3
   0  -6  23 110.698 132.009   8
   0  -6  24-21.3990 116.704   5
   0   6 -24 62.0004 86.1896   3
   0  -6  24-38.0229 137.672   8
   0  -6  25 44.0333 116.171   5
   0   6 -25 63.7850 88.5890   3
   0  -6  25 19.5648 134.333   8
   0  -6  26 69.0455 118.088   5
   0   6 -26 34.3133 78.6329   3
   0  -6  26-20.1011 139.568   8
   0  -6  27-82.4939 160.754   8
   0  -6  27-47.2167 116.061   5
   0   6 -27 17.5968 81.8767   3
   0  -6  28 145.108 133.634   5
   0   6 -28 18.0283 93.3359   3
   0  -6  28 105.656 158.646   8
   0  -6  29-21.6166 157.762   8
   0  -6  29-75.6328 129.528   5
   0   6 -29-18.7646 84.2385   3
   0   6 -30-19.1695 84.2244   3
   0  -6  30-25.7527 112.360   5
   0  -6  30-22.0850 160.209   8
   0  -6  31-45.0714 177.630   8
   0  -6  31-26.2647 113.841   5
   0   6 -31 19.5590 124.488   3
   0  -6  32-137.760 177.934   8
   0   6 -32 79.7019 79.1209   3
  -6   1   0-1.95468 25.4516   8
   6  -1   0 1.49829 23.0366   2
   6  -1  -1 662.541 387.739   7
   6  -1   1 472.052 379.579   5
   6   1   1 854.494 389.761   7
  -6  -1  -1 478.269 420.049   1
   6   1   2 769.386 140.563   7
   6  -1   2 826.334 118.946   5
   6  -1   2 1169.25 152.344   7
   6  -1   2-2.86172 107.312   8
  -6   1  -2 2.19975 106.696   2
   6  -1  -2 261.898 121.122   7
  -6  -1  -2 183.852 204.697   1
   6  -1   3 3.51377 27.1606   8
   6  -1   3-8.83552 52.7553   7
  -6   1  -3 12.5680 44.2644   4
  -6   1  -3 19.0863 19.7617   3
  -6   1  -3 10.3599 16.4879   2
   6  -1  -3 8.46943 45.5039   7
   6  -1   3 30.3414 25.9870   5
   6   1   3 9.49304 15.2301   8
   6   1   3 23.5672 40.1526   6
   6  -1   3 30.5530 42.6200   6
  -6   1  -4 53.5981 120.049   2
   6  -1   4 84.7398 123.482   8
   6   1   4 239.842 135.018   7
   6  -1  -4-8.59485 126.467   7
   6  -1   4 424.207 140.168   7
  -6  -1   4 169.955 121.846   8
   6   1   4 177.600 129.292   6
  -6   1  -4 334.889 135.460   4
   6   1   4 153.987 120.485   8
   6  -1   4 292.886 125.166   5
   6  -1   4 207.267 131.394   6
  -6   1  -4 286.775 122.940   3
   6  -1   5 1059.41 385.034   5
   6  -1  -5-8.68130 379.648   7
  -6  -1   5 582.996 380.086   8
   6   1   5 420.775 379.284   8
   6  -1   5 695.438 386.191   6
   6  -1   5 607.275 382.347   8
   6  -1   5 773.804 389.763   7
  -6  -1  -5-22.1456 412.444   1
  -6   1  -5 934.082 387.902   4
  -6   1  -5 734.595 428.524   1
   6   1   5 402.947 385.021   7
   6   1   5 443.414 384.083   6
   6   1  -5 576.047 384.235   6
   6  -1   6 314.843 183.440   8
  -6   1  -6 435.911 270.289   1
   6  -1  -6-17.5665 181.510   7
   6  -1   6 504.415 193.894   7
  -6   1  -6 368.967 181.357   3
  -6   1  -6 357.288 187.346   4
   6   1  -6 114.879 181.001   6
  -1  -6   6-9.72438 179.910   8
   6  -1   6 495.373 186.718   5
   6   1   6 138.344 185.039   7
   6   1   6 232.639 184.303   6
  -6  -1   6 378.065 180.987   8
   1   6  -6-7.47394 177.697   2
   6  -1   6 486.049 189.495   6
  -6  -1  -6 91.2860 240.596   1
   6   1   6 248.619 179.173   8
   1   6  -7 125.093 331.650   2
  -6  -1   7 1305.54 337.759   8
   6  -1   7 1203.02 342.659   5
   6  -1   7 717.860 343.431   7
  -6  -1  -7 364.698 377.452   1
   6   1   7 332.619 337.575   6
   6   1  -7 22.9870 330.604   6
   6   1   7 224.324 334.858   7
   6  -1   7 1107.58 344.954   6
  -6   1  -7 613.166 390.629   1
   1  -6   7-10.5439 332.442   5
  -1  -6   7 10.1722 332.083   8
   6  -1   7 1139.99 339.875   8
  -6   1  -7 902.869 337.216   3
  -1  -6   7-10.2659 332.288   5
  -6   1  -8 534.902 247.448   3
  -1  -6   8 10.7568 245.145   5
  -1  -6   8-21.3330 245.979   8
  -6   1  -8 57.0322 334.460   1
   6  -1   8 910.225 253.580   8
   6   1  -8 15.3888 241.662   6
   1  -6   8 11.0306 245.872   5
  -6  -1  -8 121.356 298.790   1
   6   1   8 10.5316 243.835   7
   6  -1   8 528.430 250.859   5
   1   6  -8 588.497 251.417   2
   6   1   8 101.978 246.191   6
   6  -1   8 489.301 255.839   7
   6  -1   8 834.218 258.523   6
  -6  -1   8 653.210 247.875   8
  -6  -1   9 648.032 182.519   8
  -1  -6   9 67.1938 184.314   8
  -1  -6   9-11.2864 181.765   5
   6  -1   9 777.503 196.188   6
   1   6  -9 797.976 192.106   2
   1  -6   9 57.7744 182.229   5
   6  -1   9 170.568 185.159   7
  -6   1  -9 11.6863 278.423   1
   6   1   9 86.0826 178.518   6
  -6  -1  -9-313.068 246.392   1
   1  -6   9-4.13479 174.219   7
   6  -1  10 1206.47 245.771   5
  -6   1 -10 465.982 227.767   3
  -1  -6  10-11.7641 231.746   8
   1  -6  10 36.1424 228.715   5
  -1  -6  10-35.3622 230.322   5
   6  -1  10 1554.59 243.796   8
   6  -1  10 93.6894 231.907   7
   1  -6  10-7.66250 220.055   7
   6  -1  10 1027.45 244.214   6
   6   1  10 118.430 223.704   6
  -6   1 -10 1140.14 381.156   1
   1  -6  11 24.9815 131.444   5
   6  -1  11 32.1195 125.977   7
   1   6 -11 446.268 134.954   2
   6  -1  11 194.437 126.944   6
   6  -1  11 211.300 130.380   5
  -6   1 -11 38.5282 117.298   3
  -1  -6  11 12.2401 130.204   5
   6  -1  11 262.226 128.982   8
  -6  -1  11 272.203 125.032   8
  -1  -6  11 49.4263 143.139   8
  -1   6 -12 654.307 324.909   3
  -1  -6  12 77.8202 321.049   8
   6  -1  12 480.805 326.979   5
  -6   1 -12-12.6850 363.912   1
   1  -6  12-26.1683 319.372   5
  -1  -6  12 12.6095 319.317   5
  -6  -1  12 802.667 321.412   8
   1   6 -12 633.668 323.479   3
   1   6 -12 1390.18 333.926   2
   6  -1  12 666.316 326.307   6
   6  -1  12 702.657 323.793   8
  -6   1 -12 144.462 314.917   3
   6  -1  12 99.0855 316.188   7
  -6   1 -13-104.401 327.625   1
   1  -6  13 26.8951 288.434   5
  -6   1 -13 155.581 282.646   3
  -6  -1  13 1205.32 296.664   8
   1   6 -13 1225.89 303.282   3
   6  -1  13 656.075 295.968   6
   6  -1  13 11.3415 281.326   7
   6  -1  13 1047.98 303.581   5
   6   1 -13 8.35123 281.938   7
  -1  -6  13 105.725 292.538   5
  -1   6 -13 913.425 302.177   3
  -1  -6  13 190.407 295.209   8
   6  -1  14 496.562 258.310   8
   1  -6  14 69.3772 259.465   5
   1   6 -14 436.506 259.663   3
  -6   1 -14 19.6062 246.540   3
   6  -1  14 224.463 254.700   5
   6  -1  14 385.638 256.786   6
  -1  -6  14 95.5760 256.856   5
  -1   6 -14 522.045 259.399   3
  -6  -1  14 615.913 256.699   8
   1   6 -14 830.101 264.563   2
  -1  -6  14 170.947 265.968   8
   1  -6  15 115.900 210.977   5
   1   6 -15 395.653 205.427   3
  -1  -6  15 327.777 222.326   8
   6  -1  15 177.552 198.789   6
   6  -1  15 260.030 201.520   8
  -6  -1  15 535.886 204.041   8
   1   6 -15 387.448 204.205   2
  -1   6 -15 421.825 206.178   3
  -1  -6  15 85.6429 204.024   5
  -6   1 -15 20.8988 191.363   3
   1   6 -16 645.272 379.311   2
   1   6 -16 709.189 381.137   3
  -6  -1  16 617.073 377.371   8
   1  -6  16 241.726 383.750   5
  -1   6 -16 632.618 380.468   3
  -1  -6  16 458.720 386.842   8
  -1  -6  16 253.357 381.012   5
   6  -1  16 650.570 378.997   8
   6  -1  16 322.609 375.579   6
   1  -6  17 31.4590 85.1362   5
  -1  -6  17 47.8298 102.196   8
   1   6 -17 22.8083 62.4334   2
  -1   6 -17 22.3344 65.0867   3
  -1  -6  17 62.1278 98.4072   5
   6  -1  17 22.1391 59.6882   6
   1   6 -17-11.0355 63.4150   3
   6  -1  17 10.4215 65.9910   8
   6  -1  18 193.656 361.809   6
   1   6 -18 855.842 376.376   3
   6  -1  18 746.410 368.900   8
  -1  -6  18 213.390 368.358   5
   1  -6  18 215.873 375.665   5
  -1   6 -18 713.167 370.051   3
  -1  -6  18 630.673 394.648   8
  -1   6 -19 679.702 330.509   3
   6  -1  19 334.247 323.322   8
   1  -6  19 206.822 331.098   5
  -1  -6  19 500.177 347.942   8
   1   6 -19 576.857 327.779   3
  -1  -6  19 289.894 331.571   5
  -1   6 -20 553.584 319.812   3
  -1  -6  20 417.570 333.899   5
   1   6 -20 580.953 322.753   3
  -1  -6  20 375.745 338.197   8
   1  -6  20 55.0086 325.476   5
  -1  -6  22-19.4364 115.853   5
  -1   6 -22 83.5907 106.751   3
  -1  -6  22 35.6111 144.630   8
   1  -6  22 274.398 136.019   5
   1  -6  23 20.8579 114.085   5
  -1   6 -23 75.4920 85.6052   3
   1   6 -23 14.9959 93.7373   3
  -1  -6  23 18.3840 131.265   8
  -1  -6  23 20.6985 111.376   5
   1  -6  24 128.902 126.562   5
  -1  -6  24 18.9526 139.502   8
  -1   6 -24 139.987 107.953   3
  -1  -6  24 64.0007 134.441   5
   1   6 -24 30.9102 99.4800   3
  -1   6 -25-15.9970 80.5233   3
   1   6 -25 31.8166 84.6266   3
  -1  -6  25 19.5103 140.252   8
   1  -6  25 44.1939 108.267   5
  -1  -6  25 44.6852 104.866   5
   1   6 -26 17.1163 91.7392   3
  -1  -6  26 206.612 131.485   5
  -1  -6  26 20.0511 144.894   8
  -1   6 -26-17.2065 83.8759   3
   1  -6  26 184.739 132.207   5
   1  -6  27 47.3630 129.514   5
  -1   6 -27 123.499 98.2361   3
   1   6 -27-17.5642 82.6948   3
  -1  -6  27 70.6659 115.442   5
  -1  -6  27-41.1560 156.601   8
  -1   6 -28 36.1416 80.9908   3
  -1  -6  28-63.2523 160.723   8
   1   6 -28-17.9995 91.7871   3
   1  -6  28 24.2533 119.785   5
  -1  -6  28 241.299 130.664   5
  -1   6 -29 18.8044 74.3097   3
  -1  -6  29-107.902 179.973   8
   1   6 -29-18.7393 90.8358   3
   1  -6  29-25.2760 116.221   5
  -1  -6  29-50.3308 107.340   5
  -1   6 -30 38.4115 106.071   3
  -1  -6  30 154.276 123.857   5
   1  -6  30 25.8128 134.370   5
   1   6 -30 76.5922 110.851   3
  -1  -6  30 198.462 200.008   8
   1  -6  31 26.3293 166.035   5
   1   6 -31 136.743 182.250   3
  -1  -6  31 183.614 185.008   5
  -1  -6  31 134.994 221.200   8
  -1   6 -31 293.878 188.688   3
   1  -6  32 115.013 173.316   8
  -1  -6  32 68.7827 168.214   8
  -1   6 -32 19.9550 79.7436   3
   1   6 -32 19.9120 77.1050   3
  -1   6 -33 142.109 118.849   3
   1  -6  33 70.2102 172.047   8
   6  -2   0 220.279 169.038   6
  -6  -2   0 426.136 239.050   1
  -6  -2  -1 295.357 750.428   1
   6  -2  -1 167.931 732.759   6
   6   2   1 3990.75 755.568   7
  -6   2   1 3147.33 748.318   4
  -6   2  -2 350.786 110.061   4
   6  -2  -2 36.0099 99.5156   7
   6  -2   2-4.10308 91.5207   5
   6  -2  -2 8.89089 93.1938   6
   6   2   2 154.509 105.655   7
   6  -2   2 67.6210 100.047   6
  -6  -2  -2 157.406 186.309   1
  -6   2   2 125.362 99.0440   4
   6  -2   2 290.499 113.754   7
  -6  -2   2 179.274 91.6689   5
   6   2   2 182.285 102.712   6
   6  -2   3-9.11621 109.978   8
   6  -2  -3 17.9361 110.532   6
   6  -2   3 475.027 120.331   5
  -6   2  -3 3.50024 108.521   2
   6   2   3 665.214 138.832   7
   6  -2   3 714.165 142.852   6
   6   2  -3-2.10806 107.933   2
  -6  -2  -3 64.9325 188.276   1
   6  -2  -3 18.1821 114.939   7
   6   2   3 514.728 130.529   6
  -6  -2   3 2.74830 108.317   8
   6   2  -3 1072.51 117.604   3
  -6   2   3 223.731 120.128   4
   6   2  -4 1202.88 274.979   3
  -6  -2   4 831.634 279.709   4
  -6  -2   4 13.7200 270.128   8
  -6   2  -4 7.78412 269.432   2
   6   2   4 375.381 277.381   6
   6   2  -4 1295.16 286.292   6
   6  -2   4 947.155 279.598   5
  -6  -2   4 723.280 274.312   5
   6   2  -4 95.9283 269.723   2
   6  -2   4 1325.26 293.521   7
   6  -2   4 1007.01 286.065   6
  -6   2  -4 1546.23 290.842   4
   6  -2  -4-9.19374 271.759   7
  -6   2  -4 892.840 275.785   3
   6  -2   4 5.13910 270.579   8
   6   2   5 189.790 378.758   7
   6  -2   5 11.5772 376.213   8
   6   2  -5 1087.65 379.055   3
  -6  -2   5 450.818 377.631   5
  -6   2  -5 1393.50 390.091   4
   6  -2   5 1092.33 386.970   6
   6   2   5 193.757 378.179   6
   6  -2   5 1279.59 393.022   7
  -6   2  -5 174.748 375.968   2
   6   2  -5 1091.26 385.161   6
  -6  -2   5 670.316 382.086   4
   6  -2   5 1121.91 383.420   5
  -6  -2   5 354.758 377.244   8
   6   2  -6 1426.98 458.757   6
   6   2  -6 1904.53 454.792   3
   6  -2   6 2469.48 464.260   5
   6  -2   6 564.304 451.944   8
  -2  -6   6-9.59240 447.489   8
  -6   2  -6 2126.86 457.842   3
  -2  -6   6 9.68958 448.133   5
  -6  -2   6 934.348 452.639   5
   6   2   6 181.902 450.088   6
   6  -2   6 2206.38 473.147   7
  -6  -2   6 1027.33 454.932   4
  -2   6  -6 7.80497 446.877   2
  -6  -2  -6 166.794 469.762   1
  -6  -2   6 1460.88 455.030   8
   6   2   6 154.986 449.557   7
   2   6  -6 22.1284 446.693   2
  -6   2  -6 2460.38 465.735   4
   2  -6   6-10.1613 447.864   8
  -6   2  -7 1969.53 527.494   3
   2   6  -7 247.086 519.820   2
  -6  -2   7 2249.67 529.068   8
  -2  -6   7 20.0893 519.225   8
   6   2  -7 1148.79 526.486   6
  -6  -2  -7-12.3075 536.735   1
   6  -2   7 2130.45 538.977   7
  -6  -2   7 871.707 523.486   5
  -6  -2   7 630.184 522.560   4
   6  -2   7 2428.00 535.482   5
   2  -6   7-10.6965 519.997   5
  -6   2  -7 2198.49 576.474   1
  -2   6  -7 333.940 520.896   2
  -6   2  -7 2822.76 538.021   4
   2  -6   7-10.6059 519.422   8
   6  -2   7 1297.77 528.902   8
  -2  -6   7 10.1373 519.354   5
  -2  -6   8 10.6323 282.076   5
  -6   2  -8 1686.91 301.456   4
   2  -6   8-11.1816 281.726   5
   6   2  -8 664.378 284.126   3
  -6  -2   8 124.974 280.353   4
   6  -2   8 1007.67 301.101   7
  -6   2  -8 1365.57 392.128   1
  -6  -2   8 495.846 285.237   5
   6   2  -8 116.385 280.092   6
  -2   6  -8 883.280 292.678   2
  -2  -6   8-10.5410 281.798   8
   2  -6   8 5.54436 278.788   7
   2   6  -8 670.550 289.128   2
  -6  -2   8 1496.07 293.539   8
   2  -6   8 33.2784 282.512   8
  -2   6  -9 1601.39 278.398   2
   6   2  -9-43.5450 252.250   6
   6  -2   9 762.218 275.156   7
   2  -6   9-5.33397 252.352   7
  -6   2  -9-1037.22 427.391   1
   6  -2   9 1770.48 283.084   6
  -2  -6   9 11.1653 257.301   5
   2  -6   9-11.6176 258.387   8
  -2  -6   9 11.0768 256.486   8
   6  -2   9 2203.10 288.365   8
  -6  -2   9 627.898 262.066   5
  -6   2  -9 2658.95 287.611   4
   2  -6   9 11.7038 257.983   5
  -6  -2   9-6.04603 252.152   4
   2   6 -10 344.401 127.765   2
  -6   2 -10 377.533 131.253   3
  -6   2 -10 192.827 138.422   4
   2  -6  10 36.5795 129.715   5
   2  -6  10 12.1733 136.231   8
  -2   6 -10 230.501 123.533   2
  -6  -2  10-6.07226 115.947   4
   6  -2  10 222.333 166.426   7
   6  -2  10 180.842 125.663   6
   2  -6  10 20.3754 115.110   7
   6  -2  10 262.961 142.869   8
  -2  -6  10 11.6471 129.432   8
   6  -2  10 389.855 148.031   5
  -2  -6  10-23.3409 131.058   5
   6   2 -11 701.204 463.266   3
   6  -2  11 4386.67 506.095   5
  -6  -2  11 1180.71 469.822   5
   6  -2  11 4168.26 498.069   8
   2  -6  11 37.8965 461.359   5
  -2  -6  11-12.1284 460.304   5
   6  -2  11 703.393 467.175   7
  -6  -2  11 3852.31 487.056   8
   2  -6  11 71.8538 458.029   7
   2  -6  11-25.5107 462.505   8
  -6   2 -11 517.504 527.771   1
  -2  -6  11 24.4854 461.827   8
  -6   2 -12 619.548 312.666   3
  -2   6 -12 523.290 312.076   3
   6  -2  12 96.3901 306.788   7
  -2  -6  12 25.0078 308.669   5
   6   2 -12 102.659 303.685   3
  -2  -6  12-12.8621 309.118   8
   2   6 -12 999.449 318.535   2
  -6  -2  12 105.704 304.837   5
   6  -2  12 738.420 315.663   8
  -6   2 -12-246.761 374.105   1
   6  -2  12 658.909 314.015   6
   6  -2  12 857.769 321.129   5
   2  -6  12 53.4332 315.101   8
   2  -6  12 79.3336 309.581   5
  -6  -2  12 692.956 312.707   8
  -2   6 -12 1052.62 320.616   2
   2   6 -12 725.955 314.876   3
  -6  -2  13 1305.08 447.771   8
  -2   6 -13 1133.41 448.877   3
  -6   2 -13 858.705 444.707   3
  -6   2 -13 12.6568 481.798   1
   6  -2  13 870.007 448.609   5
   6  -2  13 1564.21 452.861   8
  -2  -6  13 104.928 442.304   5
   6   2 -13 102.767 435.097   3
  -2  -6  13 161.966 445.067   8
  -2   6 -13 1888.71 456.473   2
   6  -2  13 43.9849 436.031   7
  -6  -2  13 458.418 441.445   5
   6  -2  13 1206.90 448.846   6
   2   6 -13 1458.67 450.238   3
   2  -6  13 67.9002 438.641   5
   2  -6  13 83.8697 442.899   8
  -6   2 -14 168.905 370.997   1
  -2   6 -14 665.765 322.881   3
   2   6 -14 626.412 320.982   3
  -2   6 -14 924.143 327.318   2
  -2  -6  14 169.747 325.663   8
   2  -6  14 112.025 319.619   5
   6  -2  14 720.000 322.008   6
   6  -2  14 851.226 329.983   5
  -6   2 -14 395.522 317.016   3
   6  -2  14 874.158 328.685   8
  -6  -2  14 690.479 323.187   8
   2  -6  14 116.890 320.689   8
   6   2 -14 18.4525 308.800   3
   2   6 -14 1160.56 330.034   2
  -2  -6  14 162.721 319.716   5
   6  -2  14-33.9076 311.773   7
  -6   2 -15 871.707 791.146   3
   2  -6  15 518.602 795.273   8
   6  -2  15 1440.96 799.388   5
   2   6 -15 2487.74 802.270   2
   2  -6  15 452.991 791.855   5
  -2  -6  15 473.719 795.858   8
  -6  -2  15 1434.13 794.813   8
  -6   2 -15 53.3825 806.625   1
  -2  -6  15 255.360 793.421   5
   6  -2  15 1183.18 793.534   6
   6  -2  15 1572.57 798.387   8
  -2   6 -15 2281.36 800.923   2
  -2   6 -16 140.448 107.714   3
   2  -6  16 31.8029 129.355   8
   2   6 -16 168.469 110.110   3
   2  -6  16 30.4599 112.752   5
   6  -2  16 111.414 104.000   6
  -6   2 -16 111.154 97.8464   3
   6  -2  16 74.7426 108.793   5
   6  -2  16 178.701 119.957   8
  -2   6 -16 133.997 105.808   2
  -2  -6  16 121.624 142.127   8
  -2  -6  16 88.9046 124.183   5
   2   6 -16 206.666 106.935   2
  -6  -2  16 58.4578 97.3985   8
  -2  -6  17 455.056 684.357   5
   2  -6  17 649.715 685.162   5
   2   6 -17 1460.69 686.167   3
  -6  -2  17 1246.62 682.972   8
   6  -2  17 1253.14 687.774   5
   6  -2  17 1341.23 686.536   8
  -6   2 -17 333.940 675.209   3
  -2  -6  17 729.551 684.643   8
  -2   6 -17 1608.17 687.079   3
   2  -6  17 650.731 686.300   8
   6  -2  17 1258.66 683.063   6
   6  -2  18 302.995 186.722   8
  -6  -2  18 366.180 189.449   8
  -2  -6  18 130.684 197.323   5
  -2   6 -18 338.310 186.686   2
   2  -6  18 50.7250 218.268   8
   2   6 -18 413.672 192.723   2
   2  -6  18 133.783 192.389   5
  -6   2 -18 25.0755 172.337   3
   2   6 -18 299.413 187.299   3
  -2   6 -18 294.215 188.571   3
  -2  -6  18 181.683 221.046   8
   6  -2  18 135.072 182.406   5
   2   6 -19 1245.08 657.527   3
   2  -6  19 1006.23 664.219   5
  -6  -2  19 1455.13 658.500   8
  -6   2 -19 131.392 645.916   3
  -2  -6  19 526.317 656.424   5
  -2  -6  19 1099.01 669.224   8
   6  -2  19 831.603 656.459   5
   2  -6  19 947.667 664.722   8
   6  -2  19 1196.96 658.702   8
  -2   6 -19 1685.33 661.589   3
  -6   2 -20 68.6674 323.311   3
   2   6 -20 591.830 337.762   3
  -6  -2  20 729.369 338.673   8
  -2  -6  20 397.888 348.333   5
   6  -2  20 702.197 339.370   8
   2  -6  20 350.540 341.740   5
  -2   6 -20 582.059 338.079   3
  -2  -6  20 249.569 346.615   8
   2  -6  21 658.435 658.505   8
   6  -2  21 1051.38 648.794   8
   2  -6  22 157.647 147.352   5
   2  -6  22 38.8646 155.907   8
  -2   6 -22 168.009 124.407   3
  -2  -6  22 88.7604 155.186   8
   2   6 -23 224.395 171.580   3
   6  -2  23 229.825 185.437   8
   2  -6  23 335.417 200.746   5
  -2   6 -23 136.513 180.692   3
  -2  -6  23 311.702 209.269   8
   2  -6  23 55.8645 201.961   8
  -2  -6  23 165.148 188.383   5
  -2  -6  24-21.2813 105.967   5
  -2   6 -24-31.2341 68.1570   3
   2  -6  24 107.928 119.590   5
   2  -6  24-19.1751 129.355   8
  -2  -6  24 113.430 141.904   8
   2   6 -24 15.4259 70.7309   3
  -2  -6  25 311.476 291.698   8
   2  -6  25 631.083 299.910   8
  -2   6 -25 256.972 265.751   3
   2   6 -25 365.778 274.155   3
  -2  -6  25 356.674 282.902   5
   2  -6  25 332.845 280.000   5
   2  -6  26 23.1880 123.865   5
  -2  -6  26 68.7354 120.519   5
  -2  -6  26 60.0299 162.135   8
  -2   6 -26 207.182 109.679   3
   2   6 -26 17.0944 93.1697   3
   2  -6  26 20.2500 147.008   8
  -2  -6  27 328.663 231.812   8
   2  -6  27 207.651 224.901   8
   2  -6  27 71.3179 198.869   5
  -2   6 -27 265.545 193.925   3
   2   6 -27 263.129 189.303   3
  -2  -6  27 141.075 216.371   5
   2  -6  28-24.3330 111.947   5
  -2  -6  28 21.0522 154.437   8
   2   6 -28-17.9812 77.5982   3
  -2   6 -28 18.1276 76.1029   3
   2  -6  28 106.325 158.807   8
  -2  -6  28 98.2505 118.118   5
  -2  -6  29 237.084 190.280   8
   2   6 -29 37.4495 87.5601   3
   2  -6  29-50.7213 116.117   5
  -2  -6  29 50.2642 127.969   5
   2  -6  29 21.7431 165.875   8
  -2   6 -29 75.4372 91.9596   3
   2   6 -30 57.4068 80.9842   3
   2  -6  30-22.2036 155.996   8
   2  -6  30 25.8933 106.255   5
  -2   6 -30 19.2571 71.9788   3
  -2  -6  30-88.1121 157.822   8
  -2  -6  30 25.6851 114.274   5
   2  -6  31 294.409 234.300   8
   2  -6  31 79.1879 173.307   5
  -2  -6  31 26.2052 155.985   5
  -2   6 -31 58.9209 147.006   3
  -2  -6  31 404.652 226.379   8
   2   6 -31 136.732 158.853   3
   2  -6  32 80.6299 123.122   5
   2   6 -32 39.8112 75.4157   3
   2  -6  32 69.1906 168.824   8
  -2   6 -32-19.9998 87.7951   3
  -2  -6  32-22.9141 158.225   8
  -2   6 -33 142.347 144.042   3
   6  -3   0 18.8769 177.906   7
  -6  -3   0-92.4080 235.865   1
   6  -3   0 18.6242 175.601   6
   6   3   0 773.739 195.319   7
  -6   3   0 586.471 189.254   4
   6  -3   1 9.25891 78.3394   6
  -6   3  -1 283.832 91.5054   4
  -6  -3   1-139.190 193.780   1
   6   3   1 64.8140 83.4183   6
   6   3   1 101.048 85.8171   7
   6   3  -1 241.040 93.5358   7
   6  -3   1 9.37360 83.8535   7
  -6  -3  -1 116.702 170.288   1
  -6   3   1 101.399 80.3294   4
  -6  -3   2 10.8396 220.324   5
   6  -3   2 249.199 226.235   6
   6  -3   2 120.420 227.959   7
   6   3   2 611.217 232.410   6
  -6  -3  -2 32.9061 262.307   1
   6   3   2 684.700 235.518   7
   6   3   3 9.83291 37.1976   7
  -6  -3  -3 22.6864 127.526   1
   6  -3   3 36.9021 41.5549   6
   6  -3   3-5.82950 30.8938   5
  -6   3  -3 67.5786 52.1073   4
  -6  -3   3-7.97410 26.0222   5
   6  -3   3 9.18829 48.7660   7
   6   3  -4 3.41231 72.2120   2
   6  -3   4 571.041 110.012   7
  -6  -3   4 322.646 85.2136   5
  -6   3  -4-4.79857 73.0604   2
   6  -3   4 12.5030 76.0326   8
  -6  -3   4-4.44174 73.3471   8
   6   3  -4 898.001 111.381   6
  -6  -3  -4 93.8612 143.774   1
   6  -3   4 6.30088 79.1258   5
   6  -3   4 434.598 101.935   6
  -6   3  -5 2376.98 250.906   4
  -6   3  -5-5.20176 209.475   2
  -6  -3   5 589.089 218.718   4
   6  -3   5 1102.16 232.166   6
   6   3  -5 19.1098 209.311   2
   6  -3   5 510.856 219.509   5
   6  -3   5-13.5975 211.230   8
  -6  -3   5 5.04360 210.670   8
   6   3  -5 1371.65 222.631   3
   6  -3   5 1195.65 237.832   7
   6   3  -6 1133.81 269.950   6
  -6  -3   6 982.291 264.910   5
   3  -6   6-10.4170 256.048   5
  -6   3  -6 1107.79 265.721   3
   6  -3   6 29.6060 256.188   8
   3   6  -6-7.28058 253.405   2
  -6   3  -6 1724.75 281.382   4
  -3  -6   6 19.1276 255.314   5
  -6  -3   6-11.4232 255.386   8
   6  -3   6 980.477 275.640   7
   6  -3   6 777.091 267.336   5
   6   3  -6 530.388 257.911   2
  -6  -3   6 571.317 261.218   4
   6  -3   6 1056.62 274.350   6
  -3   6  -6-7.92743 253.211   2
   3  -6   6 10.3247 255.780   8
  -3  -6   7-19.8410 209.724   8
  -6  -3   7 820.196 220.264   5
   3  -6   7-10.7677 209.268   8
  -6  -3   7 449.677 215.224   8
  -3  -6   7 10.0151 210.526   5
  -6   3  -7 2195.86 247.214   4
   3   6  -7 91.5466 207.637   2
  -3   6  -7 90.9335 208.165   2
  -6  -3   7 829.615 219.207   4
   3  -6   7 13.8619 207.449   7
   3  -6   7-10.8582 209.900   5
   6  -3   7 1612.60 247.327   7
   6   3  -8 2897.02 653.458   3
  -6  -3   8 1423.27 651.657   8
  -6   3  -8 3619.78 663.785   4
  -6   3  -8 2025.66 651.347   2
   6  -3   8 2536.52 662.382   7
   6  -3   8 724.748 648.174   8
  -3  -6   8 20.8427 642.904   8
   6   3  -8 4471.28 666.595   7
   3  -6   8-34.0263 643.143   5
  -6  -3   8 571.647 644.588   4
  -3  -6   8 31.5411 643.360   5
   3  -6   8 6.76871 642.127   7
  -6  -3   8 1682.53 651.907   5
   6   3  -8 1915.28 652.209   6
   3  -6   8-11.2538 643.886   8
   3   6  -8 1142.48 649.543   2
   3  -6   9 83.0388 419.959   5
  -6   3  -9 1499.46 430.693   3
   6  -3   9 1837.00 446.314   5
  -3  -6   9 21.9867 421.129   5
  -3   6  -9 909.527 424.022   2
   6   3  -9 2391.14 440.366   7
  -6   3  -9 1847.84 437.938   2
   6  -3   9 1721.84 439.267   6
   3  -6   9 99.3229 415.783   7
   3   6  -9 1064.19 426.016   2
   3   6  -9 185.187 413.532   6
   6  -3   9 1586.41 456.975   8
  -3  -6   9 87.7029 419.813   8
  -6   3  -9 2763.99 452.546   4
   6   3  -9 457.172 421.259   6
   3  -6   9 129.537 421.144   8
   6   3 -10 68.5282 362.681   6
   3  -6  10 38.3879 363.753   7
  -6  -3  10 17.1415 362.904   4
  -6   3 -10 4551.38 406.239   4
  -6   3 -10 2117.38 472.863   1
   3  -6  10 12.3305 369.484   8
  -3  -6  10 57.6812 367.735   8
   3  -6  10-24.6969 366.858   5
   6  -3  10 4384.20 413.105   6
  -3  -6  10-23.1213 366.688   5
  -6  -3  10 3726.76 404.075   8
   3   6 -10 4400.86 412.422   2
   3  -6  11-12.9094 84.1301   8
   6   3 -11-6.80270 47.3122   6
   6  -3  11 101.192 83.4806   7
   3  -6  11-38.3508 85.4271   5
   6  -3  11 88.2152 60.5549   6
  -3   6 -11 76.0298 58.5559   2
   3   6 -11 143.205 67.1530   2
  -6   3 -11-297.605 270.644   1
   6   3 -11 158.922 74.1226   7
   6  -3  11 148.549 81.2026   5
  -6   3 -11 159.245 77.4984   4
  -6   3 -11 82.0022 62.0685   3
  -6  -3  11 87.5705 71.6580   8
   3  -6  11 6.17553 61.4862   7
   6   3 -11 85.3636 59.7652   3
  -6  -3  11 29.3907 64.7332   5
  -3  -6  11-24.2732 85.6628   8
   3   6 -11 50.1572 65.6112   3
  -3  -6  11 12.0243 78.9961   5
   6  -3  11 49.7958 83.0984   8
  -6  -3  11 5.68943 49.3342   4
  -6   3 -12 2629.34 1001.40   3
   6  -3  12 3037.68 1008.56   5
   6  -3  12 2679.97 1002.78   6
   6   3 -12 5145.05 1007.59   7
  -3  -6  12 12.7614 991.967   8
  -3  -6  12 62.0424 992.141   5
   6  -3  12 2299.41 1004.42   8
  -6  -3  12 1412.10 998.582   5
  -6   3 -12 558.850 1024.81   1
   6  -3  12 313.301 992.519   7
   3  -6  12 13.5101 993.527   8
  -6   3 -12 3105.93 1002.56   4
   3   6 -12 3312.92 1006.06   2
   3   6 -12 2601.08 1001.72   3
   3  -6  12 40.1150 992.560   5
  -3   6 -12 2450.03 1002.31   3
   3   6 -13 964.718 395.864   2
   6  -3  13 781.839 393.674   6
   6   3 -13 426.505 388.290   3
  -6   3 -13 886.045 394.527   4
   3  -6  13 54.8978 388.349   5
  -3  -6  13 25.7080 388.575   5
   6  -3  13 53.8990 387.850   7
   6  -3  13 693.849 397.130   5
   6  -3  13 736.924 398.791   8
  -6   3 -13 843.250 392.786   3
  -3  -6  13 93.8115 390.988   8
  -6   3 -13-24.7947 455.688   1
  -3   6 -13 1055.65 396.977   2
  -3   6 -13 766.588 394.739   3
   3   6 -13 666.853 392.744   3
  -6  -3  13 670.034 394.674   8
  -6  -3  13 349.413 389.742   5
   3  -6  13 42.3831 390.763   8
  -3   6 -14 1645.18 643.593   3
  -6  -3  14 412.088 635.373   5
  -6   3 -14 1127.90 638.657   3
   3  -6  14 296.998 637.042   5
   6  -3  14-11.0219 630.892   7
  -3  -6  14 161.692 636.242   5
   6  -3  14 1551.09 646.736   5
  -6   3 -14-177.558 673.687   1
  -6   3 -14 1526.77 639.806   4
   3  -6  14 162.325 636.968   8
  -3  -6  14 238.940 638.155   8
   6   3 -14 606.839 635.051   3
   3   6 -14 1140.02 639.727   3
   3   6 -14 2033.87 646.044   2
  -3   6 -14 2035.89 647.328   2
  -6  -3  14 1520.24 642.411   8
   6  -3  14 1377.57 644.298   8
   6  -3  15 372.841 245.029   5
   3   6 -15 491.216 239.621   3
  -3   6 -15 450.025 240.054   3
  -6  -3  15 199.902 233.512   5
   6   3 -15 229.192 230.681   3
  -6   3 -15 142.850 319.734   1
   3  -6  15 58.9946 236.106   5
   6  -3  15 380.266 237.119   6
  -3  -6  15 42.3183 235.737   5
  -6   3 -15 371.921 237.298   4
  -6   3 -15 383.190 236.359   3
  -3   6 -15 619.542 240.381   2
   3   6 -15 724.697 243.169   2
  -3  -6  15 117.768 242.297   8
   3  -6  15 184.762 251.680   8
   6  -3  15-11.2926 229.124   7
   6  -3  15 221.487 236.779   8
  -6  -3  15 338.579 240.205   8
  -6  -3  16 375.312 526.754   5
  -6   3 -16 652.635 526.581   4
  -6   3 -16 949.815 531.419   3
   6  -3  16 1254.41 542.216   5
   3   6 -16 1194.77 534.104   3
   3  -6  16 307.263 530.421   5
   6  -3  16 23.1702 521.448   7
   3  -6  16 481.280 537.376   8
   6  -3  16 1071.04 532.137   6
  -3   6 -16 1959.32 542.658   2
  -3  -6  16 738.767 537.016   8
   6  -3  16 1413.61 539.840   8
  -3   6 -16 1285.63 536.075   3
  -6  -3  16 1174.93 536.361   8
  -6   3 -16 119.728 558.364   1
   6   3 -16 215.535 522.640   3
  -3  -6  16 368.535 531.534   5
  -6   3 -17 11.4774 53.4689   3
   3  -6  17-16.6897 131.453   8
   3  -6  17-47.9365 93.8223   5
  -3  -6  17-94.7278 164.303   8
  -3   6 -17-11.3345 70.2717   3
   3   6 -17-11.0128 64.6885   3
  -6  -3  17 15.2819 72.7561   5
   6  -3  17 25.8477 90.7016   8
   6  -3  17 96.9963 84.9071   5
  -3   6 -17-11.7166 74.4748   2
   3   6 -17 11.2995 60.4232   2
  -6  -3  17 22.4155 79.4493   8
   6   3 -17-11.4123 46.7510   3
  -3  -6  17-62.4827 112.854   5
  -6  -3  18 515.899 734.598   5
   3   6 -18 2225.90 748.411   3
   6   3 -18 132.434 729.598   3
   6  -3  18 1788.30 747.341   8
   3  -6  18 1244.01 750.842   8
  -6  -3  18 1596.85 745.021   8
  -3   6 -18 1813.82 743.799   3
  -3  -6  18 520.645 740.562   5
  -6   3 -18 957.299 738.436   3
  -3  -6  18 1167.98 748.546   8
   6  -3  18 1592.80 749.072   5
   3  -6  18 876.329 747.344   5
   6  -3  19 531.452 302.941   5
   3   6 -19 568.416 299.563   3
   6   3 -19-12.6604 282.440   3
  -6  -3  19 746.373 305.622   8
  -3   6 -19 823.807 305.269   3
   3  -6  19 318.174 315.766   8
   6  -3  19 708.379 311.647   8
  -6   3 -19 184.400 287.553   3
  -3  -6  19 462.010 316.754   8
  -3   6 -19 542.917 296.249   2
  -3  -6  19 260.526 306.907   5
   3  -6  19 227.180 303.798   5
  -3  -6  20 613.036 641.191   5
  -3   6 -20 1413.56 641.651   3
  -6  -3  20 1147.75 641.173   8
  -6   3 -20 329.642 630.865   3
   6  -3  20 868.186 641.745   5
   3  -6  20 668.701 644.839   5
   6  -3  20 1229.04 645.929   8
  -3  -6  20 852.817 650.340   8
   3   6 -20 1103.59 639.254   3
  -6  -3  21 381.870 198.456   8
   6  -3  21 411.341 198.057   5
  -6   3 -21 87.2547 181.215   3
   3  -6  21 113.619 208.155   8
  -6  -3  22 838.925 423.866   8
  -3   6 -22 591.341 415.715   3
   3  -6  22 371.492 431.345   8
   3  -6  22 257.725 415.803   5
  -3  -6  22 743.685 429.987   8
  -3   6 -23-15.2470 86.4867   3
   6  -3  23 63.1975 93.1975   5
   3   6 -23 59.7415 82.1814   3
  -6   3 -23 15.6426 78.5290   3
  -3  -6  23 61.7932 120.770   5
  -3  -6  23 18.2951 119.264   8
   3  -6  23 42.1634 116.235   5
   6  -3  23 15.4604 117.461   8
   3  -6  23 40.3198 157.448   8
  -3  -6  24 132.089 189.071   8
   3  -6  24 130.200 169.185   5
  -3   6 -24 204.051 159.338   3
   6  -3  24 207.822 181.192   8
   3  -6  24 327.767 196.221   8
  -6   3 -24 48.5197 137.251   3
   3   6 -24 261.901 151.311   3
  -3  -6  24 42.4885 163.441   5
  -6  -3  24 245.640 183.060   8
  -3  -6  25 22.2568 112.274   5
   3   6 -25-16.6137 74.3078   3
   6  -3  25-16.4993 109.039   8
  -3   6 -25 96.8023 89.8723   3
  -3  -6  25 19.4372 140.958   8
   3  -6  25 156.141 139.692   5
   3  -6  25 138.768 155.284   8
  -3  -6  26 359.781 222.990   8
   3  -6  26 244.189 216.390   8
  -3  -6  26 251.708 192.517   5
   6  -3  26 220.933 203.368   8
  -3   6 -26 277.483 171.230   3
   3   6 -26-17.0800 155.183   3
   3  -6  26 209.664 195.733   5
  -3  -6  27 61.5635 146.833   8
   3   6 -27 17.5322 83.4483   3
  -3  -6  27 70.4658 123.332   5
   3  -6  27-62.5808 143.404   8
  -3   6 -27-17.7782 72.7571   3
   3  -6  27-23.8767 116.072   5
  -3   6 -28 72.7770 115.656   3
   3   6 -28-18.2917 102.434   3
  -3  -6  28 343.626 168.571   5
   3  -6  28 277.651 189.646   8
  -3  -6  28 336.599 202.901   8
   3  -6  28-48.8811 128.318   5
   3   6 -29 131.050 95.0307   3
   3  -6  29 21.8318 159.274   8
   3  -6  29-25.4574 124.400   5
  -3   6 -29-18.9228 86.2129   3
  -3  -6  29 193.835 173.798   8
  -3  -6  29 50.2395 120.351   5
   3  -6  30 312.057 186.670   8
  -3  -6  30 154.114 193.294   8
   3  -6  30-25.9860 117.175   5
  -3  -6  30 25.6750 107.158   5
   3   6 -30-19.1390 78.4130   3
  -3   6 -30 19.3170 81.3035   3
   3  -6  31 45.4581 174.658   8
   3   6 -31-156.254 110.304   3
  -3  -6  31-67.4333 182.649   8
   3  -6  31-26.4835 117.324   5
  -3   6 -31-39.3949 96.3561   3
  -3  -6  32 114.584 178.429   8
  -3   6 -32 20.0534 95.3912   3
   3  -6  32-26.9701 123.524   5
   3  -6  32 254.559 195.491   8
  -3   6 -33-20.3927 77.0141   3
   6   4   0 32.9739 44.4027   6
  -6  -4   0-129.661 133.294   1
  -6   4  -1 114.224 58.3709   4
   6   4  -1 81.3585 63.2963   7
   6  -4   1-9.96043 63.8802   7
   6   4  -1 55.7207 59.8411   6
  -6  -4   1 73.0178 146.040   1
   6   4  -2 87.3038 49.0855   7
   6  -4   2-9.75244 33.6548   6
  -6  -4   2 30.2133 147.814   1
   6  -4   2-9.87051 48.9654   7
  -6   4  -2 48.5597 43.2044   4
   6  -4   3-9.69922 71.0279   6
  -6  -4   3-5.33126 70.7499   5
   6  -4   3 19.6348 80.5792   7
   6  -4   4 9.66893 34.3946   6
   6  -4   4 7.54742 39.1990   5
  -6  -4   4 34.3446 37.4305   5
   6  -4   4-9.70096 55.9970   7
  -6   4  -4 8.00138 41.4392   4
   6  -4   5-9.66048 72.8939   6
   6   4  -5-4.72135 65.8690   2
  -6  -4   5-6.14006 69.4578   8
  -6  -4   5 37.0541 77.1936   5
   6  -4   5 105.794 90.6455   7
  -6   4  -5 604.839 108.219   4
   6   4  -5 569.798 98.2267   6
   6  -4   6 241.922 92.4131   6
   4   6  -6-7.18755 71.8211   2
   6   4  -6 35.9750 74.0076   2
  -6  -4   6-20.1104 78.6139   8
  -6  -4   6 173.140 87.1962   5
  -4   6  -6 8.05659 72.8039   2
   6  -4   6 197.993 95.1480   7
  -6   4  -6-6.47708 74.2556   2
   6  -4   6 8.46703 82.2101   8
   4  -6   6-10.5864 84.0208   5
  -4  -6   6-9.44149 83.9453   5
  -6   4  -6 888.893 124.304   4
  -4   6  -7 16.7888 107.848   2
   6  -4   7 359.760 133.889   7
   4  -6   7-11.0273 121.730   5
  -6  -4   7 192.671 120.112   5
   6  -4   7-18.0737 121.354   8
  -4  -6   7-9.79849 113.370   8
   6  -4   7 143.269 121.064   5
  -6   4  -7 116.263 112.533   2
   6   4  -7 244.389 115.578   2
   6   4  -7 680.323 133.694   7
  -4  -6   7-19.7897 120.142   5
   4   6  -7-7.53760 107.940   2
  -6  -4   7 106.250 116.141   4
   6  -4   7 388.600 126.770   6
   4  -6   7-10.9377 115.504   8
  -6  -4   7-14.6457 114.621   8
   4  -6   8-23.0212 227.875   5
  -4  -6   8-31.1876 224.338   5
   6  -4   8 395.573 249.391   8
   6  -4   8 324.808 230.994   5
   6  -4   8 430.515 251.750   7
  -4  -6   8 30.9130 232.661   8
  -4   6  -8 104.886 221.962   2
   4   6  -8 227.403 220.463   6
   6   4  -8 1389.04 248.937   6
   4   6  -8 94.8296 221.186   2
  -6   4  -8 1007.13 242.410   4
   6  -4   8 430.133 232.886   6
   4  -6   8 34.2716 226.572   8
  -6   4  -8 489.768 232.167   2
   6  -4   9 890.022 435.547   5
  -4  -6   9 10.8499 425.720   8
   4   6  -9 898.735 431.145   2
   6  -4   9 1037.40 435.177   6
  -4   6  -9 913.947 432.054   2
  -6  -4   9 168.886 470.753   1
   6  -4   9 790.514 435.565   7
  -6   4  -9 1561.79 438.584   4
   6  -4   9 10.2905 426.356   8
   6   4  -9 1490.08 435.510   7
  -4  -6   9-10.8837 424.926   5
   4  -6   9-11.9438 425.050   8
   6   4  -9 1479.60 434.632   6
  -6  -4   9 163.792 423.936   4
   4  -6   9-12.0301 425.945   5
  -6   4  -9 1059.84 431.717   2
   4   6  -9 1048.96 427.045   6
  -6  -4   9 191.032 426.148   8
   6   4 -10 102.687 56.9347   3
   6   4 -10 146.684 63.6822   7
  -6  -4  10-5.29042 54.1796   4
  -6  -4  10 47.0289 74.3099   8
  -4  -6  10 11.3325 71.9287   5
   6  -4  10 21.0080 67.1793   5
  -4   6 -10 56.7554 59.5386   2
   4   6 -10 60.6961 56.3829   2
  -6   4 -10 96.7593 63.5292   3
  -6  -4  10 9.01944 63.0672   5
   6  -4  10-32.8728 79.6053   8
  -6  -4  10-47.0538 197.716   1
   4  -6  10 12.4967 79.5466   8
   6   4 -10 99.2414 54.5743   2
  -6   4 -10 100.556 70.4642   4
   6  -4  10 57.1935 62.7543   6
  -6   4 -10 15.7339 50.3406   2
   6  -4  10 69.7427 70.4835   7
  -4  -6  10 11.4299 69.6819   8
   6   4 -10 13.2335 49.1777   6
   4  -6  10-37.5435 73.6016   5
  -6  -4  11 1036.93 518.789   8
   4   6 -11 1343.68 519.211   3
   6   4 -11 1791.19 518.386   3
   6  -4  11 1766.19 523.648   6
  -6  -4  11 5.30829 506.108   4
   6  -4  11 1383.68 524.105   5
  -6   4 -11 1486.40 518.465   2
  -4  -6  11 93.6926 510.381   5
  -6   4 -11 2131.23 584.353   1
   6   4 -11 103.527 506.192   6
   6   4 -11 2264.99 521.357   7
   4  -6  11-39.2242 511.221   8
   4  -6  11 38.8387 510.130   5
   6  -4  11 886.965 517.641   7
  -6  -4  11 868.927 516.857   5
   6  -4  11 593.879 517.977   8
   4   6 -11 2637.07 529.754   2
  -4   6 -11 353.031 507.612   4
  -6   4 -11 2437.80 526.617   4
  -4  -6  11 12.0366 509.847   8
   4   6 -12 933.756 385.726   3
   6   4 -12 790.873 382.995   3
  -6   4 -12 618.043 463.209   1
  -4   6 -12 675.992 385.174   3
  -4  -6  12 12.6652 380.130   8
   4  -6  12-13.2889 378.824   5
   6  -4  12 132.934 379.828   7
  -4   6 -12 288.068 375.812   4
  -6   4 -12 1040.93 387.374   4
  -4   6 -12 945.937 387.399   2
  -6  -4  12 439.236 388.752   8
  -6  -4  12 359.243 382.923   5
   4  -6  12-27.3441 381.605   8
   4   6 -12 1177.30 389.383   2
  -6   4 -12 846.015 385.066   3
   6  -4  12 567.620 387.074   5
   6  -4  12 973.574 388.479   6
   6  -4  12 436.715 385.946   8
  -4  -6  12 73.8949 378.935   5
  -6   4 -12 727.333 384.087   2
  -4  -6  13 76.6087 240.053   5
  -4   6 -13 411.984 240.082   3
  -6  -4  13 232.840 239.017   5
  -6   4 -13 653.122 244.358   4
   6  -4  13 73.2900 235.527   7
   6  -4  13 346.431 255.241   8
   4  -6  13 14.2876 240.329   8
  -6   4 -13 384.636 237.706   2
   6   4 -13 373.365 235.086   3
   4  -6  13 69.3946 238.710   5
  -6   4 -13 437.053 238.890   3
   6  -4  13 253.939 241.542   5
  -6   4 -13 61.5406 358.767   1
   4   6 -13 412.236 237.539   2
  -4   6 -13 715.001 244.899   2
   6  -4  13 254.365 236.019   6
  -4  -6  13 13.3139 241.666   8
  -6  -4  13 372.677 244.469   8
   4   6 -13 381.328 237.669   3
   4   6 -14 905.214 459.956   3
  -6   4 -14 790.430 457.831   3
  -6   4 -14-112.639 524.471   1
   4  -6  14 157.224 455.318   5
  -4  -6  14 200.952 456.432   5
   6  -4  14 487.333 466.015   8
   4   6 -14 1227.70 462.631   2
  -6   4 -14 928.954 459.008   4
   6  -4  14 696.303 462.759   5
   6   4 -14 548.036 454.854   3
  -6  -4  14 473.499 457.895   5
   6  -4  14 873.329 457.558   6
  -4   6 -14 1054.07 463.073   3
  -6  -4  14 976.246 466.295   8
   4  -6  14 29.8319 455.825   8
  -4  -6  14 181.659 458.105   8
   6  -4  14 64.7017 452.702   7
  -4   6 -14 1253.45 464.574   2
  -6  -4  15 448.455 466.858   5
   4   6 -15 847.984 468.170   3
  -4  -6  15 168.411 463.457   5
   6  -4  15 370.565 470.315   8
  -6   4 -15 912.414 468.333   3
   6   4 -15 907.662 466.454   3
  -6   4 -15 953.782 466.845   4
  -6   4 -15 12.7631 522.622   1
   6  -4  15 1055.75 477.304   5
  -4   6 -15 1228.81 472.311   2
   4  -6  15 44.6935 463.313   5
  -4   6 -15 718.510 467.964   3
   4   6 -15 1044.11 469.319   2
   4  -6  15 388.791 471.412   8
   6  -4  15-11.1075 460.531   7
   6  -4  15 795.224 465.479   6
  -6  -4  15 928.274 474.009   8
  -4  -6  15 190.363 467.126   8
  -4  -6  16-30.6453 121.274   8
  -6   4 -16 53.8140 75.1749   3
   4   6 -16 156.570 84.7196   3
   4   6 -16 53.9009 75.9999   2
   6  -4  16 83.3547 111.074   8
  -4   6 -16 87.9516 79.1567   3
   4  -6  16-15.5101 103.665   5
  -6  -4  16 23.3772 95.1226   8
  -4  -6  16 14.9050 100.560   5
   6   4 -16 62.6447 76.7613   3
  -4   6 -16 232.666 85.9509   2
   4  -6  16 64.7804 116.448   8
  -6  -4  16 14.3789 92.5422   5
   6  -4  16-15.1787 90.1567   5
  -4   6 -17 594.412 324.337   3
  -4   6 -17 768.141 328.984   2
  -4  -6  17 108.925 321.891   5
   4  -6  17 101.053 333.927   8
   4   6 -17 636.561 326.215   3
   6  -4  17 669.347 335.781   8
  -6  -4  17 216.079 322.767   5
  -6   4 -17 495.868 321.574   3
  -6  -4  17 518.054 328.956   8
   6   4 -17 288.294 317.685   3
   4   6 -17 630.528 324.832   2
  -4  -6  17 157.263 333.318   8
   4  -6  17 128.974 322.868   5
   6  -4  17 540.350 331.963   5
  -4  -6  18 295.106 185.339   8
  -4   6 -18 227.057 152.063   3
   4  -6  18 16.9952 168.285   5
   4   6 -18 194.494 151.404   3
   6  -4  18 197.655 175.093   8
  -4  -6  18 64.8665 163.425   5
  -6   4 -18 247.422 151.738   3
   4   6 -18 246.526 148.993   2
  -6  -4  18 259.479 159.289   8
  -4   6 -18 294.513 153.799   2
   6   4 -18 109.153 141.435   3
   4  -6  18 68.7419 179.929   8
  -6  -4  18 16.2308 146.765   5
   6  -4  18 119.889 151.737   5
  -4  -6  19 460.673 316.548   8
   6  -4  19 767.685 315.091   5
  -4  -6  19 121.203 300.296   5
  -4   6 -19 569.875 303.445   3
  -6  -4  19 187.180 296.377   5
  -4   6 -19 496.236 303.211   2
  -6   4 -19 399.779 296.099   3
   6  -4  19 776.840 325.003   8
   4  -6  19 320.745 317.447   8
  -6  -4  19 585.151 313.934   8
   6   4 -19 101.757 290.866   3
   4   6 -19 641.039 303.991   3
   4  -6  19 229.001 307.408   5
  -6  -4  20 181.387 246.532   5
  -6  -4  20 469.745 265.719   8
   6  -4  20 434.618 258.182   5
   4   6 -20 640.227 257.688   3
  -6   4 -20 402.456 250.375   3
   6  -4  20 395.843 271.544   8
  -4  -6  20 549.437 284.366   8
   6   4 -20 54.1492 238.915   3
  -4  -6  20 89.9150 257.037   5
   6   4 -21 70.6252 225.049   3
  -6  -4  21 246.034 238.629   5
  -6   4 -21 291.704 237.385   3
   4   6 -21 557.871 245.198   3
   4  -6  21 400.516 269.256   8
  -6  -4  21 505.053 259.943   8
   4  -6  22 19.6845 162.717   8
   6   4 -22 44.1067 93.7376   3
   4  -6  22 79.8393 127.132   5
  -4  -6  22 57.0929 156.768   8
  -6  -4  22-19.6936 104.145   5
   6  -4  22 16.2593 123.774   8
  -4   6 -22 240.877 106.428   3
   6  -4  23 50.4452 130.117   8
   6  -4  23 84.0647 101.748   5
   4  -6  23 40.5787 147.848   8
  -6  -4  23 16.0575 119.330   8
  -4   6 -23 15.3385 83.9091   3
   4  -6  23-21.2170 102.647   5
   4   6 -23 74.6030 81.8819   3
  -4  -6  23 82.2712 111.568   5
  -4  -6  23 127.907 139.719   8
  -6   4 -23-15.6283 82.4523   3
  -4  -6  24 37.6989 143.668   8
  -6  -4  24-49.9324 125.785   8
   6  -4  24-22.1070 84.9824   5
  -4   6 -24-15.7850 75.1469   3
  -6   4 -24 32.8316 76.4309   3
   4   6 -24 64.4803 76.7406   3
   4  -6  24-21.8323 108.331   5
   6  -4  24-17.3618 116.854   8
   4  -6  24-83.5263 145.043   8
  -4  -6  24-43.1930 102.788   5
   6  -4  25 89.4630 152.824   8
  -4  -6  25 135.958 181.492   8
   4  -6  25 134.599 161.297   5
  -6  -4  25 481.979 181.909   8
  -4   6 -25 145.965 134.079   3
   4  -6  25 214.619 187.131   8
   4   6 -25 232.466 134.649   3
  -4  -6  25 111.197 149.395   5
  -6   4 -25-16.9166 118.164   3
   6  -4  25-22.7814 125.759   5
   4   6 -26-51.2254 76.2104   3
  -4  -6  26 59.9378 147.237   8
   4  -6  26 23.4235 114.148   5
   6  -4  26-23.4343 96.2174   5
   4  -6  26-61.3797 145.199   8
  -6   4 -26 17.4000 67.3678   3
  -4  -6  26 22.8722 99.2578   5
   6  -4  26 92.0477 135.707   8
  -6  -4  26-17.7704 124.941   8
  -4   6 -26 69.7216 91.8795   3
  -6  -4  27 183.074 151.769   8
   6  -4  27 94.5352 143.649   8
  -4  -6  27 119.678 124.870   5
   4  -6  27-20.9675 161.337   8
  -4   6 -27 53.5848 90.2927   3
   4  -6  27 71.9966 120.566   5
  -6   4 -27-35.7474 70.8371   3
   4   6 -27-17.8447 79.1103   3
  -4  -6  27 82.0508 157.963   8
   4   6 -28-36.5966 75.2174   3
   4  -6  28 73.6785 115.958   5
   4  -6  28 64.3811 157.685   8
   6  -4  28 77.5753 141.445   8
  -4   6 -28 36.5492 83.4202   3
  -4  -6  28 105.202 158.818   8
  -4  -6  28-24.5358 105.123   5
   4  -6  29 76.7227 118.045   5
  -4  -6  29 25.1169 101.850   5
   4   6 -29 18.7362 79.0051   3
   4  -6  29-21.9327 161.724   8
   6  -4  29 39.7179 136.117   8
  -4   6 -29 19.0015 82.1285   3
  -4  -6  29 258.506 168.721   8
  -4   6 -30 38.7855 105.143   3
   4  -6  30-179.088 195.712   8
  -4  -6  30 66.0803 161.731   8
   4  -6  30-52.1990 150.287   5
   4   6 -30-153.245 123.144   3
   4  -6  31 45.6431 158.754   8
  -4   6 -31-39.5375 81.3736   3
   4  -6  31 53.1851 105.922   5
  -4  -6  31 22.4863 158.013   8
   4   6 -31 19.5532 73.1490   3
   4  -6  32-69.6917 174.049   8
  -4   6 -32 20.1218 77.4095   3
  -4  -6  32 91.7071 171.774   8
   4  -6  32-27.0635 110.772   5
   6  -5   3 20.8477 55.6516   7
  -6  -5   4 7.05349 37.1088   5
   6  -5   4-31.0047 52.2018   7
  -6   5  -4 84.6595 42.7127   4
  -6  -5   5 7.45520 52.4951   5
   6  -5   5-10.1574 36.6125   6
   6  -5   5-9.25419 58.2427   5
   6  -5   5-41.1231 67.0369   7
  -6   5  -5 75.7696 39.4350   4
   6  -5   6 121.880 112.350   7
   6   5  -6 267.325 102.755   6
   6  -5   6 70.8635 83.1667   6
  -5  -6   6-9.31480 80.4242   5
  -6  -5   6 87.2060 94.8810   5
   5  -6   6-21.5245 87.4050   5
  -6   5  -6 66.9603 90.1603   4
   6  -5   6 356.281 121.495   8
   5   6  -6 12.6569 73.0178   6
   6  -5   6 19.4117 85.6123   5
  -6   5  -6 147.749 85.8814   2
   5  -6   6 190.942 109.026   7
  -5  -6   7-19.3509 66.9174   8
   6  -5   7-10.1116 62.9985   6
  -6   5  -7 23.3163 57.5315   2
   5  -6   7-11.2036 69.4956   5
  -5  -6   7 9.77312 69.9787   5
   6  -5   7 10.2068 73.0232   5
   5   6  -7 185.172 68.8969   6
  -5   6  -7-8.52746 54.7972   2
   5   6  -7-7.44518 54.3941   2
   5  -6   7 9.44341 71.2725   7
   5  -6   7 11.1147 69.2140   8
   6   5  -7 577.425 86.5815   6
   6  -5   7 30.1949 78.4079   7
  -6   5  -7 459.746 90.5801   4
   6  -5   7-10.1326 75.4557   8
   6  -5   8 10.1190 64.6829   6
  -6  -5   8-8.96614 70.1680   8
  -5   6  -8 35.5985 60.3314   2
   6  -5   8-10.6769 74.9157   8
   6   5  -8 191.758 71.1987   3
   5  -6   8-11.6868 73.6761   5
  -5  -6   8-30.8369 76.8279   5
   6  -5   8-32.0837 77.9299   5
   6   5  -8 41.2692 58.7228   2
   5   6  -8 23.5144 57.0665   2
  -6   5  -8 73.4854 62.5632   2
   6   5  -8 389.130 78.4264   6
   5  -6   8 11.6007 69.6769   8
   6  -5   8 39.4368 82.3172   7
  -6   5  -8 393.097 88.9390   4
  -6  -5   8 9.94798 67.9228   4
   5  -6   8 9.29251 74.9358   7
  -6  -5   8 8.90023 74.2388   5
   6   5  -8 22.0129 63.3038   7
  -5  -6   8-10.1866 72.3069   8
   5   6  -8 216.415 69.3133   6
  -6   5  -9 288.404 88.6976   4
  -6  -5   9 24.1570 73.6885   4
  -5   6  -9 92.7127 74.5222   2
   5  -6   9 9.17190 82.6751   7
  -5  -6   9-21.5449 90.5885   5
   6  -5   9 33.4417 85.5259   5
  -6  -5   9 179.077 161.319   1
  -6  -5   9 37.3568 80.2619   5
  -6   5  -9 127.727 74.3057   2
   5  -6   9 24.2851 90.3724   5
   5   6  -9 223.286 74.1629   6
   6   5  -9 7.05984 69.2712   7
   6  -5   9-33.7694 87.4003   8
  -5  -6   9-10.7370 80.4570   8
  -6  -5   9-19.1859 80.6980   8
   6   5  -9 198.532 83.4961   3
   6   5  -9 160.171 73.8472   2
   5   6  -9 90.6122 73.8913   2
  -5   6  -9 45.7679 67.4823   4
   6  -5   9-9.92798 90.4431   7
   5  -6   9-12.1196 85.3354   8
   6   5  -9 264.342 78.6608   6
   6  -5   9 10.1496 72.4343   6
   6  -5  10 20.3992 81.3593   6
   6   5 -10 196.650 90.5018   2
  -6   5 -10 260.459 96.3579   3
   6   5 -10 195.971 90.3511   3
   6  -5  10-11.5321 97.1170   5
   6   5 -10 304.265 88.6218   6
   5   6 -10 103.118 82.8899   2
  -5   6 -10 153.421 86.1657   2
   5  -6  10-9.19124 76.2394   6
   6   5 -10 27.1811 81.3461   7
  -5  -6  10-33.6877 98.4759   5
   5  -6  10 8.94829 92.3456   7
  -6   5 -10 273.285 100.556   4
  -6  -5  10-9.84169 90.6781   5
   6  -5  10-11.8619 98.4374   8
   6  -5  10-9.98157 93.3146   7
   5   6 -10 202.992 91.3288   3
  -6   5 -10 148.343 87.2020   2
  -6  -5  10 51.2402 96.0176   8
   5  -6  10-38.0149 102.532   8
  -5  -6  10 45.2976 103.254   8
  -5   6 -10 60.8228 78.2231   4
   5  -6  10-12.6885 99.4671   5
   5  -6  11 26.4972 141.298   8
   5  -6  11-18.3683 114.832   6
   5  -6  11 26.9370 126.174   7
  -6   5 -11 325.218 134.820   4
  -5  -6  11 11.9376 136.538   8
  -6  -5  11 10.4892 128.116   5
  -5  -6  11-11.6164 132.299   5
   6  -5  11 84.9718 130.294   5
   5   6 -11 181.049 126.451   3
  -5   6 -11 290.726 130.528   2
  -6   5 -11 342.876 131.900   3
   6  -5  11 112.978 123.714   6
  -6   5 -11 238.938 126.218   2
   6  -5  11 31.2723 127.073   7
   6  -5  11-12.4929 133.695   8
   6   5 -11 350.487 130.411   3
   5  -6  11-13.1174 132.702   5
   6   5 -11 393.705 127.110   2
  -5   6 -11 189.836 122.588   4
  -6  -5  11-10.9311 129.527   8
   5   6 -11 235.591 123.863   2
   5  -6  12 9.19754 63.2679   6
  -6   5 -12 90.1862 84.0052   4
   6   5 -12 251.389 81.7377   2
  -5   6 -12 66.5195 81.5011   3
  -6   5 -12 133.868 82.7653   3
   5  -6  12 40.3670 90.8584   5
  -5  -6  12 12.0675 90.0218   5
   6  -5  12 25.1938 89.9176   5
   5  -6  12 9.32402 86.8149   7
   6   5 -12 142.838 77.0597   3
  -6  -5  12 33.4595 87.2774   5
  -6   5 -12 12.1996 284.392   1
   6  -5  12 13.1419 101.129   8
   5  -6  12 41.5387 101.282   8
   6  -5  12-10.3590 88.5445   7
  -5   6 -12 132.431 79.7225   2
   5   6 -12 112.697 82.3748   3
  -5   6 -12 113.783 71.5953   4
  -6  -5  12-11.6300 96.6664   8
   5   6 -12 111.363 74.4671   2
  -6   5 -12 75.4790 75.0195   2
   6  -5  12 10.3608 70.6317   6
  -5  -6  12 25.1519 94.0584   8
  -6  -5  13 246.923 338.016   8
  -6   5 -13 662.709 337.412   4
   6  -5  13 94.1181 331.621   7
   6  -5  13 370.334 338.969   5
  -5  -6  13 39.6875 333.081   8
  -5   6 -13 734.237 337.975   3
  -5   6 -13 494.597 330.857   4
  -5  -6  13 76.1412 333.445   5
   6  -5  13 124.245 334.280   8
   5  -6  13-43.3747 337.229   8
  -6   5 -13 535.167 334.489   2
  -6  -5  13 264.401 333.408   5
  -6   5 -13 12.3718 436.674   1
   5  -6  13 70.2300 333.232   5
   5   6 -13 685.944 336.204   3
  -5   6 -13 925.567 341.691   2
   6   5 -13 712.543 335.337   2
   6   5 -13 813.984 335.792   3
   5   6 -13 878.709 338.885   2
  -6   5 -13 590.454 336.092   3
   6  -5  13 356.015 332.295   6
   6  -5  14-13.8671 89.6733   5
  -5   6 -14 10.2460 71.6688   3
   6  -5  14 43.4260 102.428   8
   5   6 -14 94.7229 70.3498   3
  -5  -6  14 13.3251 81.6067   5
  -6   5 -14 108.028 76.0485   3
   5   6 -14 70.0722 64.6387   2
   5  -6  14 15.0851 104.040   8
  -5   6 -14 151.631 71.4937   2
  -6   5 -14-12.5171 288.900   1
  -5  -6  14-13.8961 94.9710   8
   5  -6  14-14.4545 88.2710   5
  -6  -5  14 64.2219 100.116   8
   6   5 -14 92.0263 61.9179   2
   6   5 -14 80.7961 63.5156   3
  -6   5 -14 49.2840 76.1551   4
  -6   5 -14-10.3914 62.1367   2
   6  -5  14-32.0071 83.7772   7
  -6  -5  14 50.8663 83.5918   5
   6  -5  14 81.1156 65.9627   6
   6  -5  15 250.556 318.751   5
  -6   5 -15 472.938 314.685   3
  -5  -6  15 111.740 313.688   5
   5  -6  15 60.2306 312.777   5
   5   6 -15 764.992 319.049   3
  -5  -6  15 29.1528 314.417   8
   5   6 -15 734.939 318.149   2
   6  -5  15 242.482 321.474   8
  -6  -5  15 189.915 319.312   8
  -5   6 -15 654.678 316.926   2
  -5   6 -15 640.518 318.697   3
  -6   5 -15 456.998 312.381   2
  -6  -5  15 96.4482 313.367   5
   5  -6  15 15.7208 320.293   8
   6   5 -15 806.607 317.288   2
   6   5 -15 637.910 315.647   3
  -6   5 -16 108.153 87.3239   3
   6  -5  16 15.5652 113.236   8
   6  -5  16-46.1818 98.9619   5
  -5   6 -16 188.726 90.9586   3
   5  -6  16 62.6732 112.783   5
   5   6 -16 104.713 79.5144   3
   6   5 -16 41.3380 73.3336   3
   5  -6  16 16.3603 125.562   8
  -6   5 -16 44.4287 80.3613   2
  -6  -5  16 28.5726 117.391   8
  -6  -5  16 14.5053 96.8027   5
   5   6 -16 150.349 77.2131   2
  -5  -6  16 44.5327 107.962   5
  -5   6 -16 46.9936 81.7111   2
  -5  -6  16-91.5571 143.755   8
   6   5 -17 11.4031 54.3064   3
   5   6 -17-21.8830 57.4882   3
   6  -5  17-32.4688 119.474   8
   5  -6  17 16.2800 94.2098   5
  -6  -5  17 31.4309 86.8430   5
   6  -5  17 16.0527 91.5201   5
   5  -6  17-17.0056 139.149   8
  -6   5 -17-22.5633 66.2587   3
  -5  -6  17 77.5309 92.3348   5
  -5   6 -17 11.5368 61.6825   3
  -6   5 -17-23.1736 57.5249   2
  -6  -5  17-15.0076 111.448   8
  -5   6 -17-12.2087 52.8487   2
   5   6 -17-22.4528 64.9870   2
  -5  -6  17 47.8379 118.413   8
  -6   5 -18 85.1285 71.5201   3
   5  -6  18-17.1516 91.7464   5
   6  -5  18 33.8103 127.812   8
  -6  -5  18-14.6091 99.4678   8
   5   6 -18-47.2678 62.1977   3
  -5   6 -18 61.9017 77.8123   2
  -6  -5  18-32.9299 102.113   5
   6  -5  18 34.3093 91.7627   5
  -5  -6  18-49.0400 123.594   8
   5   6 -18 23.4186 57.0868   2
   5  -6  18-17.6477 122.644   8
  -5   6 -18-24.1110 66.7433   3
   6   5 -18-11.9514 58.2602   3
  -5  -6  18 33.1986 94.7111   5
   5   6 -19 455.219 258.345   3
  -6  -5  19 258.146 264.333   5
   5   6 -19 438.978 256.856   2
   6  -5  19 481.213 271.976   5
   5  -6  19 251.654 273.694   8
   6   5 -19 374.812 252.659   3
  -6   5 -19 379.141 253.308   3
  -5   6 -19 337.279 255.676   3
   5  -6  19 53.3099 261.885   5
  -5  -6  19 374.459 277.991   8
   6  -5  19 316.248 278.257   8
  -5  -6  19 172.744 262.294   5
  -6  -5  19 320.773 265.896   8
  -5  -6  20-18.5170 121.384   5
  -6   5 -20 110.186 104.678   3
   6   5 -20 81.8659 99.6141   3
  -6  -5  20 18.2610 108.766   5
   5   6 -20 191.780 104.326   3
  -5  -6  20 88.4490 146.800   8
  -6  -5  20 15.9329 133.613   8
   6  -5  20 228.864 128.157   5
  -5   6 -21 96.0419 156.993   2
   5  -6  21 307.578 210.127   8
   5  -6  21 292.453 183.572   5
  -6  -5  21 76.0194 165.968   5
   5   6 -21 236.881 160.734   3
  -5  -6  21 115.252 176.172   5
   6   5 -21 142.012 147.651   3
  -6  -5  21 464.383 200.623   8
   6  -5  22-40.8293 96.6830   5
   6  -5  22-18.1330 124.637   8
  -5   6 -22-28.5375 77.0322   3
   5  -6  22 60.3342 110.755   5
  -5  -6  22 19.0113 156.572   8
  -5   6 -22 84.9455 90.6336   2
   5  -6  22 138.832 157.212   8
  -6   5 -22 29.4883 83.4029   3
   6  -5  23 18.7170 122.190   8
  -5  -6  23-20.9177 114.120   5
   5   6 -23 46.8562 78.1372   3
  -5   6 -23 46.3224 91.1937   3
  -6  -5  23-17.8557 138.730   8
   6  -5  23 42.8701 97.9792   5
  -6   5 -23-15.9336 79.6865   3
   5  -6  23-20.4331 143.705   8
  -5  -6  23 19.6501 143.620   8
   5  -6  23 21.3703 114.625   5
   6   5 -24 48.2751 64.6129   3
   5  -6  24 105.126 149.293   8
   5  -6  24 65.9412 109.480   5
  -6   5 -24-32.8333 73.5007   3
  -5   6 -24-15.8875 77.8436   3
  -5  -6  24-18.8441 139.001   8
   6  -5  24 44.1706 93.4817   5
  -6  -5  24 18.4754 144.666   8
   5   6 -24 32.2447 77.3396   3
  -5  -6  24-43.1703 111.712   5
  -6  -5  24 21.5613 88.7467   5
   6  -5  24-19.2898 137.027   8
   6  -5  25 22.7199 112.627   5
  -6   5 -25 84.4626 94.7789   3
  -5  -6  25 66.7056 121.199   5
  -6  -5  25 381.544 182.569   8
   5   6 -25 16.6093 92.1776   3
  -5   6 -25 65.2741 104.454   3
   5  -6  25 45.1618 116.468   5
  -5  -6  25 194.154 170.993   8
   6  -5  25 39.6916 150.607   8
   5  -6  25 151.217 184.982   8
  -6  -5  25-22.2562 115.106   5
   6   5 -25 33.2280 87.6638   3
  -5  -6  26 119.870 152.581   8
   5  -6  26 66.4827 182.416   8
   6  -5  26 95.1312 128.359   5
   5  -6  26 70.7052 135.585   5
   6  -5  26 81.5506 148.870   8
  -6  -5  26 98.3519 152.832   8
  -6   5 -26-17.3483 91.0653   3
   6   5 -26-51.3846 78.0041   3
   5   6 -26 102.533 96.0352   3
  -5   6 -26 52.5786 99.7863   3
  -5  -6  26-23.3156 117.171   5
  -5  -6  27 143.659 150.994   8
   5  -6  27 48.2867 132.520   5
  -6  -5  27 80.9551 164.523   8
  -6   5 -27 72.4320 94.0625   3
  -5  -6  27 71.8412 122.690   5
  -5   6 -27 71.8181 111.987   3
   5   6 -27 53.5825 96.3950   3
   5  -6  27 68.1127 173.140   8
   6  -5  27 20.9145 164.447   8
   6  -5  27 24.3918 106.958   5
  -5   6 -28 18.3703 73.5664   3
   6  -5  28 24.9749 96.4718   5
  -5  -6  28-24.5548 114.691   5
   5   6 -28-18.3147 83.8500   3
  -6   5 -28 74.1762 86.8563   3
   5  -6  28 23.2317 153.208   8
   5  -6  28 49.3815 115.321   5
  -6  -5  28-62.3715 154.673   8
  -5  -6  28-42.0935 159.332   8
   6  -5  28 85.6779 163.530   8
  -5   6 -29 38.1928 79.6483   3
  -5  -6  29 64.6628 148.971   8
   6  -5  29 21.9069 161.937   8
  -6  -5  29 63.9749 154.810   8
   5  -6  29-118.674 167.235   8
   6  -5  29-25.5379 96.0681   5
  -6   5 -29 18.9650 64.3112   3
   5   6 -29 18.7582 78.2920   3
   5  -6  29 77.1115 120.619   5
  -5  -6  29 50.2870 112.639   5
   5  -6  30-48.4390 186.135   8
  -6   5 -30 77.4681 94.1439   3
   6  -5  30-67.1293 170.532   8
  -5  -6  30 88.1786 159.233   8
   5  -6  30-26.2227 127.463   5
  -5   6 -30-19.4852 79.7209   3
   5   6 -30-19.1828 102.501   3
   5  -6  31-26.7212 106.759   5
   5  -6  31 24.6765 175.275   8
  -5  -6  31-45.0205 156.819   8
   6  -5  31-68.4481 163.701   8
  -5   6 -31 119.093 97.2596   3
  -5   6 -32-40.3981 82.9216   3
  -5  -6  32-22.9567 174.080   8
   5  -6  32-100.452 196.216   8
   6  -6   5-32.7129 66.1644   7
   6  -6   6-10.9433 52.5516   5
  -6  -6   6-9.17907 51.1997   5
   6  -6   6-10.8131 62.9568   7
   6  -6   7-21.3168 63.4531   7
   6   6  -7-7.34747 17.8743   2
   6  -6   7 11.3859 56.4877   5
  -6  -6   7-9.64241 54.1230   5
  -6   6  -7 8.66561 24.3308   2
  -6   6  -7 17.6000 30.2553   4
   6  -6   7-11.2985 40.4251   8
   6   6  -8 23.2313 50.2231   2
  -6   6  -8-9.03745 51.9461   2
   6  -6   8-11.8697 78.1872   5
  -6  -6   8-10.0621 66.3717   8
  -6  -6   8-10.1044 69.4913   5
   6  -6   8 11.7819 63.2477   8
   6  -6   8-21.0763 79.3468   7
  -6   6  -8 184.108 65.0776   4
   6  -6   9-10.5681 32.6306   6
   6  -6   9 10.5201 66.5800   7
   6   6  -9-57.0615 36.3057   2
   6  -6   9 24.6496 71.8268   5
  -6  -6   9-10.6221 57.4124   8
   6  -6   9 12.3028 59.1786   8
  -6  -6   9-10.5421 60.7075   5
  -6   6  -9 8.74874 38.8180   4
   6   6  -9-6.16831 39.6665   6
  -6   6  -9-9.40915 34.7597   2
   6  -6  10 10.5696 35.6944   6
   6   6 -10 17.0284 36.7268   2
   6   6 -10 38.6743 49.1944   3
  -6  -6  10 10.9214 64.6049   5
  -6   6 -10 9.83033 43.2639   2
  -6   6 -10-26.1787 44.0264   4
   6  -6  10-10.2935 63.4644   7
   6  -6  10-12.7330 66.1316   5
   6  -6  10 51.4190 71.4620   8
  -6  -6  10 22.4290 63.4502   8
   6   6 -11 17.9719 42.3747   2
   6  -6  11 10.5878 37.0287   6
   6   6 -11 32.6599 51.0517   3
  -6  -6  11 11.8387 72.7289   8
  -6  -6  11-11.5207 69.8640   5
   6  -6  11 72.4837 75.8046   7
  -6   6 -11-9.21512 54.5215   3
  -6   6 -11-10.1583 43.3052   2
   6  -6  11 26.5949 70.1463   5
   6  -6  11-40.2943 85.6022   8
  -6   6 -11 8.73709 47.9711   4
   6  -6  12 10.6225 159.769   6
   6  -6  12-14.0286 176.147   8
   6  -6  12 53.8859 172.641   7
   6   6 -12 408.982 173.839   3
   6  -6  12 68.1604 172.376   5
  -6  -6  12 47.9240 172.201   5
   6   6 -12 350.197 169.190   2
  -6   6 -12 307.680 169.188   2
  -6   6 -12 452.235 177.525   3
  -6  -6  12 24.9646 173.190   8
  -6   6 -12 394.469 171.851   4
   6   6 -13 17.9328 52.7255   3
   6  -6  13-14.2189 77.3335   5
   6  -6  13-10.6786 39.7696   6
  -6   6 -13-8.65498 47.9163   4
  -6   6 -13 20.0849 68.3808   3
  -6  -6  13 12.6109 75.1382   5
   6  -6  13-32.0088 77.1312   7
   6   6 -13 9.70559 43.1814   2
   6  -6  13 14.6395 90.7611   8
  -6   6 -13 10.7667 47.8782   2
  -6  -6  13 13.1439 85.5726   8
  -6   6 -14 466.304 268.257   3
  -6  -6  14 55.2910 265.098   8
   6  -6  14 43.8803 266.227   5
   6   6 -14 593.862 267.658   3
  -6  -6  14-13.2518 264.717   5
  -6   6 -14 561.345 268.453   2
   6   6 -14 717.136 269.603   2
   6  -6  14-15.2656 271.715   8
  -6  -6  15 14.1190 90.8680   5
   6  -6  15 15.8975 99.8327   8
   6  -6  15 15.2305 90.7506   5
  -6  -6  15-14.5078 114.316   8
   6   6 -15 20.9108 57.8905   2
  -6   6 -15-32.3519 66.9330   3
  -6   6 -15-11.4123 56.7505   2
   6   6 -15-19.9215 55.1646   3
  -6  -6  16 133.070 139.212   5
  -6   6 -16 145.805 122.053   3
   6  -6  16-15.8390 132.659   5
  -6  -6  16 121.593 146.700   8
   6   6 -16 219.105 124.439   2
   6   6 -16 219.181 122.272   3
   6  -6  16 33.0767 157.396   8
  -6   6 -16 142.436 118.887   2
  -6  -6  17-15.8947 107.542   8
   6  -6  17 17.1827 121.065   8
  -6   6 -17-49.3273 70.1130   2
   6   6 -17 11.1933 61.8507   2
  -6  -6  17-15.8677 98.9522   5
   6  -6  17 16.7014 110.484   5
  -6   6 -17-23.3043 68.3349   3
   6   6 -17-22.6008 64.4053   3
  -6   6 -18 166.315 168.362   2
   6   6 -18 338.860 171.153   2
   6  -6  18 173.221 183.619   5
  -6  -6  18 116.126 193.943   8
  -6   6 -18 182.524 168.701   3
   6   6 -18 377.404 172.750   3
   6  -6  18 71.2919 197.735   8
  -6  -6  18 49.6668 174.743   5
  -6  -6  19 17.2432 101.577   5
  -6   6 -19 37.8171 72.3613   3
   6   6 -19 24.5725 65.0762   3
   6  -6  19-35.8724 102.589   5
  -6  -6  19 50.9576 124.139   8
   6   6 -19-12.1755 63.3587   2
  -6  -6  20 158.967 234.649   8
   6   6 -20 379.875 217.521   2
   6   6 -20 375.732 217.577   3
  -6  -6  20 55.4723 215.765   5
   6  -6  21-19.6605 118.918   5
  -6   6 -21 13.9417 84.5146   3
  -6  -6  21-19.1890 104.580   5
   6  -6  21-38.7764 138.941   8
  -6   6 -21-13.8333 78.0459   2
   6   6 -21-13.9274 79.7771   3
  -6   6 -22 57.0646 101.462   2
  -6  -6  22-37.9961 130.219   8
  -6   6 -22 71.8999 87.0795   3
   6  -6  22 125.519 122.615   5
   6  -6  22 79.9819 157.797   8
  -6  -6  23-41.8299 97.3288   5
  -6  -6  23 78.5900 141.912   8
   6  -6  23 82.3872 144.497   8
  -6   6 -23 15.5559 84.5338   3
   6   6 -23-31.2467 67.5655   3
  -6   6 -23 14.6951 86.2542   2
   6  -6  23-64.6168 108.964   5
  -6   6 -24 111.963 102.487   3
  -6  -6  24 81.1519 154.620   8
   6   6 -24 80.6526 99.1882   3
  -6  -6  24-43.1814 124.388   5
   6  -6  24 211.838 174.705   8
  -6   6 -24 181.363 115.990   2
   6  -6  24 22.1502 120.838   5
   6  -6  25-21.7535 155.055   8
  -6  -6  25 22.6767 111.510   5
   6  -6  25-46.2839 122.665   5
  -6  -6  25 20.9102 144.724   8
   6   6 -25-66.5077 85.7990   3
  -6   6 -25-16.4277 92.3099   3
   6  -6  26 166.087 126.961   5
   6   6 -26 34.8104 90.9491   3
  -6  -6  26 23.3274 106.551   5
   6  -6  26 44.6297 179.168   8
  -6  -6  26 79.9555 154.065   8
  -6   6 -26 52.9158 96.7864   3
   6   6 -27 17.8875 78.1100   3
   6  -6  27-22.8558 152.501   8
  -6  -6  27 20.5400 134.069   8
  -6   6 -27 18.0650 86.6343   3
   6  -6  27 72.8861 110.989   5
  -6  -6  27-23.9670 101.463   5
  -6   6 -28 36.9466 91.6565   3
   6  -6  28 93.4948 182.606   8
  -6  -6  28-21.0708 159.218   8
   6  -6  28-24.8394 107.435   5
  -6  -6  28-24.5829 119.497   5
   6   6 -28-18.3473 63.0805   3
  -6   6 -29-38.3979 112.608   3
   6   6 -29-37.5856 104.452   3
  -6  -6  29-86.3407 168.451   8
   6  -6  29-47.7476 198.787   8
   6  -6  29-284.465 148.466   5
   6  -6  30 194.844 195.848   8
  -6  -6  30 66.2278 156.168   8
  -6   6 -30-19.5819 84.8336   3
   6  -6  30-26.3674 118.700   5
  -6   6 -31-19.9462 86.2879   3
  -6  -6  31-22.5552 150.132   8
   6  -6  31-26.8624 106.628   5
   6  -6  31 124.071 175.830   8
  -6   6 -32-20.2906 71.3422   3
   6  -6  32-25.2482 166.842   8
  -7   0   0 6.96242 46.5413   4
   7   0   0-8.45380 41.3183   6
   7   0   0 29.3424 58.3853   7
   7   0   1 581.749 415.497   6
   7   0  -1 784.527 420.526   7
  -7   0  -1 577.675 415.076   4
  -7   0   1 566.111 414.794   4
   7   0  -1 414.634 413.262   6
   7   0   1 752.340 421.895   7
  -7   0   2 7.38125 47.4874   4
   7   0  -2-18.5401 53.3635   7
   7   0  -2 27.1630 35.5906   6
   7   0   2-8.58641 41.5378   6
  -7   0  -2 41.6543 49.7572   4
  -7   0  -3 147.860 239.912   2
   7   0   3 493.644 242.845   8
   7   0   3 785.193 257.659   6
   7   0  -3 1166.75 264.999   7
  -7   0  -3 761.643 254.911   4
  -7   0   3 595.091 254.353   4
   7   0  -3 565.211 252.115   6
  -7   0   4 1.83825 12.5438   8
   7   0   4 40.8749 55.6293   7
   7   0   4 3.10864 28.2934   8
  -7   0   4 7.48105 42.1173   4
   7   0  -4 18.7302 61.0186   7
   7   0   4-17.7521 39.5222   6
   7   0  -4 28.1918 38.5842   6
   7   0  -5 28.0957 62.3933   7
  -7   0   5 15.3483 60.4056   4
   7   0   5 52.4858 73.1995   7
  -7   0   5 77.9345 44.4571   8
   7   0   5 81.4394 64.3511   6
   7   0   5 60.9913 49.9949   8
   7   0  -5 9.39887 51.8875   6
   7   0  -6 9.42386 29.0307   6
  -7   0   6-3.02813 18.0774   8
   7   0   6-21.6887 55.3691   7
   7   0  -6 18.9291 56.8360   7
   7   0   6 37.3444 51.2831   6
  -7   0   6 7.83317 43.2198   4
   7   0   6 28.1170 31.2591   8
   7   0   7 240.493 76.8665   8
  -7   0  -7-129.123 256.890   1
   0  -7   7-34.8424 77.9775   5
   0   7  -7-8.84363 67.6163   2
   7   0  -7 9.47131 68.9259   6
  -7   0   7 39.4697 76.1330   4
   7   0   7 143.131 86.3220   6
   7   0   7 66.5059 87.7791   7
   7   0  -7 28.5381 80.3129   7
   0  -7   7 11.5075 76.0328   8
  -7   0   7 170.079 70.6206   8
   0   7  -8 18.3585 30.4186   2
   0  -7   8 36.1475 64.4774   5
   7   0  -8-19.3365 61.5258   7
  -7   0   8 15.9114 35.4824   4
   7   0   8-19.8447 54.9293   6
   7   0   8-45.8522 83.6515   7
   7   0   8-30.3881 46.4668   8
  -7   0   8 8.41774 26.3251   8
  -7   0  -8-52.8692 287.921   1
   0  -7   8-11.9455 65.0135   8
   0  -7   9-12.4208 57.8107   8
   0   7  -9 9.51605 34.0575   2
   0  -7   9-12.5218 62.1258   5
   7   0   9 40.6458 54.3014   6
   7   0  -9-9.76353 56.4932   7
   7   0   9-11.7388 63.7996   7
   7   0  10 12.5615 40.4183   8
   0  -7  10-52.1067 59.2500   5
   0  -7  10 38.7866 72.5810   8
   7   0  10 24.0838 52.1035   7
   7   0  10-10.4118 59.3646   6
   0   7 -10-9.90504 41.7264   2
   7   0 -10-9.89135 58.9052   7
  -7   0 -10-222.064 232.061   1
   0  -7  11-26.9300 242.975   8
  -7   0 -11 28.4674 312.122   1
   0  -7  11-13.4893 243.754   5
   7   0 -11-10.0300 235.425   7
   7   0  11 838.643 256.029   6
   7   0  11 74.0800 238.220   7
   0  -7  12 13.8909 67.5225   5
   7   0  12 7.26851 40.8042   8
   7   0  12-11.0281 55.7982   6
   7   0  12-12.6847 59.0363   7
   0  -7  12 14.0237 91.2416   8
   0   7 -12-21.2561 44.7461   2
   7   0  13 758.114 474.333   6
  -7   0 -13-14.9824 496.437   1
   0  -7  13 43.3671 466.388   5
   0  -7  13 14.6014 467.188   8
   0   7 -14 41.7905 62.3289   3
   7   0  14 11.6102 55.1672   6
   0  -7  14-14.7643 94.4550   5
   0   7 -14 11.1968 49.6895   2
   0  -7  14 30.3894 106.115   8
   7   0  14 8.42452 49.9963   8
   0  -7  15 63.1960 407.449   8
   7   0  15 755.605 403.990   8
   0  -7  15-30.6885 401.430   5
   0   7 -15 1352.16 414.459   2
   0   7 -15 803.847 408.621   3
   7   0  15 345.587 402.116   6
   0  -7  16-15.7247 81.1236   5
   0   7 -16-33.5049 68.3734   3
   0   7 -16 35.4123 59.7946   2
   0  -7  16-32.8217 101.726   8
   0   7 -17 81.1143 118.952   3
   0  -7  17-48.9316 144.909   5
   0   7 -17 330.732 131.159   2
   0  -7  17-68.1227 145.121   8
   0  -7  18 17.6494 131.515   8
   0   7 -18-38.0893 67.5091   2
   0   7 -18-23.9998 76.2767   3
   0  -7  18-50.7026 94.1644   5
   0   7 -19 111.778 88.6664   3
   0  -7  19-34.9790 116.311   5
   0  -7  21-38.3318 133.395   8
   0   7 -21 164.489 97.2166   2
   0  -7  21-18.9457 126.626   5
   0   7 -22-70.6640 106.865   2
   0  -7  22-177.868 171.267   8
   0   7 -22-113.983 110.160   3
   0  -7  22-40.0997 128.876   5
   0   7 -23-29.1109 77.9169   2
   0   7 -23 14.6720 81.1917   3
   0  -7  23-20.6383 119.492   5
   0  -7  23 20.3489 144.259   8
   0   7 -24 14.9687 84.0420   2
   0  -7  24 21.2172 119.084   5
   0  -7  24 146.511 159.583   8
   0   7 -24 45.2597 83.2863   3
   0   7 -25 309.234 223.570   3
   0  -7  25 157.331 241.613   5
   0   7 -25 461.231 230.967   2
   0  -7  25-21.4911 245.492   8
   0   7 -26 47.3020 86.6799   2
   0  -7  26-22.0450 161.258   8
   0   7 -26 33.3785 87.0316   3
   0  -7  26-46.0868 121.685   5
   0  -7  27 225.796 218.038   8
   0  -7  27 47.2067 193.375   5
   0   7 -27 290.571 180.922   3
   0  -7  28 23.0994 174.621   8
   0  -7  28-24.5610 111.799   5
   0   7 -28 18.3066 83.4071   3
   0   7 -29 130.888 120.444   3
   0  -7  29 165.181 197.630   8
   0  -7  29-25.0899 134.754   5
   0   7 -30 38.1655 88.0208   3
   0  -7  30 96.3380 175.615   8
   0  -7  30-25.5944 141.149   5
   0  -7  31 24.5373 188.580   8
   0   7 -31 59.3433 100.236   3
   0  -7  31 53.1617 125.672   5
   0   7 -32 20.1293 83.3002   3
   0  -7  32-27.0455 122.301   5
   0  -7  32 149.869 199.655   8
   7   1   0 2329.25 183.926   7
   7  -1   0 2270.55 178.111   7
  -7  -1   0 1366.91 137.295   4
  -7  -1   0 2008.26 252.820   1
   7  -1  -1 724.957 454.458   7
  -7   1  -1 637.069 445.255   3
   7   1   1 633.300 454.186   7
   7  -1   1 698.403 446.180   5
  -7   1  -1 757.147 452.641   4
  -7  -1  -1 319.114 448.768   4
  -7  -1   1 656.684 451.247   4
   7   1  -1 934.331 458.083   7
  -7   1   1 684.516 451.902   4
   7   1  -1 909.686 455.021   6
   7  -1   1 582.176 451.835   6
  -7  -1  -1 637.067 492.502   1
   7   1   1 617.815 451.548   6
   7  -1  -1 361.948 449.682   6
  -7  -1  -2 35.4441 385.117   1
  -7   1   2 473.800 333.910   4
   7  -1   2 575.045 328.814   5
   7  -1   2 352.383 333.184   6
  -7  -1   2 303.096 331.560   4
   7  -1  -2 330.810 334.178   7
   7   1   2 490.301 336.260   7
   7   1  -2 822.635 341.935   7
   7  -1   2 625.154 341.057   7
   7   1  -2 555.651 335.235   6
   7   1   2 474.430 334.639   6
  -7   1  -2 613.932 336.895   4
   7  -1  -2 136.705 330.424   6
   7  -1  -3 29.3128 180.478   6
   7  -1   3 425.203 182.486   5
   7  -1   3 491.590 198.787   7
   7   1   3 249.183 188.118   6
  -7   1  -3 2.74107 177.359   2
   7  -1   3 3.57717 178.285   8
  -7   1   3 255.088 185.935   4
  -7   1  -3 415.195 180.135   3
   7   1   3 424.660 179.593   8
   7  -1  -3 88.3247 188.475   7
  -7   1  -3 458.871 193.574   4
  -7  -1   3 332.303 190.661   4
   7   1  -3 804.164 203.712   7
   7  -1   3 389.515 190.246   6
   7   1  -3 458.649 191.300   6
  -7   1  -4 3.10090 25.3525   2
  -7  -1   4-7.12327 50.7740   4
  -7   1   4 8.13938 41.2294   4
   7  -1   4 26.9021 41.8950   6
   7   1   4 72.7668 53.4324   6
  -7  -1   4 16.5371 28.0426   8
   7   1   4 36.9692 26.7034   8
  -7   1  -4 57.9439 28.0740   3
  -7   1  -4 29.5052 51.3167   4
   7  -1  -4-9.80128 39.4930   6
   7   1  -4 71.5102 60.2805   7
   7  -1  -4 19.6840 61.3429   7
   7  -1   4-8.62333 38.9855   8
   7  -1   4 38.7942 32.0218   5
   7  -1   4 30.6590 57.5481   7
   7   1  -4 26.1911 43.6572   6
  -7  -1   5 248.926 126.271   8
   7  -1   5 199.899 130.565   8
  -7   1  -5-12.2692 267.096   1
   7  -1  -5-9.85568 127.164   6
  -7   1  -5 210.977 135.969   4
   7   1   5 189.225 137.396   6
   7   1   5 227.084 141.124   7
   7   1   5 199.425 124.855   8
  -7  -1  -5-201.699 255.159   1
   7  -1   5 300.832 145.595   7
   7   1  -5 417.525 145.547   7
  -7  -1   5 127.478 133.961   4
  -7   1  -5 255.384 126.379   3
   7  -1  -5-9.98337 134.067   7
  -7   1  -5 57.1499 123.496   2
   7  -1   5 238.809 129.202   5
   7  -1   5 306.231 138.593   6
  -7   1   5 24.5560 127.229   4
   7   1  -5 163.293 134.680   6
   7  -1   6 290.077 144.962   8
   7   1   6 116.290 146.465   6
   7  -1   6 157.666 141.245   5
  -7   1  -6-125.142 290.905   1
   7  -1  -6-10.0599 143.255   7
   7  -1   6 158.036 152.207   7
  -7  -1   6 248.827 139.464   8
  -7   1  -6 214.240 138.694   3
  -7   1  -6 251.397 150.710   4
   7   1  -6 440.876 155.416   7
  -7  -1  -6 142.103 249.771   1
  -7  -1   6 72.0326 143.832   4
   7  -1   6 283.838 150.508   6
   7   1   6 190.330 149.086   7
   7   1   6 267.670 139.122   8
   7   1  -6 36.1606 140.145   6
  -7   1   6 8.26897 138.720   4
  -7   1  -7-127.523 289.736   1
   7   1   7 183.643 141.276   7
   7  -1   7 251.632 134.528   6
   1  -7   7-11.7562 127.164   5
  -7  -1   7 217.389 125.299   8
   7  -1   7 162.157 135.519   7
   7   1  -7 440.317 141.778   7
   7   1   7 150.096 132.818   6
   1   7  -7 8.74327 120.502   2
   7   1  -7 9.03112 123.606   6
  -7  -1   7 73.8228 127.674   4
  -7   1  -7 189.111 124.227   3
   7  -1   7 224.738 127.767   5
   7   1   7 323.975 125.700   8
  -7  -1  -7 92.7397 249.742   1
   7  -1   7 263.269 128.916   8
   7  -1  -7 40.6840 132.122   7
  -1  -7   7-11.4816 125.740   5
  -7   1  -7 194.005 132.707   4
   7   1   8 504.332 183.878   8
   1   7  -8 18.1605 179.070   2
   1  -7   8 12.1898 185.670   5
   7   1  -8 9.04716 179.713   6
  -7  -1   8 60.2130 182.974   4
  -1  -7   8 83.4335 190.414   5
   7  -1   8 307.458 187.872   5
   7   1   8 256.594 192.232   6
   7   1   8 106.077 190.440   7
   7   1  -8 604.089 201.710   7
  -7  -1   8 472.157 183.427   8
  -7   1  -8 310.193 183.558   3
   7  -1   8 608.128 200.971   6
   7  -1  -8 10.2928 182.592   7
   7  -1   8 308.639 201.421   7
  -1  -7   8 11.8135 186.501   8
   7   1   9 205.971 247.306   7
  -7  -1  -9-153.492 318.183   1
  -1  -7   9 12.2922 243.347   8
  -1  -7   9-12.3939 246.530   5
   1  -7   9-25.3207 243.700   5
  -7  -1   9-22.7382 239.249   4
  -7   1  -9-861.571 382.973   1
   1   7  -9 687.657 252.446   2
   7   1  -9 9.08419 239.852   6
   7   1  -9 525.012 253.408   7
   7  -1   9 1460.68 269.210   6
   7  -1   9 649.110 257.335   7
   7   1   9 389.733 251.974   6
  -7  -1   9 1083.91 251.715   8
  -7  -1 -10 28.6560 248.099   1
   7  -1  10 294.064 187.698   7
   1   7 -10 392.456 180.101   2
   7  -1  10 703.901 187.944   8
   7   1  10 12.4398 172.443   7
  -7   1 -10 164.387 172.529   3
   7   1 -10 238.774 177.966   7
  -7   1 -10 121.944 303.509   1
   7   1  10 240.814 182.387   6
   1  -7  10-13.1627 177.557   5
   7  -1  10 430.757 183.384   6
  -1  -7  10 38.7041 179.420   5
   7  -1  10 392.346 182.963   5
  -1  -7  10-25.6062 179.226   8
   1  -7  11-13.6213 225.374   5
  -1  -7  11-26.6835 225.253   8
  -1  -7  11-13.3673 222.551   5
   7  -1  11 449.247 229.516   5
   7  -1  11 626.649 227.404   8
  -7  -1  11 569.709 222.932   8
  -7   1 -11 263.438 327.992   1
  -7   1 -11 174.544 217.059   3
   7   1 -11 111.197 223.305   7
   7  -1  11 583.996 233.527   6
   7   1  11 101.177 222.454   6
   1   7 -11 748.461 233.230   2
   7  -1  11 228.569 226.086   7
  -7   1 -12 111.712 251.293   3
  -1  -7  12-55.6205 260.979   8
   7  -1  12 86.2853 254.065   7
   1  -7  12 42.0557 258.215   5
   7  -1  12 683.441 268.986   5
  -7  -1  12 1265.32 265.907   8
   7   1 -12 85.0951 254.689   7
   7  -1  12 933.289 271.489   6
   7   1  12 115.464 256.616   6
   7  -1  12 1253.86 273.073   8
  -7   1 -12 198.757 341.775   1
  -1  -7  12 13.7736 257.126   5
   7  -1  13 311.749 174.163   5
  -7   1 -13-101.790 272.994   1
  -1   7 -13 404.969 175.845   3
   1   7 -13 259.131 174.989   3
   1  -7  13 29.1605 170.197   5
   7  -1  13 251.024 172.502   6
  -1  -7  13 28.9730 177.163   8
   7  -1  13 429.888 177.466   8
   7  -1  13-12.6260 165.363   7
  -7   1 -13 27.7532 161.133   3
   1   7 -13 843.610 188.052   2
   7   1 -13-9.58087 165.636   7
  -1  -7  13-14.3432 175.046   5
  -7  -1  13 438.030 172.021   8
   7  -1  14 1638.75 370.769   8
   1   7 -14 1286.66 368.375   3
   1  -7  14 14.8833 356.113   5
   7   1 -14-9.72456 350.048   7
  -7  -1  14 1654.12 365.120   8
  -1  -7  14-30.1659 358.619   8
  -7   1 -14 49.5258 346.798   3
   7  -1  14 1196.61 366.622   6
  -1  -7  14-14.6582 353.378   5
  -1   7 -14 1389.69 369.208   3
  -7   1 -14-312.918 408.986   1
   7  -1  14-25.9116 349.049   7
   7  -1  15 229.217 184.639   6
   1   7 -15 205.079 183.277   3
   1  -7  15-30.9203 187.499   5
  -1  -7  15 76.2123 183.853   5
  -1   7 -15 273.507 183.400   3
   7  -1  15 215.829 183.032   8
  -7  -1  15 375.697 180.653   8
  -1  -7  15 15.6927 192.564   8
   1   7 -15 541.900 191.468   2
  -7  -1  16 472.994 251.137   8
  -1  -7  16 81.5438 260.273   8
  -1   7 -16 438.452 255.573   3
   1   7 -16 421.935 257.044   3
  -1  -7  16 31.2546 257.099   5
   1  -7  16 15.8343 249.815   5
   7  -1  16 541.275 256.651   8
   1   7 -16 598.447 256.850   2
   7  -1  16 188.026 251.558   6
   1   7 -17 414.202 211.252   2
  -1   7 -17 349.771 204.888   3
   1  -7  17-82.0848 218.203   5
  -1  -7  17-113.532 222.737   5
   7  -1  17 495.057 210.477   8
   1   7 -17 587.833 214.122   3
  -1  -7  17-16.9319 241.011   8
   7  -1  17 192.791 201.331   6
  -1  -7  18 35.1102 124.828   8
  -1  -7  18 16.8109 108.718   5
   7  -1  18 37.3278 74.8031   6
  -1   7 -18 72.4078 78.4113   3
   1   7 -18-11.9411 74.8819   3
   1  -7  18 51.0107 107.300   5
   7  -1  18 23.1672 72.8082   8
   1   7 -18 25.2657 68.2316   2
  -1  -7  19-17.4038 237.140   5
   1   7 -19 408.046 237.965   3
  -1   7 -19 461.946 239.335   3
   7  -1  19 462.071 240.627   8
  -1  -7  19 109.095 250.280   8
   1   7 -19 562.340 242.390   2
   1  -7  19 70.3435 239.477   5
   7  -1  19 140.366 229.750   6
   7  -1  20 190.853 160.211   8
  -1   7 -21 147.477 113.177   3
   1  -7  21 38.0763 126.112   5
  -1  -7  21 19.0874 154.433   8
   1   7 -21 122.900 103.478   2
   1   7 -22-56.8023 86.3849   3
   1  -7  22-40.2738 119.508   5
   1   7 -22-28.1711 84.6437   2
  -1  -7  22-259.669 134.157   5
  -1   7 -22 14.3063 83.3838   3
  -1  -7  22 19.6892 143.428   8
   1   7 -23 246.681 126.920   2
  -1  -7  23 182.518 188.532   8
  -1   7 -23 14.7274 117.484   3
  -1  -7  23 143.975 159.740   5
   1  -7  23-20.7251 146.846   5
   1   7 -23 160.911 127.464   3
   1   7 -24 59.7101 85.6993   2
  -1  -7  24 62.5831 157.330   8
   1  -7  24-63.8989 128.040   5
  -1   7 -24 15.0183 86.1664   2
   1   7 -24-15.0463 76.7434   3
  -1  -7  24-42.3036 127.192   5
  -1   7 -24 196.806 100.068   3
  -1  -7  25-22.4136 147.026   5
  -1   7 -25 81.6328 110.366   3
  -1   7 -25 46.2612 107.541   2
   1  -7  25 90.2257 133.534   5
  -1  -7  25-21.4317 182.332   8
   1   7 -25 168.705 111.413   2
   1   7 -25 178.567 114.580   3
  -1   7 -26 234.318 224.485   3
   1   7 -26 149.895 221.180   3
  -1  -7  26 91.9366 247.394   5
  -1  -7  26 307.786 269.568   8
  -1   7 -26 664.187 237.898   2
   1  -7  26 92.4771 238.173   5
  -1   7 -27-17.1369 95.9938   3
  -1  -7  27-47.9180 133.304   5
  -1  -7  27 45.0603 168.031   8
   1  -7  27-47.3351 125.269   5
   1   7 -27-34.1241 92.5397   3
  -1   7 -28 201.846 121.376   3
  -1  -7  28 230.480 192.665   8
   1  -7  28-49.2572 132.142   5
  -1  -7  28 49.0233 133.855   5
   1   7 -28 18.2788 103.422   3
   1  -7  29 70.9898 177.312   8
  -1   7 -29 56.2137 96.6673   3
  -1  -7  29 75.1188 134.933   5
   1  -7  29 25.1543 128.375   5
  -1  -7  29 212.010 194.259   8
   1   7 -29 74.6981 115.843   3
  -1  -7  30-24.0409 180.279   8
   1  -7  30-24.1383 176.191   8
   1  -7  30-102.615 146.458   5
   1   7 -30-19.0550 82.8429   3
  -1  -7  30 25.5465 113.668   5
  -1   7 -30 38.2246 87.3096   3
   1  -7  31 73.7612 165.635   8
   1   7 -31-19.7637 81.2321   3
   1  -7  31-26.6267 118.406   5
  -1   7 -31-19.8145 96.6310   3
  -1  -7  31 26.5373 120.912   5
  -1  -7  31 122.523 191.596   8
   1  -7  32-81.2876 123.938   5
   1   7 -32 40.2304 88.0434   3
  -1  -7  32 54.0090 111.298   5
  -1  -7  32 99.7721 187.328   8
  -1   7 -32 20.1583 96.8715   3
   1  -7  32-25.0249 174.327   8
   1   7 -33 20.4507 84.8527   3
  -7  -2   0 644.091 1048.14   1
   7   2   0 2581.03 1036.97   6
   7  -2   0 527.883 1029.17   6
  -7   2   0 2531.26 1036.73   4
  -7  -2  -1 129.439 418.600   1
   7  -2  -1 142.245 370.567   6
   7  -2   1 11.4863 367.831   5
   7   2  -1 2090.39 391.854   6
   7   2  -1 2281.57 401.230   7
  -7   2   1 1796.94 389.212   4
   7  -2  -1 142.826 374.581   7
  -7   2  -1 2196.82 393.918   4
  -7  -2   1 1104.77 433.066   1
   7  -2   1 762.398 379.118   6
   7  -2  -2 82.5992 334.492   7
   7  -2   2 159.541 331.695   5
   7   2  -2 807.840 341.206   6
   7   2   2 877.263 347.253   7
   7  -2   2 1074.48 350.113   7
  -7  -2   2 590.140 338.520   4
   7  -2  -2 50.9646 332.382   6
  -7  -2   2 817.863 397.062   1
   7   2  -2 1152.87 350.179   7
   7   2   2 857.853 344.083   6
   7  -2   2 770.988 343.281   6
  -7   2   2 676.442 340.514   4
  -7  -2  -2-36.1040 386.433   1
   7  -2  -3-10.2473 52.7562   6
   7  -2   3 60.0875 54.6838   5
   7   2   3 111.024 69.1585   6
  -7  -2   3 34.5128 45.3284   5
  -7  -2   3 6.43366 60.8711   4
   7  -2  -3 20.7572 66.3347   7
   7   2  -3 127.947 75.4711   7
   7   2  -3 108.216 45.2046   3
  -7   2  -3 111.818 70.3707   4
   7   2   3 32.0630 64.9862   7
  -7  -2  -3-135.711 206.161   1
  -7  -2   3 86.6186 224.346   1
   7  -2   3 70.3358 72.3043   7
   7   2  -3 103.243 63.6136   6
  -7   2  -3 3.57934 42.8702   2
   7  -2   3 29.4485 60.3866   6
  -7   2   3 42.5114 58.1910   4
   7   2  -4 640.698 148.870   3
   7  -2   4 526.104 155.483   5
  -7  -2   4 78.9408 144.989   5
   7  -2   4 5.25008 146.666   8
  -7   2  -4 822.410 169.647   4
   7  -2   4 552.895 164.302   6
   7  -2   4 800.265 180.407   7
  -7  -2   4-12.7249 144.581   8
   7  -2  -4 10.4681 152.414   7
   7   2   4 315.377 158.998   6
   7   2  -4 7.30092 143.488   2
  -7   2  -4 587.212 151.467   3
   7   2  -4 569.139 164.711   6
  -7  -2   4 234.815 155.815   4
  -7   2  -4 8.03625 143.860   2
   7   2  -4 964.195 180.707   7
  -7   2   4 171.766 150.104   4
   7   2  -5 97.9278 48.1433   3
   7  -2  -5-10.5670 66.3184   7
   7   2  -5 144.949 72.7233   6
  -7   2  -5 124.326 53.5669   3
   7  -2   5 158.658 61.3827   5
   7  -2   5-17.7182 56.5280   8
   7  -2   5 104.122 60.6534   6
   7   2  -5 42.7295 45.4498   2
   7   2  -5 195.672 80.9693   7
  -7  -2   5 20.4407 47.7019   5
   7  -2   5 106.113 85.4578   7
  -7  -2   5-6.69078 66.8620   4
   7   2   5 9.80733 57.9182   6
  -7   2  -5 4.34740 45.7910   2
  -7  -2   5 11.8897 51.6795   8
  -7   2  -5 101.853 71.7977   4
  -7  -2   6 586.567 375.248   8
  -7   2  -6 995.157 376.507   3
  -7  -2   6 577.274 378.931   4
  -7   2  -6 1175.06 385.148   4
  -7  -2  -6 226.900 415.451   1
  -7  -2   6 65.0594 370.792   5
  -7   2  -6 151.905 371.104   2
   7  -2   6 1025.99 389.594   7
   7  -2   6 1049.01 385.165   6
   7   2  -6 849.682 381.944   6
   7  -2   6 1298.86 382.150   5
   7   2   6 479.103 379.937   6
   7   2  -6 771.541 373.364   2
   7  -2   6 99.1033 373.590   8
   7   2   6 173.455 377.184   7
  -7  -2   7-11.7319 227.956   5
  -7  -2   7 772.259 235.814   8
  -7   2  -7-671.728 409.218   1
  -7  -2  -7-13.7132 302.482   1
   7  -2   7 1086.52 244.377   5
   2  -7   7-11.9084 229.026   5
  -2  -7   7-11.3571 230.961   5
   7   2  -7 263.358 227.438   3
  -2   7  -7 9.06575 224.475   2
   7  -2   7 367.090 237.262   8
   7  -2   7 890.173 257.057   7
   7   2  -7 1639.66 262.368   7
   7   2   7 226.066 233.832   7
  -7   2  -7 1562.12 257.184   4
  -7   2  -7 195.804 228.864   2
  -7  -2   7 431.368 236.337   4
   7  -2   7 1006.99 250.128   6
   7   2   7 261.782 235.103   6
   2   7  -7 17.3001 224.658   2
   7   2  -7 244.325 237.658   6
  -2   7  -8 545.131 330.904   2
  -2  -7   8-128.603 329.140   8
  -2  -7   8-106.165 328.849   5
   2  -7   8-24.6807 328.338   5
   7   2  -8 369.571 326.633   3
  -7  -2   8 1869.01 341.648   8
   2  -7   8-24.4762 327.562   8
   2   7  -8 341.576 327.988   2
  -7   2  -8 2770.16 359.300   4
  -7  -2   8-6.86990 329.601   5
   7  -2   8 1414.46 353.672   7
  -7  -2   8 425.919 331.451   4
   7   2   8 376.577 332.388   6
  -7   2  -8-632.649 484.461   1
  -7  -2  -8-338.241 386.158   1
  -7  -2   9 6.09313 46.6500   8
  -7   2  -9 15.5186 59.1095   4
  -2   7  -9-9.73173 32.8948   2
   2   7  -9 27.9915 34.2147   2
   2  -7   9 25.6185 65.2367   5
  -2  -7   9 73.6425 61.3495   5
   7   2  -9 5.80584 24.9132   3
   7  -2   9 24.3123 56.7835   8
  -2  -7   9-12.1717 51.7836   8
   7  -2   9-22.2999 73.7639   7
   7   2  -9 8.47257 56.8888   7
   2  -7   9 12.7098 55.4777   8
   7  -2   9 9.61730 47.3463   6
  -7  -2   9-14.4119 42.3609   4
  -7  -2   9 7.76903 34.4304   5
  -7   2 -10 2364.98 591.190   3
  -2  -7  10-12.7864 579.265   5
   7  -2  10 2810.71 601.744   6
   7  -2  10 1021.98 590.589   7
   2  -7  10-26.4257 580.055   8
   7   2 -10 5002.62 614.690   7
  -7   2 -10 2479.93 595.517   4
   2   7 -10 2508.95 598.992   2
  -7  -2  10-7.22309 577.320   4
   2  -7  10 5.91705 577.774   7
  -2  -7  10-12.6869 580.040   8
  -7   2 -10 695.448 641.814   1
   7  -2  10 2805.79 600.051   8
   2  -7  10 93.1663 581.461   5
   7  -2  10 2597.66 599.558   5
   2  -7  11-41.2295 261.011   8
  -7  -2  11 7.24214 249.271   4
  -2  -7  11-26.4594 258.100   8
  -7   2 -11 644.917 260.499   3
  -2   7 -11 739.020 266.066   2
   2  -7  11-41.2947 261.407   5
  -2  -7  11-26.5128 259.476   5
   7  -2  11 618.790 266.151   6
   7  -2  11 613.730 267.057   5
   7   2 -11 913.093 270.739   7
  -7   2 -11 149.861 378.291   1
   7  -2  11 769.734 266.662   8
  -7  -2  11 639.100 260.822   8
   7  -2  11 164.030 262.262   7
   7   2 -11 21.4789 249.551   3
  -7   2 -11 566.562 264.847   4
   2   7 -11 912.949 268.554   2
  -7   2 -12 652.323 441.468   3
   7  -2  12 880.444 449.005   5
   7  -2  12 1327.57 452.879   8
  -2  -7  12 13.6680 439.185   5
  -7  -2  12 1207.86 445.298   8
   2  -7  12 14.2961 441.106   8
   7   2 -12 1354.48 450.002   7
   7  -2  12 338.398 442.802   7
   2  -7  12 42.4738 439.388   5
  -2  -7  12 13.7958 440.147   8
   7  -2  12 1110.07 449.474   6
  -7   2 -12 41.7370 499.082   1
  -2   7 -13 1338.22 466.926   3
  -7   2 -13 731.508 458.487   3
   2  -7  13 58.8670 456.758   5
   2  -7  13 74.3361 457.872   8
   7  -2  13 1482.49 470.215   8
   7  -2  13 807.926 463.371   5
   7  -2  13 1092.30 464.271   6
  -7  -2  13 1328.02 463.413   8
  -2  -7  13 28.7627 459.291   8
   7  -2  13 49.3888 453.576   7
   2   7 -13 1237.35 466.458   3
  -2  -7  13-14.2407 455.596   5
  -7   2 -13-284.322 515.012   1
   2   7 -14 794.083 442.463   3
  -2   7 -14 1189.10 448.068   3
   2  -7  14 15.0139 437.162   5
  -2  -7  14 14.5615 435.768   5
  -7   2 -14 116.291 493.708   1
   7  -2  14 726.657 444.822   5
   7  -2  14 37.9026 433.743   7
  -7   2 -14 399.871 436.327   3
   7  -2  14 882.493 443.753   6
   2  -7  14-46.3596 441.343   8
  -2   7 -14 1456.70 451.441   2
   2   7 -14 1502.62 451.954   2
  -7  -2  14 1212.83 444.640   8
   7  -2  14 1025.06 445.974   8
  -2  -7  14 44.9525 437.891   8
  -2   7 -15 1962.15 508.561   2
  -2   7 -15 1356.23 502.453   3
   2   7 -15 1242.98 500.078   3
   7  -2  15 25.8863 486.810   7
  -7   2 -15-44.6186 531.618   1
  -7   2 -15 509.530 489.967   3
   7  -2  15 800.415 497.761   8
   2  -7  15 31.1745 490.759   5
  -2  -7  15 59.8095 492.152   5
   7  -2  15 1285.73 504.665   5
  -7  -2  15 1273.82 497.855   8
   2  -7  15 80.2531 493.803   8
  -2  -7  15 31.1942 493.687   8
   7  -2  15 1055.37 498.893   6
   7  -2  16 1004.88 483.488   8
  -2   7 -16 1189.07 486.053   3
  -7  -2  16 1282.28 485.175   8
   2   7 -16 894.783 482.584   3
  -2  -7  16 81.0897 482.364   8
   2   7 -16 1564.31 490.323   2
  -2  -7  16-31.0815 478.723   5
   7  -2  16 693.008 481.692   5
   7  -2  16 719.969 480.404   6
  -7   2 -16 182.833 472.435   3
   2  -7  16 99.9374 479.455   8
  -2   7 -16 1388.63 488.860   2
  -7   2 -16-243.584 518.791   1
   2  -7  16-31.9156 477.994   5
  -7   2 -17 48.1747 75.7781   3
  -2   7 -17 105.647 92.6472   3
   2  -7  17-16.5356 112.143   5
  -2  -7  17-16.1369 107.711   5
   2   7 -17 91.7078 91.9182   3
  -7  -2  17 82.5722 84.1508   8
   7  -2  17 81.1601 91.2861   5
   7  -2  17 154.719 108.031   8
  -2   7 -17 223.399 100.065   2
   2  -7  17-51.7995 143.159   8
   7  -2  17 80.5923 88.5715   6
  -2  -7  17-101.067 158.840   8
   2   7 -17 121.259 90.7849   2
  -7  -2  18 1059.48 501.532   8
   2   7 -18 1367.64 505.816   3
   2  -7  18 136.949 497.535   5
   2  -7  18 375.473 509.358   8
   2   7 -18 1585.10 508.348   2
  -2  -7  18 100.402 498.602   5
   7  -2  18 825.552 502.285   8
  -2  -7  18 367.005 505.883   8
   7  -2  18 852.767 504.296   5
  -7   2 -18 113.913 487.587   3
  -2   7 -18 1275.15 504.431   3
  -2  -7  19-35.2034 133.236   5
  -2   7 -19 175.846 122.421   3
   2   7 -19 111.633 115.288   3
  -2  -7  19 54.3216 152.248   8
   7  -2  19 39.3115 127.040   8
  -7  -2  19 218.803 120.317   8
   2  -7  19 70.7980 132.498   5
   2   7 -19 318.321 121.284   2
  -7   2 -19 26.5168 99.6866   3
  -7   2 -20 41.5508 343.529   3
   7  -2  20 780.504 365.568   8
  -7  -2  20 750.215 359.049   8
  -2   7 -20 764.679 368.671   2
   2  -7  21-19.7080 138.589   8
   2   7 -21 40.8473 78.2952   2
  -2   7 -21 134.749 88.3235   3
   2  -7  21 19.1432 109.619   5
  -2   7 -21-13.8413 69.3573   2
  -2  -7  21-38.0475 136.533   8
   7  -2  21 28.5413 109.085   8
   2  -7  22 379.199 350.868   8
  -2  -7  22 59.7341 316.705   5
  -2  -7  22 98.1360 331.877   8
  -2   7 -22 263.799 312.167   3
   2   7 -22 354.111 311.632   3
  -2   7 -22 698.758 323.526   2
   2   7 -22 1011.51 326.576   2
   2  -7  22 263.175 329.303   5
  -2  -7  23 20.2268 139.036   8
  -2   7 -23 29.5826 73.3794   3
   2  -7  23-20.8241 120.473   5
   2   7 -23 14.5930 69.4398   3
   7  -2  23-15.3884 97.7629   8
  -2   7 -23-29.3527 88.5747   2
   2   7 -23 14.4743 73.2291   2
  -2  -7  23-41.0281 113.323   5
   2  -7  23-20.5359 135.151   8
   2  -7  24-42.2082 254.884   8
  -2   7 -24 603.333 246.391   2
  -2  -7  24 152.408 249.183   5
  -2   7 -24 334.393 237.515   3
  -2  -7  24 145.695 262.856   8
   2   7 -24 362.756 240.475   3
   2  -7  24-21.3940 240.576   5
   2   7 -24 461.742 238.803   2
   2  -7  25 64.9857 199.843   8
  -2  -7  25 67.0835 177.617   5
   2   7 -25 48.6206 153.990   3
  -2   7 -25 262.186 168.342   3
   2  -7  25 67.9479 178.620   5
  -2   7 -25 247.722 165.652   2
   2   7 -25 474.545 186.023   2
  -2  -7  25 192.461 216.853   8
  -2   7 -26 253.897 210.369   2
   2  -7  26 324.997 235.856   5
  -2  -7  26 22.9456 216.387   5
   2   7 -26 216.168 209.024   3
  -2  -7  26 65.8452 243.781   8
   2   7 -26 738.485 231.866   2
  -2   7 -26 235.179 216.701   3
   2  -7  26 66.6225 238.013   8
  -2   7 -27 129.960 146.578   2
  -2   7 -27 85.9743 132.984   3
  -2  -7  27 269.882 205.904   8
   2  -7  27-23.7583 156.644   5
   2   7 -27 267.607 143.182   3
   2  -7  27 272.808 213.674   8
  -2  -7  27 47.8454 148.085   5
  -2  -7  28 138.121 190.724   8
   2  -7  28 49.4331 158.508   5
   2  -7  28 278.946 215.671   8
  -2  -7  28 97.8964 151.709   5
  -2   7 -28 92.0370 135.494   3
   2   7 -28 109.553 127.350   3
  -2   7 -28 166.109 139.157   2
   2   7 -29-18.6587 84.8424   3
   2  -7  29-71.1999 189.844   8
   2  -7  29-75.6890 132.460   5
  -2   7 -29 93.9600 100.411   3
  -2  -7  29 50.0247 126.543   5
  -2  -7  29-47.0543 185.278   8
   2  -7  30-77.1730 140.237   5
  -2  -7  30 130.094 134.600   5
  -2  -7  30 120.068 198.219   8
   2   7 -30 19.0491 109.143   3
   2  -7  30-24.2039 183.224   8
  -2   7 -30-19.1634 99.4242   3
   2  -7  31 49.3128 191.752   8
   2  -7  31 106.813 148.406   5
  -2   7 -31-58.5598 96.2646   3
  -2  -7  31-97.9398 182.517   8
  -2  -7  31-26.5123 118.757   5
   2   7 -31-19.7553 86.9739   3
  -2  -7  32 26.9946 115.604   5
  -2  -7  32 149.553 176.156   8
   2   7 -32-20.1089 87.2790   3
  -2   7 -32-20.2036 87.6656   3
   2  -7  32 175.631 216.627   8
   2  -7  32 27.1577 128.159   5
   2   7 -33-40.8972 83.6518   3
  -2  -7  33 82.3066 124.739   5
   7  -3   0 10.6026 170.104   6
  -7  -3   0-153.323 266.590   1
   7  -3   0 75.1616 178.320   7
   7  -3   1-10.5702 197.757   6
   7   3   1 383.789 208.539   6
   7  -3  -1-10.6564 198.076   6
   7   3  -1 612.284 212.906   6
  -7   3   1 425.015 208.324   4
   7   3  -1 660.340 216.631   7
  -7  -3  -1-278.471 289.277   1
   7   3   1 565.947 213.749   7
  -7   3  -1 783.258 218.088   4
   7  -3   1 53.0534 201.384   7
  -7  -3   1 103.478 293.230   1
   7  -3   2 137.283 205.126   6
   7   3   2 678.696 218.882   7
  -7  -3   2 56.0944 309.606   1
  -7  -3  -2 696.521 285.388   1
  -7  -3   2 16.7596 199.301   5
   7  -3   2 105.188 209.015   7
   7   3  -2 1328.09 233.105   7
   7   3   2 469.147 211.532   6
   7   3  -2 1035.61 222.374   6
   7  -3  -2 21.7602 205.002   7
  -7   3   2 401.331 209.683   4
   7  -3   3-5.96142 222.289   5
  -7  -3  -3-204.521 300.091   1
   7   3  -3 1185.40 249.675   7
  -7  -3   3 1679.04 342.278   1
  -7  -3   3 189.669 223.678   5
   7   3   3 542.365 238.916   7
   7  -3   3 484.487 238.797   7
   7   3   3 429.379 234.635   6
   7  -3   3 528.632 235.223   6
   7   3   4-10.0306 41.1417   6
  -7  -3  -4-26.2818 171.509   1
   7   3  -4-8.72644 21.9938   3
  -7  -3   4-16.4731 33.8264   5
  -7  -3   4 6.30725 52.8134   4
   7  -3   4-6.43689 35.6836   5
   7   3  -4-9.10406 52.7534   7
   7   3   4 11.3956 40.8746   7
   7  -3   4 10.3405 60.7684   7
  -7  -3   4 268.389 250.264   1
  -7   3  -4-16.8359 50.2004   4
   7   3  -4 23.5521 42.0521   6
  -7   3  -4-4.90150 16.4050   2
   7  -3   4-10.6069 45.9690   6
  -7  -3   5 42.1272 277.065   1
  -7   3  -5-5.30766 98.1158   2
   7   3  -5-11.1145 96.7954   2
   7  -3   5 206.284 111.667   5
   7   3   5 82.5020 109.081   6
  -7  -3   5 349.155 106.559   5
   7  -3   5 244.785 116.523   6
   7   3  -5 839.063 139.091   7
   7   3  -5 585.044 121.848   6
  -7  -3   5 168.540 112.765   4
  -7  -3   5-9.67247 99.1557   8
   7  -3   5 219.189 124.524   7
  -7   3  -5 887.175 139.618   4
   7  -3   5-6.93764 101.275   8
   7  -3   6 126.176 169.719   7
   7  -3   6 369.823 169.018   6
  -7  -3   6 80.8761 158.163   5
   7  -3   6 249.536 159.139   5
   7   3  -6 478.689 173.261   7
   7   3  -6 37.6901 149.610   2
  -7  -3   6-527.204 368.286   1
  -7   3  -6 502.072 159.403   3
  -7  -3   6 18.9377 169.437   4
  -7  -3   6-55.2452 158.559   8
  -7   3  -6 392.460 169.839   4
   7   3  -6 494.363 155.465   3
   7   3  -7 1557.80 305.555   3
   3  -7   7-48.2790 297.504   5
  -3  -7   7-11.2385 297.121   5
  -7  -3   7-112.627 312.723   8
  -7   3  -7 2151.87 326.997   4
  -7  -3   7 463.482 300.265   5
   7  -3   7 858.388 320.262   7
   7  -3   7 1423.65 319.974   6
   7   3  -7 792.458 300.486   2
   3   7  -7 8.56043 292.405   2
  -3   7  -7-9.18813 292.697   2
  -7  -3   8 84.2497 125.855   8
   7   3  -8 291.263 123.810   2
   3  -7   8 37.5041 130.666   5
   7  -3   8 76.7134 135.624   7
   3  -7   8 12.4003 124.481   8
   7  -3   8 248.143 133.513   6
   7  -3   8 229.924 133.361   5
  -3  -7   8 23.1479 123.756   8
  -3  -7   8-11.6807 129.747   5
  -7  -3   8 175.418 125.263   5
   7   3  -8 431.582 141.358   7
  -7   3  -8 82.8975 120.809   2
   7  -3   8 71.0473 132.577   8
   7   3  -8 354.905 124.436   3
  -7   3  -8 459.630 142.717   4
   3   7  -8 17.8040 117.371   2
  -3   7  -8 76.1562 122.258   2
   7  -3   9 1150.95 743.256   8
  -7   3  -9 3488.07 750.056   3
   7   3  -9 2836.92 745.993   3
   7  -3   9 3576.18 759.006   5
  -3  -7   9-12.1635 735.417   5
   3  -7   9 12.9690 735.954   5
  -7   3  -9 3997.43 808.905   1
  -3  -7   9-12.0579 734.794   8
  -7   3  -9 2045.47 743.444   2
  -7  -3   9 1157.78 740.992   5
   3  -7   9-7.36482 734.628   7
  -3   7  -9 1768.51 745.547   2
   3  -7   9-12.8697 735.357   8
  -7   3  -9 4795.10 762.499   4
   7  -3   9 3487.91 759.783   6
   3  -7  10 7.17039 79.4323   7
   3  -7  10-13.3715 90.8750   8
  -7   3 -10 194.634 94.4352   4
   7  -3  10 81.1499 96.1664   8
   3  -7  10-13.4676 103.989   5
  -3   7 -10 102.343 82.2050   2
  -3  -7  10-12.5780 93.5239   8
  -7  -3  10 196.367 96.1495   8
  -7   3 -10-240.055 289.906   1
   7   3 -10 252.584 98.7886   7
   7  -3  10 44.9940 95.4941   7
  -7   3 -10 86.8708 78.6882   2
  -7   3 -10 91.6575 78.7199   3
   3   7 -10 86.8022 78.2690   2
   7  -3  10 207.492 92.8148   6
  -3  -7  10 25.2252 94.4847   5
   7  -3  10 160.702 90.8793   5
   7  -3  11 598.531 560.563   7
   7   3 -11 1006.60 556.620   3
   3  -7  11 13.9202 554.359   5
  -3  -7  11 13.1530 553.534   5
  -7  -3  11 512.685 555.409   5
   7   3 -11 2492.42 571.390   7
  -7  -3  11 1159.83 561.876   8
  -7   3 -11 1803.56 566.745   4
   7  -3  11 1000.50 563.742   8
  -3  -7  11-13.1250 554.283   8
   7  -3  11 1635.98 567.688   5
  -7   3 -11 894.617 624.395   1
   3   7 -11 1602.93 564.843   2
   3  -7  11 13.8998 553.658   8
   3  -7  12-14.4495 610.199   8
  -7   3 -12 1679.65 617.439   3
   7   3 -12 832.836 611.133   3
   7  -3  12 1510.00 622.698   5
   3  -7  12 57.2337 611.417   5
  -3  -7  12 27.1402 609.731   5
   7  -3  12 1284.00 619.833   8
  -7  -3  12 1454.10 618.262   8
  -7  -3  12 353.331 609.601   5
  -7   3 -12 275.489 677.068   1
   7  -3  12 201.398 611.317   7
   7  -3  12 1612.21 621.089   6
  -3   7 -12 1619.24 622.238   2
   3   7 -12 2109.07 624.147   2
  -3  -7  12-27.3913 610.727   8
  -7   3 -12 1959.01 621.605   4
  -3   7 -13 845.783 470.441   3
   7  -3  13 1317.76 477.737   5
  -3  -7  13-27.7858 463.608   5
   7  -3  13 1182.78 477.424   8
  -7   3 -13 1084.92 469.937   3
  -7   3 -13 1399.70 472.692   4
  -7  -3  13 254.275 463.007   5
   3   7 -13 1506.93 476.673   2
   7  -3  13 84.4348 462.920   7
   3   7 -13 1141.10 471.773   3
  -3  -7  13 14.2884 464.636   8
  -7   3 -13 238.279 534.802   1
   7  -3  13 1356.95 474.536   6
   3  -7  13-15.0185 465.905   8
   7   3 -13 371.778 462.844   3
   3  -7  13 14.8648 462.915   5
  -7  -3  13 1007.02 472.017   8
  -3   7 -14 1532.18 578.849   3
   3   7 -14 1394.71 577.438   3
   3  -7  14 15.6025 568.592   8
   7  -3  14 1441.45 584.307   5
   3  -7  14 15.1570 568.013   5
  -3   7 -14 2480.87 588.230   2
  -3  -7  14 43.4246 567.833   5
  -7   3 -14 228.605 620.610   1
  -7  -3  14 341.600 567.945   5
  -7   3 -14 1696.03 577.798   4
   7  -3  14 49.7006 565.180   7
   7   3 -14 387.444 566.561   3
  -7   3 -14 1565.31 577.747   3
   3   7 -14 2252.40 585.729   2
   7  -3  14 1595.52 583.733   8
  -3  -7  14-14.8944 569.338   8
  -7   3 -15-14.5811 408.866   1
   7  -3  15 826.963 343.537   5
   3   7 -15 898.534 336.440   3
   3  -7  15-31.4554 331.258   5
   7  -3  15-25.3757 323.890   7
  -3   7 -15 722.901 334.368   3
  -3   7 -15 1418.90 346.214   2
   7  -3  15 708.029 344.130   8
  -7   3 -15 408.442 328.277   3
  -3  -7  15 14.8719 325.712   5
   7   3 -15 161.568 321.254   3
   3  -7  15-16.1964 334.470   8
   3   7 -15 1247.42 342.255   2
   7  -3  15 822.911 334.697   6
  -3  -7  15 15.5126 330.142   8
  -7  -3  15 67.5950 322.134   5
  -7  -3  15 614.587 332.177   8
  -7   3 -15 473.257 329.312   4
  -7  -3  16 158.202 304.203   5
   7   3 -16 64.4776 298.627   3
   7  -3  16 654.344 315.497   6
  -7   3 -16 377.479 309.667   4
  -7   3 -16 550.975 403.988   1
   3   7 -16 516.892 313.177   3
   3  -7  16 64.3744 317.825   5
  -3  -7  16 170.120 326.061   5
   7  -3  16 720.897 325.266   8
  -7  -3  16 527.361 311.962   8
  -3   7 -16 748.368 317.826   2
   7  -3  16 51.8115 304.460   7
   3   7 -16 918.060 321.864   2
  -3   7 -16 582.232 315.534   3
   3  -7  16 201.581 327.907   8
  -3  -7  16 532.582 354.185   8
  -7   3 -16 540.677 309.637   3
   7  -3  16 642.001 321.831   5
  -7   3 -17-289.036 514.081   1
  -3   7 -17 969.940 468.353   3
   3   7 -17 1198.94 468.725   3
   7  -3  17 964.003 471.273   5
   3  -7  17 50.0023 460.712   5
  -3  -7  17 16.0669 459.637   5
  -7   3 -17 595.398 461.413   4
  -7   3 -17 691.996 462.342   3
  -7  -3  17 1218.36 469.635   8
   7   3 -17 102.485 452.125   3
  -3   7 -17 1438.20 473.484   2
   3   7 -17 1618.34 474.169   2
  -3  -7  17 50.3127 464.443   8
   3  -7  17 52.2168 461.085   8
   7  -3  17 888.203 470.652   8
   3   7 -18-11.8506 64.4008   3
  -3   7 -18-24.4654 73.8260   3
  -3  -7  18-34.8184 122.135   8
  -7  -3  18 23.6055 74.9825   8
   3  -7  18 18.0145 117.202   8
   7  -3  18-34.2375 77.8334   5
  -3   7 -18-12.9448 72.6535   2
  -7   3 -18 12.7194 60.5232   3
   3   7 -18-12.5358 66.9789   2
   7  -3  18-13.6861 93.0913   8
   3  -7  18 34.4949 99.7801   5
   7   3 -18 36.0665 47.7138   3
  -3  -7  18 33.3384 87.5136   5
  -3  -7  19 87.6976 597.923   5
   3  -7  19 142.604 597.775   5
   3   7 -19 1162.50 602.749   3
   3   7 -19 1676.18 607.984   2
   7  -3  19 1091.29 606.748   5
  -3  -7  19 342.827 606.036   8
  -3   7 -19 1036.80 601.650   3
   7  -3  19 1259.00 607.180   8
  -7  -3  19 1105.46 602.637   8
  -7   3 -19 465.225 594.224   3
  -7   3 -20-14.1042 92.8613   3
   7  -3  20 119.330 126.594   8
  -7  -3  20 299.716 128.427   8
   7  -3  20 114.033 111.380   5
   3   7 -20 217.590 114.874   3
   3  -7  20 38.4604 149.676   8
  -3   7 -20 41.4574 97.1077   2
   3  -7  21 39.6647 240.925   8
  -7   3 -21-14.6687 213.122   3
  -3   7 -21 433.715 231.717   3
   7  -3  21 395.338 227.555   5
  -3   7 -21 389.858 233.589   2
   3   7 -21 543.330 233.784   2
  -7  -3  21 586.193 236.323   8
   3  -7  21 77.0534 230.403   5
  -3  -7  21 38.6095 248.139   8
  -3   7 -22-57.8222 81.2209   3
   3  -7  22-40.8552 158.985   8
  -3  -7  22-19.8681 119.200   5
   3   7 -22-14.1369 91.0276   3
  -7  -3  22-85.3427 119.833   8
   3   7 -22 42.0623 80.0782   2
  -3   7 -22-28.6798 87.8049   2
  -3  -7  22-39.1621 151.213   8
   3  -7  22 40.7281 139.305   5
  -3   7 -23 472.086 242.648   2
  -3  -7  23 184.223 246.352   5
   7  -3  23 266.932 260.313   8
  -3  -7  23 161.490 264.445   8
  -3   7 -23 401.500 243.498   3
   3  -7  23 209.450 249.424   5
   3   7 -23 349.668 242.458   3
   3   7 -23 635.913 245.850   2
   3  -7  23 61.9635 260.122   8
  -7   3 -23 63.0614 225.988   3
  -3  -7  24-21.7323 129.123   5
  -7   3 -24 32.5913 82.7660   3
  -3   7 -24 122.212 100.411   3
   7  -3  24 51.7371 135.699   8
  -7  -3  24 76.8313 126.389   8
   3   7 -24 141.766 104.911   3
  -3  -7  24-20.7751 156.311   8
   3  -7  24 172.088 136.664   5
   3  -7  24-42.4377 161.977   8
  -3   7 -24 15.1569 96.4178   2
   3   7 -24 223.166 110.109   2
   3  -7  25 130.641 215.627   8
  -3  -7  25 66.9951 182.137   5
   3  -7  25 159.366 198.309   5
  -3   7 -25 296.281 177.284   3
   3   7 -25 129.528 168.701   3
  -3  -7  25 149.463 212.152   8
  -3   7 -25 217.748 177.016   2
   3   7 -25 260.022 172.602   2
   7  -3  25 266.859 199.977   8
   3  -7  26 279.857 212.585   5
   3   7 -26 149.530 174.959   3
  -3   7 -26 159.360 178.465   2
  -3   7 -26 202.415 182.822   3
  -3  -7  26 65.7644 228.737   8
   3  -7  26 200.782 238.461   8
  -3  -7  26 45.8336 204.399   5
   3   7 -26 423.852 189.467   2
   7  -3  26 219.889 207.159   8
   3  -7  27 228.317 183.345   8
  -3  -7  27-23.8989 148.041   5
  -3   7 -27 81.5484 143.200   2
  -3  -7  27 314.557 198.236   8
   3   7 -27 178.306 141.204   3
  -3   7 -27 51.7863 128.885   3
   3  -7  27 286.326 178.779   5
  -3  -7  28 22.9975 177.212   8
  -3  -7  28 73.3706 127.186   5
   3  -7  28 24.8167 133.248   5
  -3   7 -28 110.841 116.421   3
   3   7 -28 146.029 118.234   3
  -3   7 -28 33.3432 108.379   2
   3  -7  28 256.722 195.258   8
   3  -7  29 75.9734 139.553   5
   3   7 -29 55.9667 102.948   3
  -3  -7  29 282.159 194.657   8
  -3   7 -29 119.164 107.793   2
   3  -7  29 142.983 191.315   8
  -3   7 -29-18.8545 116.444   3
  -3  -7  29 25.0008 126.419   5
  -3   7 -30 96.1150 159.387   3
  -3   7 -30 173.576 183.031   2
  -3  -7  30 48.0177 218.285   8
   3   7 -30 310.093 189.633   3
  -3  -7  30 104.037 183.520   5
   3  -7  30 364.449 276.360   8
   3  -7  30 103.296 207.926   5
  -3  -7  31 24.4740 168.249   8
  -3   7 -31 78.3038 79.0888   3
   3   7 -31 19.7610 86.6929   3
   3  -7  31 53.5828 121.357   5
  -3  -7  31 79.5264 120.129   5
   3  -7  31-49.4894 168.290   8
  -3   7 -31 17.6714 105.109   2
  -3  -7  32-74.7850 181.325   8
   3  -7  32 50.3319 197.763   8
   3  -7  32-136.202 144.606   5
  -3  -7  32-53.9744 132.908   5
  -3   7 -32-20.2563 87.9146   3
   3   7 -32 20.1188 82.6663   3
   3   7 -33-20.4633 74.5664   3
  -7   4   0 9.26585 32.2616   4
   7   4   0-21.2442 46.2262   7
   7  -4   0-22.6240 50.4562   7
   7   4   0 9.35086 44.7915   6
   7  -4   1 11.0865 254.887   6
   7  -4   1-33.6725 260.462   7
   7   4   1 458.944 265.678   7
  -7  -4   1 11.9107 312.466   1
  -7   4  -1 1076.84 273.636   4
   7   4  -1 659.982 270.218   7
   7   4  -1 880.290 273.283   6
   7   4   1 317.456 262.407   6
  -7  -4  -1-88.2526 303.008   1
   7   4  -2 150.489 69.9334   7
   7  -4   2-11.0341 50.6350   6
   7  -4   2-33.5194 68.4793   7
   7   4   2-19.7977 53.4970   6
   7   4  -2 52.0483 55.9082   6
  -7  -4  -2-116.778 160.682   1
  -7   4  -3 209.513 83.1920   4
   7  -4   3-22.0040 68.5499   6
  -7  -4   3 10.2425 60.0246   5
   7   4  -3 156.081 81.8622   7
   7  -4   3 22.0856 79.2124   7
   7   4  -3 253.346 81.2695   6
   7  -4   4-21.9825 95.5323   6
   7  -4   4-10.9468 103.682   7
   7  -4   4-7.70179 91.1337   5
  -7  -4   4-38.6332 95.3724   5
   7   4  -4 396.614 109.535   6
  -7   4  -4 473.860 114.343   4
   7   4  -4 256.596 110.710   7
   7  -4   5 33.0035 144.035   6
  -7  -4   5 177.630 147.786   5
   7   4  -5 426.246 199.884   7
   7  -4   5 32.8762 153.845   7
   7   4  -5 78.0856 147.848   6
  -7   4  -5 44.7365 142.819   4
   7   4  -6-15.0531 86.6805   2
  -7   4  -6-6.61618 86.7536   2
   7   4  -6 477.388 98.5695   3
  -7  -4   6 82.7585 93.8903   5
  -7  -4   6-26.0911 93.3560   8
  -7  -4   6 37.1121 95.8237   4
   7  -4   6 129.061 108.375   7
   7   4  -6 205.819 107.644   7
   7   4  -6 388.828 107.699   6
   7  -4   6 8.62695 93.1267   8
  -7   4  -6 629.882 121.170   4
   7  -4   6 22.0680 94.3310   6
   4  -7   7 12.2415 111.447   5
  -7  -4   7 846.117 264.413   1
   7  -4   7 72.9197 118.742   5
   7   4  -7 459.776 113.980   3
  -7   4  -7-7.03543 102.925   2
  -7  -4   7 165.200 111.879   5
   7   4  -7 524.723 133.494   7
   7  -4   7 9.20025 112.981   8
   7   4  -7 54.2953 102.989   2
   7  -4   7 151.904 126.582   7
  -7   4  -7 580.006 134.072   4
  -4  -7   7-11.1251 114.789   5
  -7  -4   7 35.7855 109.240   8
   7  -4   7 144.094 116.770   6
  -7   4  -8 888.565 240.922   3
   7   4  -8 1150.19 241.666   3
   4  -7   8 12.6728 232.046   5
   7   4  -8 1158.79 254.081   7
   7  -4   8 543.831 240.524   5
  -7  -4   8 331.253 235.782   5
  -7   4  -8 259.805 231.074   2
   4  -7   8 25.1427 230.254   8
  -4  -7   8-11.5698 233.180   5
   7  -4   8 480.612 244.390   7
   7  -4   8-19.6244 232.788   8
  -7   4  -8 1697.98 262.983   4
   4  -7   8 8.76976 230.119   7
   4   7  -8 8.81829 227.161   2
  -4   7  -8 67.5402 228.162   2
   7  -4   8 557.807 244.437   6
  -4  -7   8-11.4625 230.242   8
  -4   7  -9 20.0164 34.3992   2
   4  -7   9-26.2792 71.4041   5
  -7   4  -9-7.17309 42.7021   3
   7  -4   9 22.8398 72.5493   7
   4  -7   9-26.0816 60.6873   8
   7  -4   9-20.0578 64.4852   5
  -7   4  -9-7.69076 38.1536   2
   7  -4   9-10.7600 50.0738   6
   7   4  -9-6.30682 30.0113   2
   7   4  -9 8.28956 59.3084   7
   4  -7   9 51.6881 61.0389   7
  -7   4  -9 8.73533 63.0956   4
   4   7  -9-9.19330 30.2536   2
  -4  -7   9-12.0551 69.7413   5
  -4  -7   9-11.9504 48.8869   8
   7  -4   9 52.2816 71.8752   8
  -7  -4   9-8.54667 56.8836   8
   7   4 -10 1544.19 350.378   3
   7  -4  10 1056.04 354.783   5
  -4  -7  10 12.5087 338.837   5
   4  -7  10 13.5398 340.491   8
   7  -4  10 155.761 345.460   8
   4  -7  10 42.0617 338.566   7
  -7  -4  10 415.860 343.305   5
   7  -4  10 1032.38 353.586   6
  -4   7 -10 746.010 347.602   2
   4   7 -10 688.958 345.998   2
  -7   4 -10 574.941 343.804   2
  -4  -7  10-24.9458 339.937   8
   4  -7  10-27.2711 340.047   5
  -7   4 -10 1561.29 359.538   4
  -7  -4  10 269.137 343.933   8
   7  -4  10 511.261 351.958   7
  -4  -7  11 52.1096 303.602   8
  -7   4 -11 825.216 309.035   3
   7   4 -11 728.475 306.825   3
   4  -7  11-28.1718 304.674   5
  -4  -7  11 25.8335 302.378   5
   4   7 -11 559.583 307.624   2
   7  -4  11 486.896 311.661   5
  -7  -4  11 341.194 308.049   8
  -7   4 -11 623.673 413.011   1
  -4   7 -11 505.839 306.414   2
   7  -4  11 571.483 310.733   6
   7  -4  11 206.647 309.395   7
  -7   4 -11 695.673 312.498   4
   7  -4  11 118.141 305.074   8
   7   4 -11 967.654 308.889   2
  -7  -4  11 220.577 303.333   5
   4  -7  11 14.0666 305.287   8
  -7   4 -11 381.553 302.923   2
   4   7 -12 299.908 188.216   3
  -7   4 -12-55.1054 349.769   1
   7  -4  12 93.0334 188.933   7
   4   7 -12 412.905 192.498   2
   4  -7  12-28.9430 189.762   5
  -7  -4  12 140.237 188.129   5
  -4  -7  12-26.9603 189.163   5
  -7   4 -12 391.715 194.539   4
  -4   7 -12 442.482 194.799   2
   7  -4  12 239.822 193.535   5
  -7   4 -12 348.014 188.565   3
   7   4 -12 345.938 184.915   3
   7   4 -12 441.026 187.132   2
  -7   4 -12 149.185 183.643   2
   4  -7  12 14.6154 190.619   8
  -7  -4  12 127.399 192.944   8
   7  -4  12 162.717 192.414   8
  -4  -7  12 13.6034 191.821   8
   7  -4  12 400.586 190.117   6
  -4  -7  13 14.1993 677.126   8
   7  -4  13 961.896 688.644   8
  -7  -4  13 619.889 681.273   5
   7   4 -13 2060.01 688.554   3
  -7   4 -13 949.568 746.438   1
   7  -4  13 1672.62 692.344   5
   4  -7  13-30.0519 678.273   5
  -4  -7  13 41.4298 679.119   5
  -7   4 -13 2762.64 694.597   4
  -7  -4  13 1592.83 692.144   8
   7  -4  13 71.3254 676.925   7
  -7   4 -13 2267.17 690.212   3
   4  -7  13-15.1825 678.884   8
   4   7 -13 2230.54 693.749   2
  -7   4 -13 2049.84 688.005   2
  -7   4 -14 340.515 161.673   4
   4  -7  14 15.7628 164.240   8
   4   7 -14 338.816 155.396   2
  -7   4 -14 298.013 332.943   1
   7   4 -14 277.101 149.612   3
   4  -7  14 30.6265 155.383   5
  -7   4 -14 218.984 149.700   3
  -4  -7  14-28.4193 158.223   5
   7  -4  14 219.296 170.178   8
  -7  -4  14 101.545 159.530   8
  -7   4 -14 146.694 147.088   2
   7  -4  14 36.6390 149.105   7
   7  -4  14 176.250 161.817   5
  -4   7 -14 227.219 156.091   3
  -7  -4  14 38.1556 148.792   5
   7  -4  14 217.168 151.339   6
   4   7 -14 275.520 152.703   3
  -4  -7  14 44.4424 161.572   8
  -4   7 -14 417.634 158.428   2
   4   7 -15 956.849 409.156   2
  -7   4 -15 1104.17 409.503   4
  -4  -7  15-14.8006 403.493   5
  -7   4 -15 1047.32 407.970   3
   7  -4  15 936.625 416.597   5
  -4   7 -15 819.514 408.653   3
   7  -4  15 12.5507 398.937   7
   4   7 -15 894.628 407.261   3
   4  -7  15-63.5203 403.465   5
  -4  -7  15-30.8754 405.996   8
   7  -4  15 562.261 414.393   8
  -7  -4  15 371.457 403.012   5
   7   4 -15 481.303 400.045   3
  -4   7 -15 1035.06 411.011   2
   4  -7  15-16.3555 404.845   8
   7  -4  15 791.391 405.970   6
  -7   4 -15-115.302 497.359   1
  -7  -4  15 659.803 412.950   8
  -4  -7  16-16.0709 246.684   8
  -4   7 -16 460.667 238.313   3
   4   7 -16 503.540 238.282   3
   4  -7  16-32.4834 236.556   5
  -4  -7  16-15.4032 235.609   5
  -7   4 -16 348.186 231.581   3
  -7  -4  16 160.286 231.878   5
  -4   7 -16 810.988 245.984   2
   4   7 -16 474.611 236.025   2
   7   4 -16 250.576 226.001   3
   4  -7  16 16.9533 244.134   8
   7  -4  16 199.574 234.005   5
  -7  -4  16 305.034 240.834   8
  -7   4 -16 481.448 236.696   4
   7  -4  16 332.835 256.507   8
   4  -7  17 16.8141 105.762   5
   7  -4  17 16.5757 91.9445   5
  -4   7 -17 59.6407 74.2467   3
   4  -7  17-35.1196 125.645   8
   4   7 -17 11.3804 75.5656   3
  -4  -7  17-16.0085 98.4482   5
  -4  -7  17-16.7080 116.300   8
   7  -4  17 58.8376 117.539   8
  -7   4 -17 47.8482 78.1273   3
  -7  -4  17 13.4207 92.6773   8
  -4   7 -17 37.8376 78.0462   2
  -7  -4  17 61.5311 74.1765   5
   4   7 -17 72.2210 79.4695   2
   7   4 -17 69.0157 68.1772   3
  -4   7 -18 382.194 195.932   3
   4  -7  18 54.5028 202.942   8
  -7  -4  18 99.0033 186.940   5
  -7   4 -18 187.382 182.418   3
   7  -4  18 445.612 221.285   8
  -7  -4  18 401.315 197.250   8
   7   4 -18 48.4277 177.201   3
  -4  -7  18 104.097 208.156   8
   4  -7  18-17.3899 203.991   5
  -4   7 -18 482.762 198.512   2
   4   7 -18 487.374 193.867   2
  -4  -7  18 50.6227 199.313   5
   7  -4  18 276.897 197.061   5
   4   7 -18 200.880 187.014   3
   7  -4  19 54.0979 91.4425   5
   4   7 -19 77.7645 76.2640   2
  -4  -7  19 34.9861 101.487   5
  -4  -7  19 17.9899 125.104   8
   4   7 -19 86.3491 80.6273   3
   7   4 -19-12.9293 56.1868   3
  -7  -4  19 17.3163 75.3158   5
   7  -4  19-16.0125 108.245   8
  -7   4 -19 13.0200 67.3146   3
  -7  -4  19-13.5880 103.533   8
  -4  -7  20 72.4182 139.793   5
   7   4 -20 27.0629 113.068   3
   7  -4  20 248.022 143.691   5
  -7  -4  20 36.2445 115.842   5
  -4   7 -20 250.495 133.895   2
   4  -7  20 19.3780 161.782   8
  -7   4 -20 170.105 125.975   3
   7  -4  20 216.473 159.282   8
   4   7 -20 191.586 130.718   3
  -7  -4  20 170.621 146.560   8
  -4   7 -21 13.6433 71.9278   3
  -4  -7  21 38.5272 149.416   8
   4  -7  21-39.9518 159.920   8
   7   4 -21-28.2507 70.3799   3
  -4   7 -21 56.0575 81.3414   2
  -7  -4  21-37.8236 97.7179   5
   4  -7  21 38.7980 110.759   5
   4   7 -21 40.6829 79.8686   2
  -7  -4  21-29.6920 111.398   8
   4   7 -22 127.063 105.119   3
   4  -7  22 102.502 149.032   5
  -4  -7  22 19.8933 161.828   8
   4   7 -22 196.044 112.545   2
  -4   7 -22 101.018 115.019   2
   7  -4  22 184.514 126.517   5
   4  -7  22-41.1275 169.025   8
  -4   7 -22 116.371 102.312   3
   7   4 -22-14.7119 87.4211   3
   7  -4  22 35.8076 140.308   8
  -4  -7  22 19.8334 129.458   5
   4   7 -23 57.7482 82.2376   2
   4  -7  23 63.4500 172.334   8
   4  -7  23 21.0783 111.549   5
  -4   7 -23 119.668 91.3625   3
   4   7 -23-15.2928 84.2849   3
   7  -4  23-21.6052 84.2014   5
   7  -4  23 18.5127 136.939   8
  -4  -7  23 21.0884 124.576   5
  -7   4 -23 16.0267 68.9112   3
  -4   7 -23-14.8411 68.9255   2
  -7  -4  23-32.1285 121.148   8
  -4  -7  23-20.1585 156.837   8
  -4   7 -24 60.9720 102.901   2
   4  -7  24 43.4406 159.920   8
   7  -4  24 17.5023 142.993   8
  -4   7 -24 46.0821 90.3403   3
   7  -4  24-22.2913 107.927   5
   4   7 -24 78.7096 99.5829   3
  -7   4 -24 16.5386 78.2584   3
   4  -7  24 86.5615 127.217   5
  -4  -7  24 41.5061 169.233   8
   4   7 -24 252.739 115.036   2
  -7  -4  24 116.592 136.893   8
  -4  -7  24 21.7094 125.732   5
  -4   7 -25 99.2841 114.258   3
  -7   4 -25 17.0383 96.2049   3
  -4  -7  25 111.575 138.505   5
  -4  -7  25 106.682 184.652   8
   4   7 -25 161.861 113.858   3
   7  -4  25 54.0970 171.157   8
   4  -7  25-22.8908 133.655   5
   4  -7  25 87.5906 174.519   8
  -4   7 -25 93.7889 117.763   2
   4   7 -25 290.444 123.774   2
   7  -4  25-22.9608 110.609   5
   4  -7  26 46.8927 151.438   5
   4   7 -26 104.372 121.090   3
  -4  -7  26 109.513 179.988   8
   7  -4  26 278.227 175.928   8
  -7  -4  26 35.5934 142.952   8
  -4   7 -26 118.666 124.771   3
  -7   4 -26 17.5249 96.8111   3
  -4   7 -26 80.0844 108.897   2
   4   7 -26 188.360 122.328   2
   7  -4  26 141.640 126.708   5
  -4  -7  26-23.3075 133.805   5
   4  -7  26 44.8584 176.850   8
   4  -7  27 23.9832 178.037   5
  -4  -7  27 202.134 228.080   8
   4   7 -27 124.849 149.932   3
   4   7 -27 627.656 188.200   2
   7  -4  27 342.811 212.764   8
  -4   7 -27 147.478 164.839   2
  -7   4 -27 17.9930 139.358   3
   4  -7  27 45.8934 214.145   8
  -7  -4  27 275.110 195.255   8
  -4   7 -27 138.738 159.196   3
  -4  -7  27 47.7912 183.918   5
   4  -7  28-49.8721 131.529   5
  -4   7 -28 16.7472 99.4208   2
   4   7 -28-36.5211 81.7435   3
  -4  -7  28 73.3678 117.158   5
   7  -4  28 39.0509 153.837   8
   4  -7  28 23.4513 163.582   8
  -4   7 -28 129.881 106.203   3
   4   7 -28 65.9207 100.653   2
  -4  -7  28 114.983 180.357   8
   4  -7  29-25.4394 125.123   5
   7  -4  29-19.9851 141.508   8
  -4  -7  29-76.4366 127.837   5
  -4   7 -29 75.7290 92.0975   3
   4   7 -29-56.0118 85.0283   3
  -4   7 -29 68.3573 110.243   2
   4  -7  29 215.444 201.037   8
  -4  -7  29 164.613 186.175   8
  -4   7 -30-34.8380 99.8373   2
  -4  -7  30-52.0265 108.322   5
  -4  -7  30 48.0265 190.182   8
   4  -7  30-25.9264 125.012   5
   4  -7  30-48.8006 206.412   8
  -4   7 -30-19.2963 95.9502   3
   4   7 -30-38.7963 103.832   3
  -4  -7  31-24.4923 182.201   8
   4   7 -31-59.3495 80.6178   3
  -4   7 -31-19.9839 90.4959   3
   4  -7  31-124.222 179.763   8
   4  -7  31 26.8993 125.211   5
  -4  -7  31-26.5283 114.846   5
  -4   7 -31-35.4751 104.597   2
   4  -7  32-82.0376 133.483   5
  -4   7 -32 40.6495 81.5948   3
   4  -7  32-25.2603 160.946   8
  -4  -7  32 216.065 129.097   5
   4   7 -32-20.1459 78.3849   3
  -4  -7  32 24.9440 180.589   8
   4   7 -33 40.9693 88.4883   3
   7   5  -1 28.5187 51.1420   6
   7   5  -2 147.621 64.5350   6
   7  -5   2-35.2965 74.5723   7
  -7   5  -3-9.57059 39.3057   4
   7   5  -3-35.3796 52.2853   6
   7  -5   3 23.3592 63.9262   7
   7   5  -4 19.7406 39.6226   7
   7  -5   4 22.9743 39.0676   6
   7  -5   4-9.02571 52.0886   5
  -7  -5   4-13.7477 41.4212   5
   7  -5   4 23.0506 59.1288   7
   7   5  -4 59.6531 44.8835   6
  -7   5  -4 66.6854 51.3750   4
  -7  -5   5-11.0538 174.195   1
   7  -5   5-9.42443 48.0446   5
   7   5  -5 24.8242 43.8440   6
   7  -5   5-11.4559 39.8161   6
   7  -5   5-22.9913 75.8859   7
  -7   5  -5 37.9066 52.6836   4
  -7  -5   5 7.28065 44.9209   5
   7   5  -5 28.7492 45.9812   7
   7  -5   6-11.4436 45.5844   6
  -5  -7   6 10.6087 54.1484   5
   7  -5   6-29.6362 52.6390   5
  -7  -5   6-15.4462 52.3374   5
  -7  -5   6 96.5573 184.491   1
  -7   5  -6 246.056 70.3258   4
   7   5  -6 37.1559 50.6605   7
   7  -5   6 11.3943 70.7230   7
   7   5  -6 63.2400 58.3979   6
  -7   5  -6-7.51806 28.8033   2
  -7   5  -7 15.8082 26.8315   2
   7  -5   7 11.4514 44.4938   6
   5  -7   7 49.6835 59.4669   5
  -5  -7   7-11.0111 56.0931   5
   7  -5   7-10.3289 55.5780   5
  -7  -5   7-41.6516 177.864   1
   7  -5   7-44.6324 67.6607   7
   7   5  -7-9.02349 43.4382   7
   5  -7   7 50.7240 57.3170   7
  -7   5  -7 37.8742 53.5487   4
   7  -5   7 10.3079 42.6788   8
   7  -5   8 11.4772 51.4613   6
  -5  -7   8 11.4595 56.1937   5
   7  -5   8 11.1875 66.1322   7
  -7   5  -8 16.5955 37.4783   2
   5  -7   8-25.7045 66.4238   5
   7   5  -8-6.76844 33.6401   2
  -7  -5   8 212.359 184.952   1
  -5   7  -8 29.3507 33.5689   2
   5  -7   8 30.0431 56.9642   7
   5  -7   8-12.7513 53.9028   8
  -7  -5   8 17.6421 47.4625   8
   5   7  -8 86.4736 42.4205   6
   7   5  -8 35.0791 46.4004   7
  -7   5  -8 121.222 66.1711   4
   5   7  -8-8.73501 28.0271   2
   7  -5   8-32.5616 56.5657   8
   7  -5   8-21.7406 65.2352   5
  -5   7  -9 70.9994 85.8018   2
   7  -5   9 22.5539 99.7212   7
  -7   5  -9 407.739 99.5813   3
   5  -7   9-13.3188 99.8891   5
   5   7  -9 9.11568 78.5751   2
   7   5  -9 245.547 92.9718   3
   7  -5   9 56.6123 99.2703   5
  -7   5  -9 60.5306 83.1263   2
  -7  -5   9-18.1792 91.9077   5
   7   5  -9 236.959 89.8726   2
   7  -5   9 114.346 101.630   8
   7  -5   9 11.5244 86.0167   6
   5  -7   9 9.82658 98.0821   7
  -5  -7   9 11.8435 86.6543   8
  -7   5  -9 393.101 111.843   4
  -7  -5   9 18.9125 90.8547   8
   7   5  -9 119.253 92.6308   7
   5  -7   9 39.6610 97.8104   8
  -5  -7   9-11.9488 96.0855   5
  -7  -5  10 10.1262 80.5615   8
  -5   7 -10 62.9683 61.6327   2
   5   7 -10 85.4463 61.6368   2
   5  -7  10-27.6311 76.1094   5
  -5  -7  10 12.4115 82.7712   5
   7  -5  10 46.8207 90.4756   5
   7   5 -10 179.901 70.0741   3
  -7   5 -10 192.705 77.4052   4
  -7  -5  10-9.72419 72.7397   5
   7   5 -10 89.6960 62.7453   2
  -7   5 -10 165.168 74.8773   3
   7  -5  10 12.0434 87.7541   8
  -5  -7  10 61.8711 77.8936   8
   5  -7  10-13.7201 78.1595   8
   7  -5  10-35.2894 86.9928   7
   5  -7  10-48.3467 76.1874   7
  -7   5 -10 45.5358 60.3593   2
   7  -5  10 34.7642 68.9574   6
   5  -7  11-28.5235 76.2313   5
  -5   7 -11 10.8947 40.5056   2
  -7   5 -11 17.2051 51.2586   3
   5   7 -11-9.92204 35.5638   2
  -5  -7  11 12.8238 68.5521   5
   7  -5  11-12.1524 74.3574   5
   7   5 -11 29.5388 47.5349   3
  -7  -5  11 41.5312 64.3699   5
  -7   5 -11 9.31937 42.4302   2
   7   5 -11 23.9658 42.7405   2
   5  -7  11 28.4878 76.1357   8
  -5  -7  11 12.9320 62.8955   8
   5  -7  11-28.2015 68.5729   7
  -7   5 -11-18.4799 62.8879   4
   7  -5  11-23.6998 78.0177   7
   7  -5  11-50.6898 95.7782   8
  -7  -5  11-10.8206 61.7118   8
   7  -5  11-11.6733 51.8426   6
   5   7 -12 687.288 352.462   2
   5   7 -12 875.548 355.390   3
  -7   5 -12 931.447 356.411   3
   7  -5  12-13.3222 348.180   8
  -7   5 -12 374.326 458.152   1
   5  -7  12 29.2892 346.367   5
  -5  -7  12 13.1521 347.467   5
  -5   7 -12 839.356 354.566   2
   7  -5  12 395.846 359.275   5
  -7   5 -12 783.762 353.469   2
   5  -7  12 29.5830 350.218   8
  -5  -7  12-13.5142 349.208   8
   7   5 -12 990.671 353.826   3
  -7  -5  12 134.763 346.347   5
  -7  -5  12 92.2431 348.983   8
   7  -5  12 70.6447 347.825   7
   7   5 -12 905.749 353.992   2
  -7   5 -12 1248.65 362.192   4
   7  -5  12 412.106 349.977   6
  -5   7 -13-10.5383 62.3252   3
   7   5 -13 35.3332 51.2393   2
   5  -7  13 91.1864 84.9452   5
  -5  -7  13 54.9230 90.2646   5
  -5  -7  13 14.1164 82.6857   8
  -7   5 -13 37.9324 57.9176   3
  -7  -5  13 12.2582 75.1027   8
   7  -5  13 13.4011 72.7617   5
  -7   5 -13 10.0373 46.3798   2
   5  -7  13-30.7143 99.5891   8
  -5   7 -13 11.6192 50.5937   2
   7  -5  13-11.8827 75.6783   7
   7  -5  13-27.9716 90.8535   8
  -7   5 -13-56.1996 326.274   1
   5   7 -13 68.1187 68.8128   3
  -7   5 -13 18.8214 67.2788   4
   5   7 -13 53.5919 53.6817   2
   7   5 -13 33.6886 47.5640   3
   7  -5  13-23.7869 58.0532   6
  -7  -5  13-23.8572 68.1889   5
  -7  -5  14 311.360 451.348   5
  -5  -7  14 58.9528 449.089   8
  -5   7 -14 1137.12 460.025   3
   5   7 -14 1156.11 459.547   3
  -7   5 -14 983.986 456.076   3
   7   5 -14 1275.81 457.787   3
   5  -7  14 15.4804 449.563   5
  -5  -7  14 14.1379 451.361   5
  -7   5 -14 851.933 454.522   2
  -7  -5  14 233.854 454.859   8
   7  -5  14 131.934 454.398   8
  -7   5 -14 1417.17 462.144   4
   7  -5  14 36.3232 450.780   7
   7  -5  14 547.578 457.849   5
   5  -7  14-15.9353 451.126   8
  -7   5 -14-184.857 564.155   1
  -5   7 -14 1290.15 462.616   2
   5   7 -14 1490.45 463.130   2
   7  -5  14 517.666 451.368   6
  -5   7 -15 56.1145 68.6951   3
   5   7 -15-11.3457 58.5564   2
   5   7 -15-20.9648 62.4619   3
   5  -7  15-15.8377 98.1687   5
  -5  -7  15 14.7355 97.0157   5
  -7  -5  15 27.4224 86.0806   5
   5  -7  15 16.5263 106.297   8
   7  -5  15 14.9143 81.0947   5
  -7   5 -15-11.0054 55.7450   2
  -5   7 -15 36.4685 51.2443   2
   7   5 -15 19.5418 55.7576   3
   7   5 -15-9.67380 48.0692   2
  -7  -5  15-26.9913 100.237   8
  -5  -7  15-30.7381 114.141   8
   7  -5  15 30.6723 105.454   8
  -7   5 -15-20.9373 62.3803   3
   7  -5  16 140.129 152.754   5
  -5   7 -16 139.516 143.886   3
   5  -7  16 16.4027 155.728   5
   5   7 -16 250.917 144.359   3
  -5  -7  16 15.3438 152.725   5
   5  -7  16 17.1240 161.984   8
  -5  -7  16 16.0084 172.084   8
  -7  -5  16 56.9229 161.077   8
   7   5 -16 194.733 143.220   3
   5   7 -16 390.042 153.322   2
  -7   5 -16 153.082 140.319   3
  -7   5 -16 213.372 144.709   2
   7   5 -16 265.186 144.641   2
   7  -5  16 112.136 166.927   8
  -5   7 -16 352.709 149.409   2
  -7  -5  16 14.9063 145.279   5
  -5  -7  17-15.9557 88.3011   5
  -7   5 -17 11.8023 63.2837   3
   5   7 -17-12.0008 53.5145   2
  -7  -5  17-59.8478 101.908   8
  -7  -5  17-15.6630 79.4180   5
   7  -5  17-49.2360 114.106   8
  -5   7 -17 24.0533 64.4782   3
   5  -7  17 33.9515 98.3521   5
  -5   7 -17-13.0402 56.6465   2
   7   5 -17 22.7464 57.7838   3
   5  -7  17 35.4525 111.358   8
  -7   5 -17-11.7093 55.9701   2
   5   7 -17-34.0452 65.8688   3
   7  -5  17-16.6606 92.1884   5
  -5  -7  17-49.9612 125.948   8
   7  -5  18 86.6775 95.5594   5
   5   7 -18 59.3459 76.1842   3
  -5   7 -18 12.4334 73.6945   3
   5  -7  18 17.5488 112.632   5
  -7   5 -18 12.2841 65.3271   3
   7   5 -18 11.9262 65.7065   3
  -5  -7  18 51.9027 129.448   8
   5  -7  18-18.3320 113.259   8
   7  -5  18 17.0828 118.513   8
  -7  -5  18-16.4219 99.0637   5
  -7   5 -18 12.1847 67.0469   2
  -7  -5  18-15.6920 121.656   8
   5   7 -18 74.8172 71.7976   2
  -5  -7  18-16.8293 111.911   5
  -5  -7  19-69.7960 114.545   5
   7   5 -19-13.0626 62.3891   3
   5   7 -19 110.811 76.8448   3
  -5  -7  19 17.9506 121.681   8
   5   7 -19 90.5439 71.7253   2
  -7  -5  19 15.2506 118.493   8
  -7   5 -19 63.8018 71.9808   3
   7  -5  19-35.4927 119.052   8
   7  -5  19-18.0029 98.9194   5
  -7   5 -19 50.6420 71.4757   2
  -7  -5  19-17.4806 80.9257   5
  -5   7 -20 196.339 125.580   2
  -7  -5  20 36.4855 125.100   5
   5  -7  20 39.0631 145.336   8
  -7   5 -20 180.677 118.672   3
   5   7 -20 171.686 116.261   3
   5  -7  20 132.860 141.253   5
   7  -5  20 173.319 140.070   5
  -5  -7  20 18.5521 134.151   5
  -7  -5  20 79.5636 147.248   8
   7   5 -20 40.8999 105.126   3
  -5   7 -21-43.3592 84.9113   2
   5   7 -21 27.0925 72.4667   2
  -7  -5  21 66.2949 122.002   8
  -7  -5  21-37.9823 86.4209   5
   5  -7  21-39.1017 131.609   5
  -5  -7  21 96.1838 153.916   8
   7  -5  21-19.0538 141.512   8
   5  -7  21 60.3970 152.162   8
  -5   7 -21 27.4892 81.9004   3
   7   5 -21-70.9892 84.5957   3
   7  -5  22 20.5953 91.5276   5
  -5  -7  22 19.8092 118.035   5
  -5  -7  22-79.4621 158.987   8
  -5   7 -22-29.2946 79.7641   3
   5  -7  22 20.7171 145.433   8
   7  -5  22-19.6922 134.042   8
   5   7 -22 42.3297 75.5645   3
  -7   5 -22 14.8711 72.4655   3
  -5   7 -22 59.5023 79.6461   2
   5   7 -22-13.9938 69.6119   2
   5  -7  22 20.6540 116.034   5
   7  -5  23-37.7507 135.922   8
   5  -7  23 170.408 163.063   8
   5   7 -23-14.4327 74.6289   2
  -7   5 -23-32.1250 76.3256   3
   7  -5  23 43.2431 99.5089   5
  -5  -7  23-63.2267 111.717   5
  -5   7 -23 59.7553 81.2955   2
  -7  -5  23 35.7227 121.177   8
   5   7 -23 30.5735 78.8611   3
   5  -7  23 84.8877 120.103   5
  -5  -7  23 61.4852 144.610   8
  -5   7 -23 45.1612 92.1514   3
  -7  -5  24 129.407 149.490   8
   5  -7  24 196.046 128.203   5
   7  -5  24-19.4470 130.863   8
  -5  -7  24 43.3984 125.929   5
   7  -5  24 44.5311 103.740   5
  -5   7 -24 46.3668 87.1984   3
  -7  -5  24 21.5736 98.6732   5
   5  -7  24-43.7362 158.197   8
   5   7 -24 47.2236 95.1374   3
  -5   7 -24 61.3451 96.7558   2
  -5  -7  24-82.9748 153.347   8
   5   7 -24 178.418 99.8823   2
   7   5 -24-16.1111 76.3781   3
  -7   5 -24 66.1914 82.9512   3
   5   7 -25 48.5733 88.9071   3
  -5  -7  25-21.3338 156.062   8
  -5   7 -25-78.6414 104.294   2
   5  -7  25-46.0758 123.749   5
  -5  -7  25-22.7013 124.022   5
  -7  -5  25-38.1927 148.525   8
   7  -5  25 22.8944 102.381   5
  -5   7 -25-116.527 99.9150   3
   5  -7  25-22.4242 165.489   8
  -7   5 -25-17.0149 85.3662   3
   5   7 -25-15.2927 86.7732   2
   7   5 -25 16.6373 60.8697   3
   7  -5  25 100.009 136.646   8
   5  -7  26 188.666 195.218   5
  -5  -7  26 21.9121 208.627   8
  -5  -7  26-23.3059 176.766   5
  -7  -5  26 216.612 210.099   8
   7  -5  26 119.792 178.730   5
  -5   7 -26 255.666 179.970   3
   5   7 -26 226.277 174.016   3
   7  -5  26 287.595 228.429   8
  -5   7 -26 338.206 180.931   2
   5   7 -26 439.736 179.728   2
   5  -7  26-22.5659 210.980   8
  -7   5 -26 35.5613 159.638   3
   5  -7  27-24.1242 107.050   5
  -5  -7  27 22.4712 162.315   8
  -7  -5  27 40.5363 143.614   8
  -5  -7  27 47.7917 127.681   5
   7  -5  27 73.6959 111.699   5
   5   7 -27-35.7043 86.7840   3
   5  -7  27 23.0801 174.398   8
  -7   5 -27-18.2296 72.3622   3
  -5   7 -27-34.8630 84.7399   3
   7  -5  27-21.0624 159.153   8
  -5   7 -27 49.4153 84.9314   2
   5   7 -27-16.1070 81.4993   2
   5  -7  28 117.896 193.617   8
  -7  -5  28 104.138 150.722   8
  -5  -7  28 184.072 191.843   8
  -5   7 -28 74.5795 96.1117   3
   5   7 -28 131.988 101.040   2
   5  -7  28-25.0678 119.820   5
  -5  -7  28 24.4701 124.551   5
   7  -5  28-25.1462 103.458   5
   5   7 -28-18.2773 89.1275   3
  -7   5 -28 18.6641 78.5345   3
   7  -5  28 43.1309 165.714   8
  -5   7 -28 50.4836 98.6378   2
   5   7 -29-16.8736 114.178   2
   5  -7  29-168.405 224.170   8
   5  -7  29-25.5755 145.403   5
  -5  -7  29-25.5011 133.526   5
  -5  -7  29-94.1202 190.160   8
  -5   7 -29-247.256 121.017   3
   7  -5  29-44.1021 170.612   8
  -7   5 -29-38.1590 98.5360   3
  -5   7 -29 17.1694 114.643   2
   5   7 -29-19.0231 106.976   3
  -7  -5  29-42.7285 164.275   8
   5   7 -30 172.362 102.353   2
  -5   7 -30-19.3808 93.8371   3
  -5  -7  30 72.1011 185.440   8
   5  -7  30-52.1133 115.933   5
   7  -5  30 225.143 179.850   8
  -5  -7  30 104.173 134.542   5
  -5   7 -30 69.9849 105.134   2
   5   7 -30-19.4220 81.2958   3
   5  -7  30-24.5159 163.861   8
   7  -5  31 68.8666 158.984   8
   5  -7  31 27.0183 127.226   5
   5   7 -31 39.6243 73.4914   3
  -5   7 -31-20.0714 91.1549   3
   5  -7  31-24.9531 186.282   8
  -5   7 -31 17.8102 98.7178   2
  -5  -7  31 26.5509 140.740   5
   5   7 -31 52.7399 94.3194   2
  -5  -7  31 73.5578 187.865   8
  -5  -7  32-49.9437 182.678   8
   5  -7  32 27.4614 122.763   5
  -5   7 -32-40.8040 87.1739   3
   5   7 -32 20.1801 76.3957   3
   5   7 -32 89.5282 91.8130   2
   7   6  -3-9.41021 45.2488   6
   7  -6   4 24.4507 68.1085   7
   7   6  -4 54.6769 61.2896   6
   7  -6   5-10.7279 54.4666   5
   7  -6   5 12.1570 70.8259   7
   7   6  -5 61.0007 53.1773   6
  -7   6  -6 9.90725 34.5028   4
  -6  -7   6 10.4846 47.9934   5
   7  -6   6 11.1254 52.0717   5
  -7  -6   6-9.02959 54.0397   5
   7   6  -6-8.37081 44.2978   6
   7  -6   6 59.9854 71.6338   7
   6  -7   7-12.6080 87.9286   5
  -6  -7   7 21.7813 85.1180   5
   7  -6   7-23.9325 95.8707   7
   7  -6   7 11.5706 86.7997   5
  -7  -6   7-9.45041 88.5676   5
   6  -7   7-22.7622 92.5534   7
  -7   6  -7-8.80426 67.1579   2
   7   6  -7 445.821 99.1989   6
  -7   6  -7 533.452 107.093   4
   7  -6   8-11.9106 35.6489   6
   7  -6   8 12.0558 68.8133   5
   6  -7   8-13.0401 62.1600   5
  -7  -6   8-9.92614 46.3438   8
  -7  -6   8 19.7211 53.7151   5
  -7   6  -8-18.3542 30.4298   2
  -6  -7   8-34.0427 64.7833   5
  -7   6  -8 9.86349 39.3232   4
   6  -7   8 55.9900 65.8345   7
   7  -6   8 11.9702 49.1099   8
   7  -6   8 11.8601 71.6733   7
  -6   7  -8 39.7007 37.0352   2
   7   6  -8 7.64118 27.5903   2
   7   6  -9-8.07797 28.1809   2
  -7   6  -9-9.57723 30.4343   2
   7  -6   9 23.8303 39.5045   6
   6  -7   9 13.4087 58.1892   8
   7  -6   9 12.4895 51.3191   8
  -7  -6   9 10.4922 44.4288   8
   7   6  -9 7.24261 44.5587   3
   6  -7   9 13.5070 69.8004   5
  -6  -7   9 11.7812 68.3270   5
   7  -6   9 12.5106 65.8571   5
  -7  -6   9 31.2544 60.4639   5
   7  -6   9 34.8229 83.9801   7
   6  -7   9-55.6839 65.5469   7
  -6  -7   9-11.7359 56.0502   8
  -7   6  -9 68.9011 50.9737   4
   6   7  -9-9.03288 30.1139   2
  -6   7  -9 30.8466 39.8046   2
   7  -6  10 11.9350 41.0284   6
   6   7 -10 9.44713 35.0810   2
  -6   7 -10 10.6647 38.1598   2
   7   6 -10-30.6319 55.3196   3
  -7   6 -10-9.97076 39.5792   2
   6  -7  10-27.8572 80.5836   5
  -6  -7  10 12.1772 65.0666   5
   7  -6  10 25.8352 79.0085   5
  -7  -6  10 21.6173 64.3482   5
  -6  -7  10-12.2703 54.4500   8
  -7  -6  10 11.0980 58.2702   8
   7  -6  10 13.0422 72.0504   8
   6  -7  10-11.0005 69.0317   7
  -7   6 -10-29.5731 54.4610   4
   6  -7  10 27.8169 64.7297   8
   7   6 -10 8.51905 36.8522   2
   7  -6  10 35.0261 81.9132   7
   7  -6  11 68.0974 84.5691   8
   7  -6  11 11.9731 42.0222   6
  -7   6 -11 18.6805 58.2323   3
   6   7 -11 19.7058 40.5837   2
   6  -7  11-14.4482 78.5661   5
   7   6 -11 56.0842 54.1360   3
  -6  -7  11 12.7289 75.0752   5
   7  -6  11-13.2401 79.0764   5
   7  -6  11 152.287 99.0163   7
  -7   6 -11 10.2996 47.9800   2
   7   6 -11 53.4438 48.9937   2
   6   7 -11-8.85304 54.6902   3
  -6  -7  11-25.6697 72.3909   8
  -6   7 -11 22.0694 48.6939   2
   6  -7  11-28.8627 75.8205   8
  -7   6 -11 118.611 60.6278   4
   6  -7  11-10.7357 72.1489   7
  -7  -6  11 11.7287 72.2754   8
  -7  -6  11-56.3286 74.7369   5
  -6   7 -12 45.4998 46.5606   4
   7  -6  12 12.0288 50.3152   6
   7  -6  12-42.6513 87.7511   8
   6   7 -12 46.2950 64.5467   3
   7  -6  12-41.4434 83.2142   5
   6  -7  12 14.8280 86.3905   5
   6  -7  12 44.9353 84.6338   8
  -6   7 -12 22.9052 53.4939   2
  -6  -7  12 39.1984 77.9956   5
   6   7 -12 61.8369 54.2436   2
   7   6 -12 59.2081 59.7144   3
  -7  -6  12-35.6566 76.3001   5
  -7   6 -12 42.9942 50.8394   2
   7  -6  12 24.4120 90.3530   7
  -7   6 -12 48.7348 60.1968   3
  -6  -7  12-13.4279 87.3906   8
  -7   6 -12 107.317 67.5746   4
  -7  -6  12 24.7713 75.3110   8
   7   6 -12 37.6187 43.9391   2
   7  -6  13 12.0983 216.172   6
  -6   7 -13 458.342 229.150   3
   6   7 -13 498.173 232.109   3
  -7   6 -13 704.445 235.870   3
  -6   7 -13 505.527 231.111   2
   6  -7  13 45.3101 227.989   5
  -6  -7  13-26.9476 227.806   5
   7   6 -13 507.960 226.650   3
   6   7 -13 532.971 231.095   2
  -7  -6  13 12.5285 224.933   5
   6  -7  13-31.0869 228.948   8
   7   6 -13 800.489 233.557   2
  -7   6 -13 523.286 228.671   2
   7  -6  13 29.6553 230.237   8
   7  -6  13 28.4323 227.881   5
  -7   6 -13 725.977 235.508   4
  -6  -7  13-42.1139 230.022   8
  -7  -6  13-52.2293 233.749   8
   7  -6  13-48.3871 230.364   7
  -7  -6  14 13.3845 78.6102   5
  -6   7 -14 22.1112 64.0175   3
   6   7 -14-10.0071 53.5376   3
   6  -7  14-15.6596 86.5477   5
  -7   6 -14 41.9405 63.3374   3
  -6  -7  14-14.0676 84.9420   5
   7  -6  14-29.6132 81.8384   5
   7   6 -14-9.44290 57.0543   3
   6  -7  14-48.3577 109.674   8
  -7   6 -14 11.3619 56.4303   2
   7   6 -14-10.1521 53.3690   2
  -7  -6  14 54.9698 92.5145   8
   7  -6  14-15.4533 94.5521   8
  -6  -7  14-58.6566 99.7804   8
  -6   7 -14-48.7658 59.3205   2
   6   7 -14 11.1361 51.8958   2
   6   7 -15 587.622 226.053   2
  -7  -6  15 57.7674 228.696   8
  -6   7 -15 328.864 223.104   3
  -7   6 -15 392.654 222.225   3
  -6  -7  15 44.0251 225.744   5
   7  -6  15 30.8207 223.764   5
   6  -7  15 33.4177 235.450   8
   7   6 -15 520.536 224.461   2
  -7  -6  15 42.1648 225.288   5
   6   7 -15 396.578 221.917   3
  -7   6 -15 354.845 221.037   2
   7   6 -15 565.414 224.131   3
  -6  -7  15-45.9072 225.547   8
  -6   7 -15 430.061 222.031   2
   6  -7  15 16.0108 225.853   5
   7  -6  15-16.0887 233.271   8
  -7  -6  16 15.1234 93.0343   5
  -6   7 -16 70.4730 80.2035   3
   6  -7  16-16.5752 98.2583   5
   6   7 -16 97.8921 73.6615   3
  -7   6 -16 56.6913 76.2193   3
   7  -6  16-16.0174 100.460   5
  -6   7 -16 38.1812 68.3220   2
  -7  -6  16-15.1434 109.825   8
   6   7 -16 35.3393 61.0945   2
   7   6 -16 131.018 73.0909   2
  -6  -7  16-45.8670 93.9357   5
  -6  -7  16-15.9496 110.766   8
  -7   6 -16 60.0021 65.2771   2
   6  -7  16 17.3036 118.190   8
   7   6 -16 64.6177 67.3792   3
   7  -6  16-16.7259 105.781   8
   7   6 -17 102.853 74.8299   2
  -6  -7  17 96.9414 94.5350   5
  -6   7 -17-12.1410 77.2717   3
   6  -7  17 17.1489 109.711   5
   7  -6  17 33.7663 95.6825   5
  -7   6 -17 23.7079 66.8460   3
   6  -7  17-35.8102 114.369   8
  -7  -6  17-31.6966 116.451   8
   7   6 -17 78.9120 64.8850   3
  -7   6 -17 12.4623 64.2362   2
   7  -6  17-17.3684 109.717   8
   6   7 -17 71.8136 70.4957   2
  -6   7 -17-13.1668 63.5681   2
  -6  -7  17-66.4118 121.813   8
   6   7 -17 91.1932 77.1829   3
  -7  -6  17-15.8166 92.6466   5
   6   7 -18 74.6637 74.0778   2
  -6   7 -18-25.0953 70.4234   3
   6  -7  18-17.7177 99.4392   5
   7  -6  18 52.5044 98.2258   5
  -6  -7  18 33.5767 94.2235   5
  -7  -6  18-16.5154 98.3144   5
  -7  -6  18 33.1082 126.156   8
   7   6 -18-11.7731 58.4040   3
  -7   6 -18-38.7614 67.8323   2
  -6  -7  18 17.2598 106.941   8
  -7   6 -18-12.2907 70.0505   3
   7   6 -18 11.6633 63.3816   2
   6   7 -18-11.8480 69.5436   3
   7  -6  18-72.0375 139.553   8
  -7  -6  19 138.057 186.783   8
   7  -6  19 37.1999 170.794   5
  -7  -6  19 53.2711 161.159   5
  -7   6 -19 139.973 151.695   3
   6   7 -19 193.779 159.101   2
   7   6 -19 328.330 157.241   2
   7   6 -19 322.293 162.562   3
   6   7 -19 369.307 163.863   3
  -6  -7  19-17.9161 178.355   8
  -6  -7  19 17.8789 168.197   5
   6  -7  20-57.4433 126.403   5
   7   6 -20 88.5658 85.5941   2
   6  -7  20 78.8274 156.525   8
  -7  -6  20 203.142 122.250   5
  -7  -6  20-52.9233 146.285   8
   6   7 -20 52.7875 85.7467   3
   7  -6  20-77.1366 187.681   8
  -6   7 -20 56.5736 94.1288   2
   7   6 -20 40.2251 82.7285   3
  -7   6 -20 13.5151 82.1874   2
  -6  -7  20 37.0521 114.041   5
  -6   7 -20 121.069 98.6462   3
  -7   6 -21-41.8665 105.233   2
   6  -7  21-20.2989 157.125   8
  -6   7 -21 87.4075 115.827   2
  -7   6 -21 84.3984 115.481   3
   7   6 -21 222.786 107.764   3
  -7  -6  21-39.0301 117.129   5
   7  -6  21 19.9085 153.280   8
   6  -7  21 78.8789 128.887   5
  -6  -7  21 192.190 166.115   8
  -6   7 -21 152.410 114.218   3
   7  -6  21 158.752 123.394   5
  -6  -7  22-39.7112 148.940   8
  -7  -6  22-18.9954 144.977   8
   6  -7  22-20.8177 111.509   5
  -7   6 -22-14.3869 81.1342   2
   6  -7  22-41.7770 140.783   8
   7  -6  22-20.1747 137.453   8
  -7   6 -22-15.2323 81.7699   3
   6   7 -22-44.4618 80.9278   3
  -6   7 -22 14.7572 81.9041   3
   7  -6  22 63.3130 111.080   5
  -6  -7  22 40.8542 107.534   5
   7   6 -22-27.2428 69.3653   2
   6   7 -22 13.9915 73.8818   2
  -6   7 -22-29.9820 81.8494   2
   6  -7  23-21.3876 123.731   5
  -6   7 -23 15.1650 72.1591   3
   7  -6  23-21.7213 103.354   5
  -6  -7  23-21.0686 128.856   5
   7  -6  23-20.7710 133.555   8
  -7  -6  23-39.3076 140.613   8
  -7  -6  23-20.9152 97.3315   5
  -7   6 -23 15.6815 80.8449   3
   6   7 -23 15.2921 72.7640   3
  -6   7 -23 15.4025 76.4093   2
   6  -7  23 21.4624 139.633   8
  -7   6 -23 14.8116 71.9933   2
   6   7 -23-43.3083 78.4502   2
   7   6 -23-15.6349 69.3739   3
  -6  -7  23 81.9592 140.843   8
   7   6 -24 64.5994 66.4135   3
   6  -7  24-67.9274 125.262   5
   7  -6  24 22.3268 110.965   5
   7  -6  24-42.7033 158.671   8
  -6  -7  24-21.7004 112.079   5
  -7  -6  24 20.2978 130.688   8
  -6   7 -24 15.5627 75.9475   3
  -7   6 -24 16.1225 75.3348   3
  -6  -7  24-63.3270 165.047   8
  -7  -6  24-44.0362 131.247   5
  -6   7 -24-46.3268 85.5740   2
   6   7 -24 44.6218 75.5533   2
  -7   6 -24 45.6855 89.6435   2
   6  -7  24 88.1056 163.677   8
   6   7 -24 15.7526 73.6205   3
   6  -7  25-22.5793 171.253   8
  -7   6 -25-15.6364 91.8930   2
  -6  -7  25 21.3441 156.662   8
   7  -6  25 21.9246 170.707   8
  -7  -6  25 41.8707 163.335   8
   7  -6  25 23.3193 123.050   5
  -6  -7  25 22.7109 122.198   5
  -7  -6  25 22.6919 111.243   5
   6   7 -25 33.9346 100.045   3
  -7   6 -25-17.3247 98.9556   3
  -6   7 -25 134.023 101.690   3
  -6   7 -25 63.3188 102.943   2
   6   7 -25 214.313 98.7873   2
   6  -7  25 23.1980 115.792   5
   7   6 -25 16.9423 79.4360   3
   6  -7  26 71.2404 108.107   5
   7  -6  26 22.4784 157.794   8
   7  -6  26-71.7049 111.364   5
  -6  -7  26-23.3241 131.020   5
  -7  -6  26-23.3574 95.7075   5
  -6   7 -26-16.2069 91.1271   2
   6   7 -26-34.8534 81.2837   3
   7   6 -26 34.8793 67.2396   3
  -7   6 -26-16.0308 78.1129   2
  -6  -7  26-43.8490 169.980   8
   6  -7  26 46.2401 160.663   8
  -6   7 -26 51.4592 86.9519   3
  -7   6 -26 106.569 93.4095   3
   6   7 -26 31.4522 73.3900   2
  -7  -6  26-86.1916 152.773   8
   6  -7  27 189.124 182.022   8
   7   6 -27-17.9203 82.1618   3
   7  -6  27-23.0172 158.968   8
   7  -6  27 48.9358 116.283   5
  -6  -7  27 23.9227 116.583   5
  -7  -6  27 221.498 179.630   8
  -7   6 -27 36.3726 99.0604   3
   6   7 -27 53.6246 87.5880   3
  -6  -7  27 89.9642 163.473   8
  -6   7 -27 16.5713 93.8746   2
  -6   7 -27 122.768 108.218   3
   6   7 -27 225.878 112.136   2
  -7   6 -27 65.6581 98.7478   2
  -7  -6  27 72.0033 132.797   5
   6  -7  27-24.7041 131.695   5
   6  -7  28-72.4147 169.804   8
  -6   7 -28 168.738 107.588   3
   7   6 -28 18.3872 76.2523   3
   7  -6  28-70.5984 170.436   8
  -7  -6  28-68.1902 167.714   8
   6  -7  28 100.869 125.721   5
   6   7 -28-18.6327 72.6844   3
   7  -6  28-50.9799 110.944   5
  -6  -7  28 23.0364 163.700   8
  -6  -7  28 24.9695 124.498   5
  -7   6 -28 56.7458 86.9069   3
  -6   7 -28-50.7751 110.823   2
   6   7 -28 33.0453 97.7868   2
  -7   6 -28 50.3345 85.7990   2
  -6   7 -29 17.2619 98.5323   2
   6   7 -29 19.0582 86.8191   3
   7  -6  29 96.1223 180.083   8
   6   7 -29-67.6133 119.888   2
   6  -7  29 123.135 214.472   8
  -7  -6  29-116.428 174.505   8
   6  -7  29-25.7215 135.145   5
  -6  -7  29-51.0777 138.889   5
  -6  -7  29 235.651 184.174   8
  -6   7 -29-57.3632 100.531   3
  -7   6 -29-38.6296 94.0362   3
  -7   6 -29-17.1327 102.133   2
  -7  -6  30-119.113 165.799   8
   6   7 -30 58.3899 77.9901   3
   6   7 -30 51.8144 97.5319   2
   6  -7  30-24.6579 173.323   8
   7  -6  30 122.526 194.800   8
   6  -7  30 52.3983 125.124   5
  -6  -7  30 26.0824 104.070   5
   7  -6  30-26.5356 109.083   5
  -6   7 -30 38.9528 102.816   3
  -6   7 -30 35.1726 94.5773   2
  -7   6 -30-39.3776 76.4193   3
  -6  -7  30-72.2097 192.834   8
   6  -7  31-27.1599 120.641   5
   6  -7  31 75.2473 186.310   8
   7  -6  31 27.0134 113.848   5
   7  -6  31 24.9569 173.418   8
   6   7 -31-35.2328 95.8976   2
  -7  -6  31 97.3307 196.208   8
  -6   7 -31 20.1617 85.0548   3
   6   7 -31 39.7092 78.9969   3
  -6  -7  31-49.1102 174.072   8
  -7   6 -31 20.0510 74.6489   3
  -6   7 -31-17.8950 94.1171   2
  -6  -7  32-50.0284 188.221   8
  -7   6 -32 20.3927 92.2336   3
   6   7 -32-53.8412 99.1545   2
  -7  -7   5 9.99369 49.7489   5
   7   7  -5-46.5940 51.0615   6
   7  -7   6 12.4048 77.5512   5
  -7  -7   6-10.3519 67.5396   5
   7  -7   6-38.1468 80.8701   7
   7   7  -6 231.130 79.2503   6
   7  -7   7 12.7994 66.0089   5
  -7  -7   7-21.5240 64.9726   5
   7  -7   7-12.5356 74.6436   7
   7   7  -7 8.57148 52.4533   6
   7  -7   8 13.2327 146.190   5
  -7  -7   8-11.2220 143.579   5
   7  -7   8-24.9653 147.320   7
  -7  -7   9 11.6631 68.5812   5
   7  -7   9-13.6025 58.9695   8
   7   7  -9-8.94601 31.0204   2
   7  -7   9 27.4010 77.0026   5
   7  -7   9-12.3490 66.1071   7
  -7   7  -9 31.2811 36.0718   2
  -7   7 -10 10.8099 36.0477   2
  -7   7 -10 10.2496 39.8161   4
  -7  -7  10-12.1622 48.6192   8
  -7  -7  10-12.0716 70.0800   5
   7  -7  10 12.0643 78.7066   7
   7  -7  10 14.1027 62.8460   8
   7  -7  10 14.1244 83.1105   5
   7   7 -10 18.7271 29.9535   2
  -7   7 -11-11.1795 41.5683   2
   7   7 -11 9.77928 33.6930   2
   7   7 -11 8.78550 55.8625   3
   7  -7  11-14.4875 85.0684   5
  -7  -7  11 12.4046 79.7940   5
   7  -7  11 102.401 94.0897   8
  -7   7 -11-20.4830 40.7126   4
  -7  -7  11-12.7353 60.6421   8
   7  -7  11-12.0625 82.0805   7
   7  -7  12-12.3922 51.1113   6
  -7   7 -12 69.5835 72.0145   2
   7   7 -12 46.0032 68.5513   3
   7   7 -12 71.6763 73.3990   2
  -7   7 -12 135.248 79.2257   3
   7  -7  12 60.0775 102.458   5
  -7  -7  12-38.9378 92.6147   5
  -7   7 -12 41.0005 56.7876   4
  -7  -7  12 40.0005 96.6929   8
   7  -7  12 12.1240 92.8342   7
   7  -7  12-15.1728 98.9311   8
  -7  -7  13-41.8575 80.7531   8
   7   7 -13-38.1159 59.8417   3
   7  -7  13 15.2914 91.0593   5
  -7   7 -13-12.0287 47.7976   2
   7   7 -13-10.6006 42.1384   2
  -7  -7  13 66.9841 92.1182   5
  -7   7 -13 64.7269 69.4057   3
   7  -7  13 47.2137 89.7294   8
  -7  -7  14-29.1847 204.953   8
   7   7 -14 532.059 205.898   2
   7  -7  14 16.3129 208.998   8
   7  -7  14 31.6928 205.185   5
   7   7 -14 437.981 202.738   3
  -7   7 -14 480.998 204.296   2
  -7  -7  14-14.0016 201.334   5
  -7   7 -14 212.498 198.390   3
  -7   7 -15-34.4001 72.8515   3
   7  -7  15 32.3881 101.620   5
   7   7 -15-10.3956 59.2561   3
  -7  -7  15 43.8484 93.9836   5
  -7   7 -15 12.7785 58.1055   2
  -7  -7  15-15.2402 91.9789   8
   7  -7  15-16.9023 104.730   8
   7   7 -15 22.5152 58.0439   2
  -7   7 -16-11.8690 68.1578   3
   7  -7  16 16.7596 92.9546   5
  -7  -7  16 46.4311 99.8630   5
  -7  -7  16 15.8972 111.838   8
  -7   7 -16 77.1823 63.0771   2
   7  -7  16 17.4961 98.5484   8
   7   7 -16-11.7444 64.3632   2
   7   7 -16-10.9204 66.4293   3
  -7  -7  17-32.2199 94.7587   5
  -7   7 -17-36.7991 69.1182   3
   7  -7  17-17.3307 101.910   5
   7   7 -17 11.3741 65.1175   3
   7   7 -17 48.9435 59.7897   2
  -7  -7  17-16.5604 113.999   8
  -7   7 -17-26.6044 63.5922   2
   7  -7  17-36.1942 117.899   8
   7  -7  18-35.7957 176.423   5
  -7  -7  18 34.4516 197.050   8
   7   7 -18 385.113 168.271   2
  -7  -7  18 51.5939 186.264   5
  -7   7 -18 329.475 175.601   3
   7   7 -18 189.294 170.657   3
   7   7 -19 25.4383 76.9170   3
   7  -7  19-38.5954 150.837   8
  -7   7 -19-14.1840 82.2034   2
  -7  -7  19-71.5448 142.050   8
   7   7 -19-12.9011 86.0037   2
  -7  -7  19 35.7136 117.621   5
  -7  -7  20 18.5060 341.664   5
   7   7 -20 659.414 343.676   3
  -7   7 -20 528.162 349.171   2
   7  -7  20 39.7911 355.953   8
  -7   7 -20 868.506 350.767   3
   7  -7  20 289.918 350.604   5
   7  -7  21-81.6954 121.020   5
   7  -7  21-20.4860 153.000   8
  -7   7 -21-14.6951 86.6146   2
  -7  -7  21 19.2085 143.574   8
  -7   7 -21-14.4712 91.1824   3
   7  -7  22 63.1984 154.915   8
  -7   7 -22 44.6494 98.9367   3
  -7   7 -22 90.6825 96.7070   2
   7   7 -22 143.256 98.1399   2
   7  -7  22 62.9974 117.799   5
  -7  -7  22-79.4172 163.102   8
   7   7 -22 44.4773 90.6377   3
  -7  -7  22 61.2781 125.339   5
   7   7 -23-15.3047 75.1960   3
   7  -7  23-43.2853 142.856   8
  -7  -7  23-61.4951 157.915   8
  -7  -7  23-21.0771 113.147   5
  -7   7 -23-15.2863 71.9797   3
  -7   7 -23-31.0471 76.2482   2
   7   7 -23 14.4462 77.9627   2
   7  -7  23 21.5668 109.658   5
   7  -7  24-22.8213 138.829   5
  -7  -7  24-44.1967 132.703   5
  -7   7 -24 65.8941 89.7332   3
   7   7 -24 16.5104 83.7466   3
   7   7 -24 74.4535 91.5478   2
  -7  -7  24 84.4903 167.253   8
   7  -7  24 66.6145 167.241   8
  -7   7 -24-31.8524 108.583   2
  -7   7 -25-48.9735 80.0177   2
  -7  -7  25 68.2033 113.253   5
  -7   7 -25 16.8733 95.2640   3
   7   7 -25 33.9816 68.2195   3
   7   7 -25 30.6484 82.5271   2
  -7  -7  25-21.7350 165.961   8
   7  -7  25-22.7500 170.723   8
   7  -7  25 116.871 129.534   5
   7  -7  26-23.2883 159.897   8
   7  -7  26-23.9205 120.651   5
  -7  -7  26 116.786 110.862   5
  -7   7 -26 51.8006 99.3340   3
  -7   7 -26 16.7059 85.6965   2
   7   7 -26-17.4573 72.6346   3
   7   7 -26 94.4911 96.2536   2
  -7  -7  26 22.3343 179.977   8
  -7   7 -27 36.9599 88.8333   3
   7  -7  27 166.644 181.862   8
  -7  -7  27 90.0981 172.119   8
   7  -7  27-49.7564 131.218   5
   7   7 -27-18.2226 79.8128   3
  -7   7 -27-16.6794 90.0065   2
  -7  -7  27 48.8363 121.788   5
   7  -7  28 177.721 205.146   5
  -7  -7  28 253.866 266.379   8
  -7  -7  28 125.076 191.858   5
   7  -7  28 558.932 283.889   8
  -7   7 -28 75.4611 140.004   3
  -7   7 -28 51.0938 139.177   2
   7  -7  29-24.7829 161.241   8
   7  -7  29 77.6442 108.950   5
  -7   7 -29 19.2359 83.1981   3
  -7  -7  29-23.6092 181.443   8
  -7   7 -29-34.7326 89.5379   2
  -7   7 -30 17.6828 100.316   2
   7  -7  30-75.7051 184.502   8
  -7  -7  30-24.1293 168.468   8
   7  -7  30-107.448 138.572   5
  -7   7 -30-117.533 113.034   3
  -7   7 -31 20.2743 83.8527   3
  -7   7 -31 53.9660 101.714   2
   7  -7  31 27.3112 105.670   5
   7  -7  31-102.689 184.087   8
  -8   0   0 231.542 231.712   4
   8   0   0 525.548 242.534   7
   8   0   0 269.202 230.926   6
  -8   0   1 16.4039 57.0890   4
   8   0  -1 19.7736 51.1110   6
   8   0  -1-22.1747 63.3056   7
   8   0   1-9.76102 44.5414   6
   8   0   1 11.1265 62.5619   7
  -8   0  -1 16.0767 56.5209   4
   8   0   2 1066.72 559.096   6
   8   0  -2 1423.11 566.006   7
  -8   0  -2 750.876 556.961   4
  -8   0   2 625.715 556.768   4
   8   0  -2 445.948 554.028   6
   8   0  -3 10.7909 49.0855   6
   8   0  -3-10.5275 60.9220   7
  -8   0  -3-2.04729 12.1142   2
  -8   0  -3 8.00794 60.5268   4
  -8   0   3-8.41784 54.7872   4
   8   0   3-9.90590 45.0639   6
   8   0   3-2.77394 22.4110   8
   8   0   4 231.397 166.241   7
   8   0  -4 409.397 167.299   7
  -8   0  -4 154.371 153.270   4
   8   0   4 239.763 145.480   8
  -8   0   4 145.649 151.049   4
   8   0   4 201.052 152.908   6
   8   0  -4 86.0847 148.500   6
  -8   0   4 197.437 140.673   8
   8   0  -5 75.2631 85.5758   6
   8   0   5 61.2644 84.7611   6
   8   0   5 184.581 78.5975   8
  -8   0   5 18.4791 57.0959   8
  -8   0  -5 65.4532 96.7505   4
   8   0   5 225.082 121.613   7
  -8   0   5 26.3408 81.4966   4
   8   0  -5 75.0311 93.6237   7
   8   0  -6-10.7640 191.049   6
  -8   0   6 380.396 189.875   8
   8   0   6 381.922 193.455   8
   8   0  -6 160.943 200.000   7
   8   0   6 277.216 204.581   7
   8   0   6 259.682 200.474   6
  -8   0   6 149.468 194.506   4
   8   0  -7 21.5953 41.4958   6
   8   0   7-4.98502 39.5724   8
  -8   0   7-3.53435 24.5551   8
   8   0   7-37.2632 68.6174   7
   8   0  -7 21.5223 67.5280   7
   8   0   7-10.6917 59.0651   6
  -8   0   7-8.97771 40.8232   4
   8   0  -8-10.8511 34.0686   6
   0  -8   8-13.2473 52.5887   5
  -8   0   8 16.5514 24.6654   8
   8   0  -8-32.6937 68.3948   7
   0   8  -8-10.0913 28.3473   2
   8   0   8-10.8977 55.1456   6
   8   0   8 37.3752 38.9486   8
  -8   0   8-72.3654 42.1141   4
  -8   0  -8-88.4802 260.908   1
   8   0   8 12.6616 62.8238   7
   0  -8   9 13.6718 62.3092   5
  -8   0   9 18.9559 31.4848   8
   8   0   9 65.2853 74.5427   7
   0   8  -9-10.4191 31.3105   2
   8   0   9-11.1165 61.5592   6
   8   0  -9-21.9446 71.5152   7
   0  -8   9 13.5581 46.7968   8
  -8   0  -9-75.2570 264.229   1
   0   8 -10 172.344 98.5720   2
   8   0  10 161.480 107.746   6
   0  -8  10 14.0172 100.569   8
   0  -8  10-56.5111 109.259   5
  -8   0 -10 338.092 270.836   1
   8   0  10 259.963 98.7882   8
   8   0  10 53.3196 104.070   7
   8   0 -10 11.1630 100.946   7
   8   0 -11-45.0998 63.7553   7
   0  -8  11-14.6114 72.8985   5
   8   0  11-35.3420 63.4206   6
   0  -8  11 58.0165 70.9243   8
   8   0  11-13.9080 49.4013   8
   8   0  11 13.6297 62.4540   7
  -8   0 -11 47.1039 247.904   1
   0   8 -11-11.1127 38.9760   2
  -8   0 -12-96.2933 424.908   1
   0  -8  12 60.1600 354.600   5
   8   0  12 209.262 354.270   7
   8   0 -12 22.8129 352.025   7
   0  -8  12 15.0155 353.633   8
   8   0  12 722.287 363.424   6
   0   8 -12 1541.51 373.834   2
   8   0  12 1459.47 365.554   8
  -8   0 -13 98.4595 229.095   1
   0  -8  13-31.1268 102.427   5
   0   8 -13 11.7818 50.9572   2
   8   0  13-12.3061 69.0704   6
   8   0  13 8.16562 51.2431   8
   8   0  13 14.2604 61.6754   7
   0  -8  13-15.5457 85.8775   8
   0  -8  14 31.8623 589.632   5
   8   0  14 742.463 593.311   6
   8   0  14 1612.61 597.332   8
   0  -8  14-32.1846 590.409   8
  -8   0 -14 67.1207 620.988   1
   0   8 -14 2280.78 608.191   2
   0   8 -15 11.4482 65.2797   3
   0  -8  15-32.3631 117.993   5
   0  -8  15-66.6077 115.665   8
   0   8 -15 12.6215 57.4202   2
   8   0  15 18.7138 54.9585   8
   8   0  15-12.9625 70.4701   6
   0   8 -16 331.496 161.863   3
   0  -8  16 16.7272 165.183   5
   8   0  16 159.132 155.412   6
   0  -8  16-68.8897 185.913   8
   0   8 -16 253.837 154.747   2
   8   0  16 248.574 154.773   8
   0  -8  17-34.1087 109.090   5
   0   8 -17-36.3291 74.1681   3
   0  -8  17-17.7969 124.152   8
   0   8 -17-39.3517 64.6126   2
   8   0  17-13.5656 80.1651   6
   0   8 -18 12.5029 78.5079   3
   0  -8  18-35.2043 100.364   5
   0   8 -20 84.3382 76.9324   2
   0   8 -20-13.2817 86.4934   3
   0  -8  20 37.4089 114.498   5
   0  -8  20 97.6932 144.820   8
   0  -8  21 20.1178 147.292   8
   0  -8  21-97.7443 140.747   5
   0   8 -21-72.3586 86.9580   2
   0   8 -21-41.0156 85.2346   3
   0   8 -22-28.3108 77.2519   3
   0  -8  22 20.6892 151.007   8
   0   8 -22-14.8834 85.1249   2
   0  -8  22 180.877 136.883   5
   0   8 -23 14.5416 79.8170   3
   0  -8  23 20.6401 125.068   5
   0  -8  23-63.7638 153.931   8
   0   8 -23-45.8723 81.0581   2
   0   8 -24 417.085 198.912   3
   0  -8  24 43.6145 228.396   8
   0   8 -24 219.645 189.214   2
   0  -8  24 108.668 211.103   5
   0  -8  25 22.3515 166.009   8
   0   8 -25-15.8308 84.7001   3
   0  -8  25-66.8047 134.463   5
   0   8 -25 15.7090 82.5929   2
   0  -8  26 159.544 197.095   5
   0  -8  26-45.7668 220.926   8
   0   8 -26 291.711 176.988   3
   0   8 -26 209.085 177.135   2
   0   8 -27-34.8072 97.1301   3
   0   8 -27-32.8989 79.4847   2
   0  -8  27 93.5849 180.335   8
   0  -8  27-24.0352 115.199   5
   0   8 -28 195.511 155.347   3
   0  -8  28 119.475 224.639   8
   0  -8  28-24.5416 169.474   5
   0   8 -28 268.815 162.606   2
   0   8 -29-18.1321 87.2155   3
   0  -8  29-50.0655 141.073   5
   0  -8  29 24.3787 174.883   8
   0   8 -29-17.1354 90.8614   2
   0  -8  30-49.6763 205.571   8
   0  -8  30-77.8448 157.558   5
   0   8 -30-19.3410 111.263   3
   0   8 -30-52.3947 112.581   2
   0  -8  31 101.121 200.774   8
   0  -8  31-52.8093 136.304   5
   0   8 -31-19.6836 89.7655   3
   0   8 -31-17.7699 119.779   2
   0  -8  32-26.8322 133.593   5
   0   8 -32 40.0091 107.486   3
   8  -1   0 295.867 200.174   7
  -8  -1   0 107.774 190.992   4
   8   1   0 275.864 193.242   6
  -8   1   0 383.593 196.631   4
   8   1   0 383.129 203.642   7
   8  -1   0 203.345 193.908   6
  -8  -1   0 207.504 308.323   1
   8  -1   1 1352.14 743.366   5
   8  -1  -1 901.995 750.399   7
   8   1   1 1310.30 753.226   7
   8   1  -1 1568.87 754.836   7
  -8  -1   1 891.700 747.597   4
  -8   1  -1 1335.42 751.161   4
  -8  -1  -1 569.843 746.447   4
   8  -1  -1 512.493 746.218   6
   8   1   1 955.194 748.629   6
   8   1  -1 1062.96 749.038   6
   8  -1   1 947.497 749.469   6
  -8  -1  -1 805.010 783.186   1
  -8   1   1 1116.40 749.574   4
   8   1  -2 112.658 87.1867   6
  -8  -1  -2 23.5708 86.8981   4
   8   1   2 159.109 98.6477   7
  -8  -1   2 54.1690 86.6927   4
   8  -1   2 107.352 70.6853   5
   8   1  -2 85.6018 91.3021   7
  -8   1  -2 102.199 96.1584   4
   8  -1  -2 32.5192 90.5996   7
  -8   1   2 79.5782 88.6261   4
   8   1   2 9.79579 79.8439   6
  -8   1  -2 124.419 69.2431   3
   8  -1   2 102.771 86.6628   6
   8  -1  -2 33.3457 82.6061   6
   8  -1  -3 66.6595 180.717   6
   8  -1   3-10.7844 174.481   8
  -8   1  -3 489.796 177.449   3
   8  -1   3 413.557 178.664   5
  -8   1  -3 686.705 196.495   4
   8   1   3 396.445 175.863   8
  -8   1   3 235.674 186.650   4
  -8  -1   3 278.901 188.212   4
   8  -1   3 511.971 199.619   7
   8   1  -3 839.530 208.700   7
   8  -1  -3 155.019 188.514   7
   8   1   3 438.334 190.106   6
   8  -1   3 432.368 191.192   6
   8   1  -3 307.123 188.459   6
  -8   1  -3-2.76151 173.532   2
   8  -1   4 134.624 59.2089   5
   8  -1  -4 33.3757 60.7524   6
   8  -1  -4 55.4376 83.3360   7
  -8   1  -4-13.1850 50.4347   2
  -8   1  -4 174.324 52.8003   3
   8   1   4 184.971 51.3756   8
   8   1  -4 32.1227 43.6934   2
  -8   1  -4 200.724 89.8668   4
   8  -1   4 197.003 104.223   7
  -8  -1   4-13.4213 50.7336   8
   8   1  -4 128.184 90.2422   7
  -8  -1   4 82.0811 79.4826   4
   8   1   4 235.792 81.2643   6
  -8   1   4 54.4733 65.2436   4
   8  -1   4 121.999 74.2022   6
   8   1  -4 150.882 75.0051   6
   8  -1   4-21.7538 62.0244   8
  -8  -1  -5-183.881 305.032   1
   8  -1  -5 11.1618 80.1964   6
  -8   1  -5 343.351 85.9661   3
  -8   1  -5 148.147 110.267   4
   8  -1   5 107.973 89.5723   8
  -8  -1   5 56.1792 73.7391   8
   8   1   5 104.114 74.7670   8
  -8   1  -5 11.0873 71.9627   2
   8  -1   5 129.101 117.690   7
   8   1   5-12.1401 113.064   7
   8  -1  -5 67.2630 98.9489   7
   8   1  -5 20.4880 114.036   7
  -8  -1   5 24.4927 91.7778   4
   8   1   5 83.5907 91.1474   6
   8  -1   5 41.1820 89.3320   6
  -8   1   5 83.4459 86.7422   4
   8   1  -5 83.6671 102.841   6
   8  -1   5 259.728 94.1821   5
  -8   1  -6 78.6648 67.8660   3
   8  -1  -6 33.7996 88.3271   7
   8  -1  -6 11.2187 69.2344   6
   8  -1   6 11.8905 99.7052   7
  -8  -1   6 107.956 84.9016   4
   8  -1   6 156.128 73.2640   5
  -8  -1   6 179.789 70.6626   8
   8   1   6 154.799 70.2520   8
  -8   1  -6 125.169 93.9099   4
   8  -1   6 99.4483 78.9843   8
   8   1  -6 173.513 100.691   7
   8   1   6 62.5878 87.6843   7
  -8   1  -6 8.35800 65.1590   2
  -8  -1  -6-129.923 262.509   1
   8  -1   6 113.652 89.3678   6
   8   1   6 140.845 87.2174   6
   8   1  -6 10.4196 76.2613   6
  -8   1   6 28.0277 76.3305   4
  -8   1   7 18.8175 105.330   4
   8   1  -7 31.2129 109.083   6
  -8   1  -7 79.0528 104.468   3
  -8   1  -7 157.779 315.257   1
  -8  -1   7 76.5385 112.793   4
   8   1   7 232.269 123.179   6
   8  -1   7 198.071 115.354   8
   8  -1   7 227.425 111.401   5
  -8  -1   7 176.377 106.443   8
   8   1   7 167.754 106.364   8
   8  -1   7 218.968 130.988   7
   8   1   7 76.6842 121.898   7
  -8  -1  -7-265.396 267.000   1
   8   1  -7 395.871 133.362   7
   8  -1  -7 34.3374 116.680   7
   8  -1   7 146.863 118.283   6
  -8   1  -7 177.883 124.599   4
  -8   1  -8 14.5697 329.198   1
   1  -8   8 13.3852 177.753   5
  -1  -8   8 13.1192 175.401   5
   8   1   8 512.084 176.648   8
  -8  -1  -8 120.535 289.489   1
  -8  -1   8 499.344 175.804   8
   8  -1   8 351.166 178.302   5
   8  -1   8 420.463 194.040   7
   8   1   8 196.051 184.678   7
   8   1   8 180.776 181.987   6
  -8   1  -8 159.819 171.281   3
   8   1  -8 781.731 195.621   7
  -8  -1   8 43.3063 174.494   4
   8  -1  -8-11.5414 178.639   7
   8  -1   8 479.639 190.303   6
   1   8  -8-9.99564 168.828   2
  -8   1  -8 324.236 184.258   4
   8   1  -8 10.4073 170.593   6
   8   1   9 66.8009 69.0811   7
   8   1  -9-10.4330 54.1656   6
  -8  -1   9-17.4076 58.0752   4
   1  -8   9-27.6158 75.8313   5
  -1  -8   9 13.5456 71.0361   5
  -8   1  -9-207.671 289.003   1
  -8  -1  -9-61.6168 236.340   1
   8  -1   9 97.6065 77.1309   6
  -8  -1   9 170.064 56.9790   8
   8  -1   9 63.6715 80.8817   7
  -1  -8   9-13.4309 62.6083   8
   8  -1  -9-11.6737 75.6732   7
   8   1   9 81.4298 71.8583   6
   8   1  -9 83.1853 85.9879   7
   1   8  -9 61.9493 50.8741   2
  -8  -1  10-8.74309 104.593   4
   1   8 -10 181.548 113.654   2
   1  -8  10-14.2618 119.545   5
  -1  -8  10-14.0054 120.500   5
  -8   1 -10 66.1962 105.661   3
   8  -1  10 348.814 119.167   8
   8  -1  10 168.743 111.391   5
   8   1  10 346.417 114.869   8
   8   1  10 13.6834 114.103   7
   8  -1  10 168.625 130.414   7
   8   1 -10 135.735 124.364   7
   8   1  10 95.1594 117.414   6
   8  -1  10 331.400 131.200   6
  -1  -8  10 13.8936 113.694   8
  -8   1 -10 75.4762 297.683   1
   1   8 -11 1036.23 319.674   2
   1  -8  11 88.4570 310.071   5
  -1  -8  11-14.4916 308.372   5
   8   1  11 813.868 310.396   8
  -8  -1 -11-209.542 376.747   1
   8  -1  11 692.573 313.484   5
   8   1  11 195.971 308.078   7
  -1  -8  11-28.7667 308.897   8
   8  -1  11 267.286 313.812   7
  -8   1 -11 30.7874 406.309   1
  -8   1 -11 96.2604 301.715   3
   8   1 -11 241.588 309.533   7
   8   1  11 279.847 311.124   6
   8  -1  11 614.542 317.983   6
  -8  -1  11 898.546 310.703   8
   8  -1  11 1014.53 316.266   8
  -8   1 -12 94.2303 312.633   1
   1  -8  12-15.1681 156.405   5
  -1  -8  12-14.9239 156.482   5
   1   8 -12 525.203 161.391   2
   8  -1  12 348.177 163.405   6
   8  -1  12 497.992 158.648   8
  -8  -1  12 296.281 149.250   8
   8  -1  12-13.6334 152.003   7
  -1  -8  12 29.7942 157.802   8
  -8   1 -12 52.1173 140.038   3
   8   1  12 124.490 155.876   6
   8   1 -12 117.370 152.574   7
  -8  -1 -12 115.461 244.658   1
   1  -8  13-15.6883 273.791   5
  -1  -8  13 15.2850 274.863   5
  -8   1 -13 288.626 379.930   1
  -1  -8  13 46.2963 275.539   8
   8   1 -13 43.0899 271.431   7
   8  -1  13 1445.11 298.327   6
   8  -1  13 13.9272 268.418   7
  -8   1 -13 65.4409 264.516   3
   8   1  13 471.377 283.554   6
   8  -1  13 1423.08 293.093   8
   1   8 -13 1895.36 305.308   2
   1   8 -14 109.942 93.7328   3
  -1  -8  14-15.8224 105.098   5
   1  -8  14-48.1514 117.396   5
  -8   1 -14 212.880 268.295   1
   8  -1  14 223.387 98.8635   8
   8  -1  14 42.7364 90.2260   7
   8   1 -14 21.7796 95.7341   7
   8  -1  14 96.7661 95.8446   6
  -8  -1  14 159.258 87.7681   8
   1   8 -14 96.9392 89.7105   2
  -1  -8  14 79.9120 118.117   8
  -1   8 -15 1014.25 490.377   3
   1   8 -15 967.319 490.059   3
  -1  -8  15-96.4704 485.197   5
   8  -1  15 1278.79 488.683   8
  -1  -8  15-446.751 493.658   8
   1  -8  15-48.8854 482.847   5
  -8  -1  15 1028.60 483.898   8
   8  -1  15 1087.17 490.281   6
   1   8 -15 1329.72 494.135   2
  -8   1 -15-368.048 542.494   1
  -1  -8  16-33.2559 122.768   5
  -1  -8  16-17.1195 130.713   8
  -1   8 -16 95.3087 110.691   3
   1   8 -16 82.4160 104.902   3
   1  -8  16-50.5108 120.315   5
   1   8 -16 265.045 110.855   2
   8  -1  16 178.762 113.309   8
  -8  -1  16 155.927 100.091   8
   8  -1  16 89.8129 104.373   6
  -1   8 -17 36.5375 87.3164   3
   1   8 -17 96.3831 92.9789   3
   1  -8  17 85.7939 117.525   5
  -1  -8  17 53.0998 126.946   8
  -1  -8  17 50.8812 106.178   5
   1   8 -17 65.2492 85.4049   2
   8  -1  17 77.7765 80.9167   8
   8  -1  17 39.3389 92.3624   6
  -1   8 -18 201.138 141.210   3
   1   8 -18 261.346 143.820   3
   1  -8  18-53.1164 145.804   5
  -1  -8  18 17.5124 147.134   5
   8  -1  18 134.050 133.900   6
   8  -1  18 245.671 135.609   8
   8  -1  19-27.4114 81.7716   6
   8  -1  19 12.2752 79.1171   8
   1   8 -20 294.019 127.537   2
  -1   8 -20 120.094 120.949   3
   1  -8  20 18.7967 150.251   5
   8  -1  20 51.3653 120.255   8
  -1  -8  20 38.9081 161.934   8
   1  -8  21 19.6420 132.859   5
  -1   8 -21 82.3866 88.3174   3
   1   8 -21 72.0964 79.3247   2
   1   8 -21-13.7167 82.8177   3
  -1   8 -21 58.1413 82.4679   2
  -1  -8  21-38.9422 122.948   5
  -1  -8  21-60.1136 145.306   8
   1   8 -22 148.346 113.521   2
   1   8 -22 112.887 105.810   3
  -1  -8  22 20.0244 126.436   5
   1  -8  22 20.1864 131.889   5
  -1   8 -22 56.8483 99.5835   3
  -1   8 -22 149.438 107.187   2
  -1  -8  22-61.8422 154.440   8
  -1   8 -23 15.3443 73.3309   2
   1   8 -23 121.965 92.2611   2
   1   8 -23 14.5000 81.6675   3
  -1  -8  23-63.5386 160.177   8
  -1  -8  23-20.5719 120.942   5
  -1   8 -23-29.1895 83.4631   3
   1  -8  23-20.7249 123.562   5
  -1  -8  24 21.7419 164.812   8
  -1  -8  24-43.3373 141.649   5
   1   8 -24 107.857 96.3256   3
  -1   8 -24 92.9969 101.514   3
  -1   8 -24 94.4570 92.7386   2
   1   8 -24 109.533 94.9151   2
   1  -8  24-65.4485 137.473   5
   1   8 -25 379.078 257.159   3
   1  -8  25 111.731 266.101   5
  -1   8 -25 365.228 265.470   3
  -1   8 -25 742.009 273.537   2
  -1  -8  25 111.042 269.355   5
   1   8 -25 376.135 260.086   2
  -1  -8  25-44.5797 279.399   8
  -1  -8  26-91.2817 179.874   8
  -1  -8  26 23.4581 158.040   5
   1  -8  26-114.782 180.943   8
  -1   8 -26 16.2517 82.5792   3
   1   8 -26-16.1739 82.1872   3
   1   8 -26 16.0492 94.5187   2
  -1   8 -26 112.907 92.2537   2
   1  -8  26 22.8654 147.223   5
   1   8 -27 689.590 293.472   2
   1  -8  27 24.1061 286.385   5
  -1  -8  27 47.9637 282.102   5
  -1   8 -27 436.202 280.915   3
   1   8 -27 434.340 281.239   3
   1  -8  27 93.8582 310.355   8
  -1   8 -27 593.540 291.021   2
  -1  -8  27 46.6898 312.434   8
   1  -8  28 71.8759 175.585   8
  -1   8 -28 142.513 106.074   3
   1   8 -28 17.7469 88.0859   3
  -1   8 -28-33.6699 94.6939   2
   1  -8  28 24.6076 147.569   5
   1   8 -28 16.7741 89.8534   2
  -1  -8  28 95.3955 169.917   8
  -1  -8  28-122.469 142.819   5
   1  -8  29-25.0938 130.825   5
  -1  -8  29 76.2979 139.571   5
  -1   8 -29 68.6887 99.7905   2
   1   8 -29 102.679 106.461   2
   1   8 -29-54.3275 90.1483   3
  -1   8 -29-18.1691 84.8719   3
  -1  -8  29 48.6598 173.482   8
   1  -8  29 97.7537 175.925   8
   1   8 -30-34.8781 116.400   2
  -1  -8  30-74.4085 187.616   8
   1  -8  30 78.0213 148.487   5
  -1  -8  30-51.8203 138.714   5
  -1   8 -30-19.3762 105.663   3
   1   8 -30-57.9631 126.010   3
  -1   8 -30 34.9844 98.5684   2
   1  -8  30 24.8931 186.670   8
   1  -8  31-126.652 204.223   8
   1  -8  31-79.3752 128.688   5
  -1   8 -31 78.8612 101.750   3
   1   8 -31-19.6662 87.3882   3
  -1   8 -31-17.8000 107.527   2
   1   8 -31-17.7541 99.7565   2
  -1  -8  31 52.7449 130.912   5
  -1  -8  31 25.2477 178.951   8
   1  -8  32 26.8807 130.728   5
  -1  -8  32 107.213 138.249   5
   1   8 -32-18.0550 78.2067   2
  -1   8 -32-20.0326 97.4688   3
   1   8 -32-39.9825 88.8114   3
   8   2   0 2675.72 1341.75   7
  -8   2   0 2766.85 1340.55   4
  -8  -2   0 523.891 1358.68   1
   8   2   0 2918.54 1340.56   6
   8  -2   0 746.825 1333.44   6
   8  -2  -1 57.4246 180.224   6
   8  -2  -1 57.2230 183.376   7
   8   2   1 699.051 199.864   6
  -8  -2   1-618.665 359.858   1
   8  -2   1-3.87002 176.759   5
  -8  -2  -1-560.368 347.086   1
   8   2   1 560.458 203.978   7
   8   2  -1 589.575 201.524   7
  -8  -2   1 181.352 185.607   4
  -8   2  -1 750.226 200.726   4
   8   2  -1 404.699 190.839   6
  -8   2   1 552.365 194.038   4
   8  -2   1 310.874 192.167   6
   8  -2  -2-11.5016 411.578   6
  -8  -2  -2-135.868 519.021   1
   8  -2   2 364.213 412.293   5
   8   2  -2 955.036 422.527   6
   8   2   2 1224.04 432.250   7
   8   2  -2 1323.31 432.895   7
  -8   2  -2 1475.90 429.446   4
  -8   2   2 1040.18 423.833   4
  -8  -2   2 413.014 416.925   4
   8  -2   2 789.242 426.859   7
   8  -2  -2 11.5511 414.302   7
   8   2   2 1133.75 425.695   6
  -8  -2   2-202.935 518.601   1
   8  -2   2 541.786 420.940   6
   8   2   3 23.7838 71.4778   7
   8  -2  -3 11.5378 44.0503   6
  -8   2  -3 12.9796 32.9674   3
   8   2   3 20.8075 57.6776   6
   8  -2   3 36.8635 42.9687   5
   8  -2   3 55.5973 62.3551   6
  -8  -2   3 15.2448 71.8011   4
   8   2  -3 21.0492 78.2606   7
   8  -2  -3-46.3470 64.8189   7
   8  -2   3 68.3104 88.8391   7
  -8   2  -3 27.1445 73.9942   4
  -8  -2  -3 13.8667 302.123   1
   8   2  -3 73.9313 59.9968   6
  -8   2   3 47.8773 61.2933   4
  -8   2  -4 510.445 169.128   3
   8  -2  -4-11.5956 164.317   6
   8   2  -4 133.612 161.496   3
   8  -2   4 486.557 174.027   5
  -8  -2   4 185.361 163.127   5
   8   2  -4 603.661 197.507   7
   8  -2   4 360.685 181.997   6
   8  -2   4 282.733 173.992   8
   8   2   4 110.451 173.746   7
  -8  -2   4 323.878 187.614   4
  -8   2  -4 667.598 198.943   4
   8  -2  -4 11.7475 174.873   7
   8   2  -4 492.983 184.411   6
   8  -2   4 451.978 206.960   7
   8   2   4 265.543 179.595   6
  -8   2   4 106.122 169.740   4
  -8   2  -4 32.7543 161.465   2
  -8   2   5 77.7094 90.0903   4
  -8  -2   5-14.7244 88.2729   8
  -8   2  -5 520.697 95.6729   3
  -8   2  -5-4.53984 83.4278   2
   8  -2   5 575.691 103.237   5
   8  -2   5-23.9950 94.9115   8
   8  -2   5 428.127 118.879   6
   8   2  -5 14.7033 81.8050   3
   8   2  -5 823.751 137.388   7
  -8   2  -5 434.184 121.237   4
   8  -2   5 540.106 135.664   7
  -8  -2   5 309.800 112.033   4
   8   2  -5-13.9387 82.5261   2
   8  -2  -5-11.8237 101.697   7
   8   2   5 303.846 115.354   6
   8   2  -5 428.727 110.299   6
  -8   2  -6 178.674 64.4058   3
  -8  -2  -6 222.047 233.914   1
   8  -2   6-26.8383 69.1080   8
  -8  -2   6 63.5330 62.5673   8
   8   2   6 51.3292 76.9403   7
  -8   2  -6 137.859 86.5166   4
  -8  -2   6 79.6825 81.1071   4
   8   2  -6 207.280 95.7966   7
   8   2  -6 65.2872 56.4556   2
   8  -2  -6 11.9358 80.2650   7
   8   2  -6 3.62188 52.1778   3
   8   2   6 134.087 81.8203   6
  -8   2  -6 19.7509 58.1369   2
   8  -2   6 83.6221 97.6708   7
   8  -2   6 183.855 87.0733   6
   8  -2   6 150.323 68.2667   5
   8   2  -6 136.586 77.3468   6
   8  -2   7 972.421 306.410   5
  -8  -2   7 663.344 301.207   8
  -8  -2  -7-227.171 364.368   1
   8  -2   7 870.466 317.050   7
   8   2  -7 1636.19 325.376   7
  -8   2  -7 1115.79 313.275   4
   8   2   7 341.272 303.446   7
  -8   2  -7 328.559 409.983   1
   8  -2   7 156.490 298.158   8
  -8  -2   7 307.001 301.084   4
   8  -2   7 1039.55 315.125   6
   8   2  -7 17.2387 292.171   3
   8   2   7 411.426 304.063   6
   8   2  -7 567.298 305.299   6
  -8   2  -8 159.727 290.867   1
  -8  -2  -8-46.4952 213.926   1
   2  -8   8-13.5342 53.2563   5
  -2  -8   8 26.0041 58.8197   5
   8   2  -8 59.2396 60.6792   7
  -8  -2   8 62.9087 47.5022   8
   8   2   8 26.9032 52.9462   7
  -8   2  -8-8.83085 61.7757   4
   8  -2   8 48.9613 74.7554   7
  -8  -2   8 48.2466 53.5578   4
   8   2   8-11.6934 57.9820   6
  -2   8  -8-10.3067 31.1149   2
   8  -2   8-10.7483 57.5824   6
   8   2  -8-10.0798 42.7995   6
   8   2  -9 20.0996 310.569   6
   2   8  -9 245.734 312.659   2
  -8   2  -9 958.235 447.469   1
  -8   2  -9 738.012 316.577   3
   8  -2   9 988.834 324.687   5
   2  -8   9-13.9556 314.916   5
  -2  -8   9-26.8614 314.963   5
  -2  -8   9 13.3146 311.498   8
  -8  -2   9 912.708 319.834   8
   8  -2   9 769.653 323.694   8
   8   2  -9 1545.73 340.927   7
   8  -2   9 638.076 329.123   7
  -8   2  -9 1079.60 328.928   4
  -8  -2   9 41.1135 312.023   4
   2  -8   9 13.8439 312.700   8
   8  -2   9 1230.23 333.743   6
   8   2   9 339.203 320.481   6
  -2   8  -9 276.426 314.274   2
  -8  -2  -9 95.1874 363.895   1
   2  -8  10-28.5983 215.076   8
   8  -2  10 564.900 222.810   5
   2   8 -10 508.592 221.549   2
  -2   8 -10 472.177 220.279   2
   8   2 -10-10.0387 208.143   6
   2  -8  10 28.8160 216.166   5
  -2  -8  10 27.7840 215.874   5
  -2  -8  10 27.5583 214.842   8
   8  -2  10 402.394 223.485   8
  -8   2 -10-149.601 364.384   1
  -8   2 -10 459.718 222.924   4
   8  -2  10 152.504 222.588   7
   8   2  10 124.025 216.973   6
   8  -2  10 712.432 230.202   6
  -8  -2  10 8.36206 209.321   4
   8   2 -10 1307.49 244.799   7
  -8   2 -10 567.299 217.207   3
  -8  -2  11 755.644 307.938   8
  -8   2 -11 652.958 305.752   3
   8   2 -11 20.0961 297.158   6
  -2   8 -11 712.992 311.518   2
   2   8 -11 525.235 307.436   2
   2  -8  11-44.6588 305.835   5
  -2  -8  11 28.7627 303.473   5
  -8   2 -11 669.647 430.935   1
   8  -2  11 741.705 313.210   5
   8  -2  11 793.091 314.636   8
   8   2 -11 1509.25 326.193   7
  -8   2 -11 700.948 313.209   4
   8  -2  11 353.053 312.481   7
  -2  -8  11-14.2739 302.359   8
   8  -2  11 891.472 316.683   6
   2  -8  11 14.7812 302.507   8
  -8  -2  11-16.7833 297.184   4
  -2  -8  12 29.5827 534.495   8
  -8   2 -12 1036.80 539.030   3
  -2   8 -12 1732.10 549.823   2
   8  -2  12 1002.82 542.961   5
   2  -8  12 15.3081 535.111   5
  -2  -8  12-14.8178 535.525   5
  -8  -2  12 1811.26 544.441   8
   8   2 -12 1739.58 552.305   7
   8  -2  12 212.934 537.327   7
  -8   2 -12 833.609 540.463   4
   8  -2  12 1405.84 546.242   6
  -8   2 -12 170.192 613.597   1
   2  -8  12-15.2866 534.448   8
   2  -8  13-47.4796 193.575   5
  -2  -8  13-45.5597 191.259   5
   8   2 -13 404.722 193.476   7
  -2   8 -13 550.849 193.434   2
   2   8 -13 627.824 196.643   2
   8  -2  13 293.952 189.318   5
   8  -2  13 377.630 194.169   8
  -8  -2  13 348.018 189.868   8
  -8   2 -13 208.651 181.372   3
  -8   2 -13-409.909 353.550   1
   2  -8  13 15.8109 190.973   8
  -2  -8  13 15.3289 194.622   8
   8  -2  13 277.007 189.146   6
  -8   2 -13 147.586 188.735   4
   8  -2  13-13.6981 186.090   7
   2   8 -14 1650.58 566.119   3
   8  -2  14 1811.17 570.089   5
  -2  -8  14-15.7284 550.489   5
   8  -2  14 97.8375 550.991   7
   2  -8  14-16.1845 554.753   5
  -8   2 -14-144.645 616.705   1
  -2  -8  14 15.8833 552.840   8
  -8  -2  14 1719.67 561.867   8
   2  -8  14-32.7018 554.234   8
  -8   2 -14 525.630 551.339   3
   8  -2  14 2110.50 570.334   8
   2   8 -14 3204.61 581.388   2
   2  -8  15 33.8089 220.942   8
  -2   8 -15 557.340 211.171   3
  -2   8 -15 563.317 214.504   2
   2   8 -15 249.044 204.915   3
   2  -8  15 82.1118 212.117   5
  -2  -8  15 175.883 218.819   5
   8  -2  15 207.869 204.548   8
   8  -2  15 206.205 200.639   5
  -8  -2  15 307.912 199.109   8
   8  -2  15 14.2525 193.858   7
  -8   2 -15 163.773 191.146   3
  -2  -8  15 16.4538 215.344   8
   2   8 -15 611.429 217.583   2
   8  -2  15 239.818 198.936   6
  -8   2 -16 117.105 459.204   1
  -2   8 -16 1043.72 390.910   3
   2   8 -16 867.152 387.626   3
   2  -8  16 16.9625 379.318   5
  -2  -8  16 16.5434 381.605   5
   8  -2  16 935.932 391.420   8
   8  -2  16 700.581 386.603   5
   2  -8  16-52.3997 387.427   8
   8  -2  16 58.2561 373.579   7
  -8   2 -16 138.556 372.907   3
   8  -2  16 770.634 386.494   6
  -2   8 -16 951.765 387.350   2
   2   8 -16 1569.91 396.778   2
  -2  -8  16-34.0632 384.641   8
  -8  -2  16 880.959 384.858   8
  -2   8 -17 380.060 240.344   3
   2   8 -17 503.850 245.085   3
   2  -8  17 17.2774 242.644   5
  -2  -8  17-16.8816 241.683   5
  -2  -8  17 52.8457 247.832   8
  -2   8 -17 770.301 250.311   2
   2   8 -17 727.533 246.752   2
   8  -2  17 288.721 243.760   8
   8  -2  17 262.473 237.779   5
  -8  -2  17 525.129 244.029   8
  -8   2 -17 24.3311 224.691   3
   8  -2  17 353.313 239.845   6
  -8   2 -17-102.445 326.434   1
   2  -8  17 18.0355 251.636   8
   8  -2  18-17.2303 61.1243   5
   8  -2  18 12.8835 82.2485   6
  -2   8 -18-25.2955 72.5818   3
   2   8 -18 37.1886 65.6762   3
   2  -8  18 89.1009 112.840   5
  -2  -8  18 34.8769 106.324   5
   2   8 -18 13.4263 65.6547   2
   8  -2  18 75.8145 97.4778   8
  -8  -2  18 43.6215 73.3500   8
  -8   2 -18-12.7807 49.8035   3
  -2  -8  18 72.8135 124.738   8
   2  -8  19 19.1806 189.032   8
  -8  -2  19 310.675 165.270   8
  -2   8 -19 339.047 165.991   2
  -8   2 -19 13.3838 144.321   3
   8  -2  19 264.729 171.982   8
   2  -8  20-39.5074 139.376   8
  -2   8 -20 80.4862 83.3758   3
   2  -8  20 18.9074 116.587   5
   8  -2  20 27.6513 100.024   8
  -8  -2  20-12.0991 87.0035   8
  -2   8 -20 14.1995 73.3543   2
  -2  -8  20 38.7691 155.765   8
   2   8 -20 13.9556 72.1464   2
  -2   8 -21 511.280 277.684   2
  -2  -8  21 38.8176 271.755   5
   2   8 -21 396.676 271.610   3
  -2  -8  21 59.9098 293.139   8
   8  -2  21 532.922 283.124   8
   2   8 -21 301.938 272.013   2
  -2   8 -21 496.738 274.392   3
   2  -8  21 276.452 292.229   5
   2  -8  22-20.2868 122.439   5
   2   8 -22 14.7974 68.8756   2
  -2   8 -22-15.0133 71.4499   2
   2   8 -22-14.0755 79.0104   3
  -2  -8  22-19.9674 112.074   5
  -2   8 -22 42.8304 83.8115   3
   2  -8  22 20.8839 149.420   8
  -2  -8  22-82.2043 157.944   8
  -2  -8  23 21.0663 141.062   5
  -2  -8  23 21.1263 168.258   8
   2   8 -23 254.657 130.131   3
   2  -8  23 107.204 175.253   8
   8  -2  23 77.6172 139.470   8
   2   8 -23 91.2752 123.072   2
   2  -8  23 41.6424 161.359   5
  -2   8 -23 138.728 126.588   2
  -2   8 -23 249.162 135.937   3
  -2  -8  24-21.6891 233.518   8
   2   8 -24 624.675 210.289   2
   2  -8  24 241.016 221.200   5
  -2  -8  24-43.2430 216.803   5
  -2   8 -24 295.713 202.516   3
   2  -8  24 65.9707 235.093   8
   2   8 -24 215.310 197.685   3
   8  -2  24 80.3274 197.639   8
  -2   8 -24 379.326 205.909   2
  -2  -8  25 44.4845 172.708   8
  -2   8 -25 63.7644 105.115   3
   2   8 -25 63.0806 93.1407   3
   2  -8  25 44.8849 128.182   5
   2   8 -25 156.465 106.009   2
  -2   8 -25 129.518 101.335   2
  -2  -8  25 22.1640 136.082   5
   2  -8  25-45.0489 174.677   8
   2  -8  26 91.8030 327.103   5
  -2  -8  26 136.707 347.933   8
   2  -8  26 23.0479 349.722   8
  -2   8 -26 521.765 325.346   3
   2   8 -26 474.971 327.360   3
  -2   8 -26 762.053 333.103   2
   2   8 -26 817.468 331.841   2
  -2  -8  26 23.4117 323.193   5
   2  -8  27 24.1970 142.233   5
   2  -8  27-23.5519 176.668   8
  -2  -8  27-23.3048 179.379   8
  -2  -8  27-23.9474 128.222   5
  -2   8 -27 66.1537 97.5697   2
  -2   8 -27-17.5063 81.6608   3
   2   8 -27-17.3563 91.3489   3
   2   8 -27 196.751 107.165   2
   2  -8  28 72.1259 253.854   8
   2   8 -28 124.138 196.350   3
   2   8 -28 670.205 217.651   2
   2  -8  28 148.165 220.084   5
  -2  -8  28 122.327 215.158   5
  -2   8 -28 142.951 199.929   3
  -2   8 -28 236.430 200.249   2
  -2  -8  28 214.328 249.160   8
  -2   8 -29 18.2147 96.9412   3
   2  -8  29-122.585 194.723   8
   2   8 -29 153.934 111.640   2
  -2  -8  29-48.6174 177.425   8
   2  -8  29 125.837 151.839   5
  -2  -8  29-25.3983 130.795   5
  -2   8 -29 86.0817 102.808   2
   2   8 -29 37.8911 93.0195   3
   2   8 -30 174.334 103.738   2
   2  -8  30-74.9023 191.775   8
  -2  -8  30-24.7758 188.757   8
   2  -8  30-26.0771 131.351   5
   2   8 -30 38.6156 110.440   3
  -2  -8  30-25.8845 132.952   5
  -2   8 -30 58.2593 111.018   3
   2  -8  31-76.2018 193.573   8
  -2  -8  31 176.602 193.887   8
   2  -8  31 53.0467 144.134   5
  -2  -8  31 26.3490 125.374   5
   2   8 -31-58.9762 91.4849   3
   2   8 -31-17.7507 98.0566   2
  -2   8 -31 19.7553 98.0022   3
  -2  -8  32 54.5992 129.942   5
  -2   8 -32 40.1530 82.2006   3
   2   8 -32 20.3368 90.3011   3
  -2  -8  32-179.557 185.307   8
   8  -3   0-11.8989 232.022   6
   8   3   0 521.608 245.236   6
   8   3   0 589.398 255.992   7
  -8   3   0 315.650 238.387   4
  -8   3  -1 3503.35 438.039   4
   8  -3   1 237.657 399.894   6
   8  -3  -1 47.7359 395.371   6
  -8  -3   1 161.609 394.725   5
  -8   3   1 2394.61 424.710   4
  -8  -3  -1 422.412 487.917   1
   8   3   1 2175.87 428.282   6
   8   3  -1 2865.00 429.951   6
  -8  -3   1 4325.27 548.870   1
   8  -3   1 153.913 402.766   7
   8  -3   2-11.8874 57.8790   6
   8  -3  -2 23.9786 41.3467   6
   8  -3   2-22.6918 40.3391   5
  -8  -3   2-11.9078 30.1688   5
  -8  -3   2-102.618 327.709   1
   8   3   2 72.3648 67.7760   7
   8   3  -2 87.9482 86.6399   7
   8  -3   2-35.5360 78.0302   7
   8  -3  -2-12.1443 66.0824   7
   8   3   2 62.6309 59.5910   6
   8   3  -2-9.36330 64.4514   6
  -8   3  -2 58.0787 65.9281   4
  -8   3   2 19.9318 38.4462   4
  -8   3   3 541.608 286.981   4
   8  -3   3-6.06756 277.771   5
  -8   3  -3 1257.84 301.405   4
  -8  -3   3 371.715 278.458   5
   8   3  -3 1557.98 311.344   7
   8  -3   3 464.592 291.924   7
  -8  -3  -3-1025.89 386.093   1
   8  -3  -3 48.8746 282.987   7
   8   3  -3 1112.87 297.795   6
   8   3   3 580.579 294.409   6
   8   3   3 691.344 296.863   7
  -8  -3   3 22.1695 284.715   4
   8  -3   3 452.644 289.424   6
   8  -3   4 45.6477 86.3261   5
  -8  -3  -4-233.298 230.743   1
   8   3   4 113.680 98.2962   7
  -8  -3   4 14.6673 95.2429   4
  -8  -3   4 60.4616 82.0607   5
   8  -3   4 46.6410 105.939   7
  -8   3  -4 332.152 109.682   4
   8   3   4 175.974 97.0937   6
   8   3  -4 209.861 110.629   7
   8   3  -4 235.253 100.438   6
   8  -3   4 155.422 99.7841   6
  -8   3  -5 29.0518 33.7552   3
   8  -3   5 6.99809 46.6461   5
   8  -3   5-11.7701 74.2253   7
  -8  -3   5 8.94053 32.8273   5
   8   3   5 25.8958 51.9149   7
  -8  -3   5 52.0163 58.9836   4
   8   3  -5-10.2539 61.4868   7
  -8   3  -5 9.34796 59.8451   4
   8   3   5-11.3943 54.7187   6
  -8  -3   5 4.57044 22.9716   8
   8   3  -5-9.00182 54.0951   6
   8   3  -5 3.51255 14.1600   2
   8  -3   5 35.3084 39.7046   8
   8  -3   5 11.4976 58.6349   6
  -8   3  -5 5.41527 21.4218   2
  -8   3  -6 257.843 98.3914   3
   8   3  -6 4.05402 87.4895   2
   8  -3   6 156.770 101.756   5
  -8  -3   6 26.4493 93.2046   8
   8   3  -6 252.664 94.1497   3
  -8  -3   6-60.0350 273.295   1
  -8   3  -6 254.076 121.567   4
   8   3  -6 182.016 117.578   7
  -8  -3   6 73.3157 104.562   4
   8  -3   6 172.074 120.084   7
   8   3   6 34.9956 100.475   6
  -8  -3   6 21.1967 90.9803   5
   8   3  -6 219.849 105.662   6
   8  -3   6 231.531 112.067   6
  -8  -3   7 36.3098 39.8638   5
   8   3  -7 4.31177 23.1015   3
  -8   3  -7 28.4622 71.7068   4
   8   3  -7-9.98628 61.8982   7
   8   3  -7-13.3849 24.3066   2
   8  -3   7 12.3964 76.8264   7
  -8  -3   7-15.0496 59.2820   4
  -8  -3   7 6.04873 42.0437   8
   8   3  -7-9.04637 44.0035   6
   8  -3   7 46.6952 53.1037   6
  -8   3  -8 990.836 364.458   3
   8   3  -8 808.624 361.120   3
   8  -3   8 1012.19 370.227   5
   3  -8   8-13.6948 358.974   5
  -3  -8   8 12.8919 358.417   5
  -8  -3   8 278.124 360.875   4
  -8   3  -8 145.950 356.675   2
   8   3  -8 1661.37 384.552   7
  -8   3  -8 1726.56 381.546   4
  -8  -3   8 969.303 448.559   1
   8  -3   8 993.673 374.435   6
  -8  -3   8 136.711 358.893   8
   8   3  -8 664.598 359.504   2
  -8  -3   8 162.080 357.694   5
   8   3  -8 623.661 365.656   6
   8  -3   8 36.0848 359.555   8
   8  -3   8 813.841 373.795   7
  -8   3  -9 140.019 95.5785   4
  -8   3  -9 198.018 80.4760   3
   8  -3   9 218.037 91.7611   5
   3  -8   9-28.2285 95.0063   5
  -3  -8   9 13.3232 89.0234   5
  -8   3  -9-117.775 308.289   1
   3  -8   9-14.0043 82.5862   8
  -8  -3   9 32.0422 74.1639   5
  -8   3  -9 20.9671 71.2599   2
   8   3  -9 120.122 72.2025   3
  -3  -8   9-13.2058 76.1028   8
   8  -3   9 112.241 108.133   7
   8   3  -9 313.575 110.200   7
   8  -3   9 68.1598 93.1558   8
  -8  -3   9 54.7053 82.8122   4
   8  -3   9 203.225 88.0164   6
   3   8  -9 20.3167 71.7897   2
  -3   8  -9 32.2541 69.7818   2
   8   3  -9 88.1062 82.1609   6
   8   3 -10 38.8791 142.643   6
   3   8 -10 73.6253 144.289   2
  -3   8 -10 77.6948 145.475   2
   3  -8  10-14.5653 153.825   5
  -3  -8  10-13.7877 153.418   5
   8  -3  10 397.408 161.288   5
  -3  -8  10 13.6736 149.519   8
  -8   3 -10 464.676 154.237   3
  -8  -3  10 307.582 158.270   8
   8  -3  10 125.646 157.805   8
   8  -3  10 189.238 161.934   7
  -8   3 -10 225.469 148.794   2
  -8   3 -10 454.776 164.076   4
   8   3 -10 680.727 173.559   7
  -8   3 -10 89.7215 341.449   1
  -8  -3  10 31.8369 146.128   4
   8  -3  10 628.737 168.458   6
   3  -8  10 14.4571 150.208   8
   8   3 -11 28.9956 445.438   6
  -8   3 -11 1824.07 461.598   3
   8   3 -11 538.421 449.398   3
   8  -3  11 1590.84 469.651   5
   3  -8  11 15.0421 450.159   5
  -3  -8  11 14.2070 449.905   5
  -8  -3  11 48.6149 446.919   5
   8   3 -11 2494.50 474.593   7
  -8   3 -11 1769.56 467.269   4
   8  -3  11 695.743 461.373   7
   8  -3  11 782.782 460.096   8
  -8  -3  11 1347.94 461.116   8
  -3   8 -11 1040.39 457.950   2
   3  -8  11-14.9377 449.337   8
  -3  -8  11-14.1726 448.335   8
  -8   3 -11 715.809 451.976   2
   8  -3  11 1819.06 469.899   6
  -8  -3  11-8.05976 446.052   4
  -8   3 -11 485.333 551.113   1
   3   8 -11 1260.68 460.650   2
   8  -3  12 262.089 159.039   6
   3   8 -12 338.090 154.975   2
   3  -8  12-30.9221 155.801   5
  -8   3 -12-61.5114 352.898   1
   8  -3  12 141.231 162.171   8
  -8   3 -12 440.079 153.421   3
  -3   8 -12 378.165 156.333   2
  -8  -3  12 295.576 160.305   8
  -8  -3  12 43.1745 144.618   5
   8  -3  12 358.622 162.509   5
   8  -3  12 78.4643 156.908   7
   8   3 -12 88.7220 142.072   3
   8   3 -12 538.055 170.677   7
  -3  -8  12 14.7217 155.407   5
   8   3 -12-9.62852 138.939   6
   3  -8  12-15.4411 157.252   8
  -3  -8  12-29.3884 154.652   8
  -8   3 -12 383.407 164.576   4
  -8   3 -13 15.6064 741.127   1
  -8   3 -13 2646.51 686.690   3
   8  -3  13 2662.04 697.835   5
   3  -8  13-47.9317 673.772   5
  -3  -8  13 30.1929 673.152   5
  -8  -3  13 2554.80 688.292   8
   3   8 -13 3468.00 698.859   2
  -8  -3  13 93.4193 670.073   5
  -8   3 -13 2820.13 692.751   4
   8  -3  13 309.146 678.270   7
  -3  -8  13 15.2362 673.587   8
   3  -8  13 31.9240 673.761   8
  -3  -8  14-47.3863 159.550   8
   3   8 -14 217.507 155.589   3
   3  -8  14-16.3301 160.526   5
  -3  -8  14 15.6430 161.302   5
  -3   8 -14 349.815 154.487   2
   3   8 -14 443.438 155.485   2
   8  -3  14 180.656 156.588   5
   8  -3  14 258.904 167.863   8
  -8  -3  14 206.945 153.332   8
   8  -3  14-13.8116 158.683   7
  -8   3 -14 243.886 163.197   4
   3  -8  14 98.9989 170.778   8
  -8   3 -14-158.732 348.241   1
   8  -3  14 279.484 152.905   6
  -8  -3  14 37.6804 139.411   5
  -8   3 -14 240.572 147.829   3
  -3   8 -15 2235.99 727.816   3
   3   8 -15 1712.76 723.153   3
   8  -3  15 1790.92 727.193   5
  -8   3 -15 1297.57 718.533   4
   3  -8  15-33.1252 711.797   5
  -3  -8  15-15.9104 713.907   5
   8  -3  15 1550.34 724.641   8
   3  -8  15-17.0506 715.601   8
  -8   3 -15-371.608 771.763   1
  -3  -8  15-16.3703 712.200   8
   8  -3  15 1611.19 721.971   6
  -3   8 -15 2672.01 731.612   2
   3   8 -15 2459.08 729.469   2
  -8  -3  15 1824.73 724.053   8
   8  -3  15 70.2651 710.483   7
  -8   3 -16 256.948 157.093   3
  -3   8 -16 229.693 162.110   3
   3   8 -16 231.022 158.736   3
   3  -8  16-17.1003 171.188   5
   3   8 -16 450.231 164.284   2
  -3  -8  16-16.2545 165.741   5
  -3   8 -16 440.729 164.723   2
  -8   3 -16 378.506 337.350   1
   8  -3  16 192.106 168.451   8
  -8  -3  16 202.332 161.103   8
   8  -3  16 141.602 157.945   5
   8  -3  16-28.6464 157.574   7
  -8   3 -16 126.211 161.457   4
   8  -3  16 301.435 158.860   6
   3  -8  16-35.2175 181.708   8
  -3  -8  16-50.8591 174.735   8
  -8   3 -17-117.370 326.879   1
  -3   8 -17 395.193 194.978   3
   3   8 -17 478.060 197.341   3
   3  -8  17-34.8255 191.350   5
  -3  -8  17 16.8138 189.133   5
  -3   8 -17 428.146 191.614   2
  -3  -8  17-52.6309 205.412   8
   3   8 -17 530.660 195.325   2
   8  -3  17-29.1783 180.714   7
   8  -3  17 330.453 194.761   5
   8  -3  17 504.522 214.599   8
  -8  -3  17 323.192 195.034   8
  -8   3 -17 220.836 184.489   3
   3  -8  17-18.1750 205.523   8
  -8   3 -17-9.88532 188.340   4
   8  -3  17 257.948 190.857   6
   3   8 -18 444.478 206.114   3
  -3  -8  18-17.3756 203.328   5
   8  -3  18 235.179 207.499   8
   3   8 -18 454.985 204.941   2
   8  -3  18 380.609 207.438   5
  -8  -3  18 306.244 203.173   8
  -8   3 -18 141.332 191.519   3
  -3  -8  18-18.1374 217.598   8
   8  -3  19 28.9058 103.751   8
  -8  -3  19 37.2169 83.0011   8
  -3   8 -19 14.2192 77.7352   2
   8  -3  19-18.4212 80.1165   5
  -8   3 -19 27.3159 68.2833   3
   3  -8  19-57.9375 124.466   8
  -3   8 -20 188.937 125.446   3
   3  -8  20-76.1194 160.777   5
  -3  -8  20-19.3271 156.790   8
   3  -8  20-19.8825 157.451   8
   8  -3  20 120.508 139.668   8
  -8  -3  20 182.344 138.532   8
   8  -3  20 76.7770 123.633   5
   3   8 -20 292.341 133.340   2
  -3   8 -20 242.887 136.824   2
  -8   3 -20 28.4762 110.720   3
  -3  -8  21-19.3584 121.881   5
  -8  -3  21 54.5379 106.982   8
   8  -3  21 19.9575 86.8852   5
  -3   8 -21 29.3842 96.1061   2
  -3   8 -21 27.7607 72.2516   3
   3  -8  21-39.7354 136.931   5
   3  -8  21-61.3485 163.878   8
  -8   3 -21-29.6070 72.6422   3
   3   8 -21 95.5394 91.3850   3
  -3  -8  21-79.6866 149.557   8
   3   8 -21 28.6959 84.8070   2
   3   8 -22 29.5392 75.7685   2
   3  -8  22-40.8068 113.407   5
   3   8 -22 14.0494 79.8463   3
   3  -8  22-21.0094 153.688   8
  -3   8 -22 166.041 94.3661   2
   8  -3  22-65.0193 122.404   8
  -3  -8  22-82.0357 148.666   8
  -3  -8  22-19.9226 110.768   5
  -3   8 -22 43.0686 97.4176   3
   3  -8  23 20.9342 134.281   5
   3   8 -23 151.861 102.100   2
   3  -8  23-64.6859 163.494   8
  -3  -8  23 189.202 144.115   5
  -3   8 -23 132.562 102.016   3
   8  -3  23-50.5007 125.555   8
  -3   8 -23 232.392 110.216   2
   3   8 -23 74.7934 96.5433   3
  -8   3 -23-15.9016 78.5418   3
  -3  -8  23-84.3437 165.656   8
  -3  -8  24 64.7505 126.763   5
  -3  -8  24-21.6508 169.162   8
   3   8 -24 92.1640 92.6768   3
   8  -3  24 69.5733 132.802   8
   3  -8  24-44.2051 157.910   8
   3   8 -24 78.0014 96.3321   2
  -3   8 -24 174.684 109.687   2
  -3   8 -24-15.6368 101.378   3
   3  -8  24 44.0571 129.077   5
   3  -8  25 248.047 342.189   5
   3  -8  25 158.425 356.830   8
  -3   8 -25 640.409 340.217   3
   3   8 -25 472.672 334.248   3
  -3   8 -25 487.861 341.871   2
  -3  -8  25 22.2099 357.956   8
   8  -3  25 322.956 345.065   8
  -3  -8  25 22.1311 338.245   5
   3   8 -25 1040.12 346.791   2
  -3  -8  26 23.3907 137.163   5
   3  -8  26-23.1517 165.596   8
  -3   8 -26 65.4885 97.3889   3
   8  -3  26-36.9433 131.006   8
   3   8 -26 118.684 94.6806   3
  -3   8 -26 33.2715 88.6102   2
   3   8 -26 112.107 96.8141   2
   3  -8  26-46.1084 123.155   5
  -3  -8  26 22.7580 165.988   8
  -3  -8  27 535.523 337.467   8
  -3   8 -27 220.927 301.229   2
   3  -8  27 24.2996 299.495   5
  -3  -8  27 71.7760 302.354   5
  -3   8 -27 527.179 304.345   3
   3   8 -27 753.980 303.906   2
   3  -8  27 94.6033 321.939   8
   3   8 -27 503.080 301.042   3
  -3  -8  28 142.795 176.112   8
   3  -8  28 144.815 181.583   8
   3  -8  28 74.3751 143.984   5
  -3  -8  28 99.5125 142.299   5
  -3   8 -28 107.590 109.894   3
   3   8 -28 88.6492 96.8951   3
  -3   8 -28-16.9438 99.6435   2
   3   8 -28 67.0195 109.437   2
  -3  -8  29 24.2879 196.901   8
   3  -8  29-50.5214 191.290   5
  -3  -8  29 25.3884 149.432   5
  -3   8 -29 109.647 126.859   3
   3   8 -29 113.659 123.423   3
  -3   8 -29 207.286 138.576   2
   3   8 -29 171.002 140.575   2
   3  -8  29-196.856 272.509   8
   3   8 -30 104.602 93.9220   2
   3  -8  30 100.210 198.408   8
  -3  -8  30-74.3175 188.363   8
   3  -8  30-26.1761 118.041   5
  -3  -8  30 25.8769 127.528   5
  -3   8 -30 38.9575 98.9012   3
   3   8 -30-38.6192 92.2980   3
  -3   8 -30 52.7629 102.432   2
   3   8 -31 53.2647 120.960   2
   3  -8  31 127.408 201.553   8
  -3  -8  31-25.2188 183.132   8
   3  -8  31-79.8258 138.473   5
  -3  -8  31-79.0422 129.450   5
  -3   8 -31-59.4303 105.706   3
   3   8 -31-58.9962 93.4472   3
  -3   8 -31-35.7764 112.435   2
  -3  -8  32-128.278 186.117   8
  -3  -8  32-109.217 130.742   5
   3   8 -32 20.3479 86.4274   3
   8  -4   0-12.4048 398.235   6
  -8  -4   0 906.366 467.824   1
   8   4   0 2283.56 432.947   7
  -8   4   0 1957.45 423.282   4
   8  -4   0 12.5636 401.581   7
  -8   4   1 10.3630 45.8841   4
   8  -4   1 12.4007 61.9310   7
   8  -4   1-12.3526 43.0668   6
  -8  -4  -1 562.396 220.577   1
   8   4   1 48.6929 54.5348   7
   8   4  -1 11.6258 54.7399   7
  -8  -4   1 577.039 236.355   1
   8  -4  -1 12.6339 64.2689   7
   8   4   1 31.8011 59.3365   6
   8   4  -1 10.0513 47.8637   6
  -8   4  -1 10.2571 50.8374   4
  -8   4  -2 2479.58 381.448   4
   8  -4   2-12.3194 347.853   6
  -8  -4  -2 575.967 404.919   1
  -8  -4   2-18.2669 346.268   5
   8   4  -2 2181.00 382.082   7
   8   4   2 1248.41 370.561   7
  -8  -4   2 564.158 421.929   1
   8   4  -2 2113.66 377.316   6
   8   4   2 648.215 359.718   6
   8  -4   2-12.3687 352.391   7
  -8  -4   3-9.70431 32.8428   5
   8  -4   3 24.6114 42.4420   6
   8   4  -3-11.1154 54.1426   7
  -8  -4   3-102.678 248.581   1
   8  -4   3 22.3189 41.9048   5
   8  -4   3-24.5171 77.9569   7
   8   4   3 67.5141 52.4836   6
   8   4  -3 9.46619 52.4117   6
  -8   4  -3-20.3800 56.4015   4
  -8  -4  -3-265.500 199.077   1
   8  -4   4 24.6209 89.3608   6
   8  -4   4-7.84189 86.7830   5
  -8  -4   4 5.23604 85.5992   5
   8  -4   4 85.8547 112.073   7
   8   4  -4 321.044 106.598   6
   8   4  -4 457.298 120.550   7
  -8  -4  -4-30.2234 181.924   1
   8   4   4 69.1633 93.6720   6
  -8  -4   4 37.6895 248.338   1
  -8   4  -4 240.387 105.033   4
   8  -4   5-12.3344 47.5342   6
  -8  -4   5-22.3322 41.9769   5
  -8  -4   5 28.9268 58.8408   4
   8  -4   5-12.0253 75.5440   7
   8   4  -5 10.5595 60.2923   7
  -8   4  -5 60.2016 59.0047   4
   8   4  -5 8.99354 44.7615   6
  -8  -4   5 123.096 242.753   1
  -8  -4   6-12.0848 251.225   1
   8   4  -6 10.3607 60.8570   7
  -8  -4   6 30.3679 38.1807   5
   8  -4   6-24.1379 72.8723   7
  -8  -4   6 7.16179 55.5438   4
  -8  -4   6-6.30238 28.7471   8
   8  -4   6-8.77865 37.0240   8
   8  -4   6-12.3772 49.1741   6
  -8   4  -6 39.2691 73.5726   4
   8   4  -6-17.6564 51.1245   6
  -8   4  -6 6.72931 25.0874   2
  -8   4  -7 147.547 64.3465   3
  -8   4  -7 7.15032 47.0314   2
  -8  -4   7-7.24189 68.6153   4
   8  -4   7 18.5343 64.2494   5
  -8  -4   7 33.4581 58.3325   5
  -8  -4   7 71.1723 262.602   1
  -8  -4   7 41.7328 55.4877   8
   8  -4   7 73.0719 86.5638   7
  -8   4  -7 108.509 81.7294   4
   8   4  -7 157.723 73.2247   6
   8   4  -7 91.5998 82.5201   7
   8  -4   7 9.35598 61.2180   8
   8  -4   7 24.8775 70.7833   6
  -4  -8   8 12.7881 59.5633   5
  -8   4  -8 20.5126 41.3407   3
   8  -4   8-9.69757 50.0572   5
  -8   4  -8 7.54129 30.9514   2
   8  -4   8-9.97160 56.8879   8
  -8  -4   8-44.8046 49.2084   5
  -8  -4   8 46.6204 252.828   1
  -8  -4   8-14.8023 55.4951   4
   8  -4   8-50.8471 81.7730   7
   8   4  -8 29.6749 63.6509   7
   4  -8   8-41.5960 64.5721   5
  -8   4  -8-9.92433 61.5417   4
   8   4  -8 8.89254 49.9717   6
   8  -4   8 12.5187 51.2721   6
   8   4  -9 97.3831 73.1029   7
  -8  -4   9 80.3531 250.237   1
   4  -8   9-28.5703 71.4832   5
  -4  -8   9-13.2229 62.7055   5
  -8   4  -9 72.0678 51.3523   3
   8  -4   9 40.7477 68.3953   5
   8  -4   9 63.7138 73.3055   8
   8  -4   9 12.8141 92.5818   7
  -8  -4   9-45.3898 60.3694   4
  -8   4  -9 205.813 80.2895   4
  -8   4  -9 48.1818 50.2102   2
   4   8  -9 10.0832 34.5020   2
  -4   8  -9-10.8786 42.0860   2
   8   4  -9 36.9884 46.6180   6
   4  -8   9-14.1749 55.3263   8
   8  -4   9 24.1383 55.4142   6
  -8  -4  10 192.231 305.792   1
   4  -8  10-14.7348 168.768   5
  -4  -8  10-27.3824 169.596   5
  -8   4 -10 727.124 176.691   3
   8  -4  10 584.676 183.589   5
   8  -4  10 22.5812 168.965   8
  -8   4 -10 215.834 164.016   2
  -8  -4  10 136.966 167.722   5
  -8   4 -10 1097.47 197.688   4
   8   4 -10 428.986 178.415   7
  -8  -4  10-9.13490 165.762   8
   4  -8  10 36.8377 163.920   7
  -8  -4  10-30.4637 163.204   4
   4  -8  10 14.6276 164.134   8
   8  -4  10 450.681 182.810   6
   8   4 -10 314.514 172.544   6
   8  -4  10 191.043 179.119   7
   4   8 -10 208.917 166.598   2
  -4   8 -10 258.183 165.463   2
  -4  -8  10 13.5757 166.104   8
   4   8 -11 43.3257 44.7657   2
  -4   8 -11 46.3705 51.1786   2
   4  -8  11-30.4214 82.9427   5
  -4  -8  11-14.1153 78.6781   5
   4  -8  11-15.1069 72.2514   8
  -8   4 -11 56.8549 55.0927   3
   8  -4  11 45.9382 74.6060   5
  -4  -8  11-14.0768 71.9999   8
  -8  -4  11 9.89580 55.7254   5
  -8   4 -11 25.7916 48.1825   2
   8  -4  11 12.8585 85.6637   7
   8  -4  11 47.9274 91.7413   8
  -8   4 -11 119.875 82.9917   4
   8   4 -11 65.8804 76.2971   7
  -8  -4  11 69.3372 79.9627   8
   8  -4  11 24.6121 69.4669   6
   8   4 -11-9.40967 55.0473   6
   4   8 -12 2128.67 627.814   2
  -8   4 -12 2259.94 624.241   3
   8  -4  12 1740.57 627.227   5
   4  -8  12-15.6256 611.516   5
  -4  -8  12-14.6348 611.210   5
  -8  -4  12 1228.84 621.115   8
  -4  -8  12-43.8181 610.330   8
   4  -8  12 15.6070 610.523   8
   8  -4  12 431.381 615.912   8
  -8  -4  12 198.124 611.866   5
  -8   4 -12 1217.10 707.227   1
  -8   4 -12 2687.60 632.117   4
   8  -4  12 520.355 615.730   7
   8  -4  12 1391.10 622.114   6
  -4   8 -12 1946.55 627.243   2
  -8   4 -12 1092.33 616.527   2
   4  -8  13-16.1271 83.2907   8
   4  -8  13 15.9668 86.9108   5
  -4  -8  13-15.0129 77.5582   5
  -4   8 -13 12.3380 52.1752   2
   4   8 -13-11.6259 47.8207   2
   8  -4  13-13.0350 68.6157   5
   8  -4  13-13.4030 97.8459   8
  -8  -4  13-23.6347 61.1276   5
  -8  -4  13 11.2794 87.5463   8
  -4  -8  13-15.1533 90.3440   8
   8  -4  13-53.0967 94.1847   7
  -8   4 -13-28.8473 48.9026   2
  -8   4 -13 29.5769 74.6616   4
  -8   4 -13-9.14677 47.4195   3
   8  -4  13 47.7638 61.7626   6
   8  -4  14 2711.41 744.908   6
   4   8 -14 2738.86 743.799   3
   4  -8  14-49.4701 725.312   5
  -4  -8  14-15.2836 724.453   5
  -8   4 -14 1629.10 812.900   1
   8  -4  14 1257.15 738.597   8
   4  -8  14 66.6445 727.320   8
  -8  -4  14 282.753 724.266   5
  -8   4 -14 3217.47 748.066   4
   8  -4  14 136.180 726.898   7
  -8  -4  14 2025.73 740.184   8
  -4  -8  14 62.8720 727.100   8
   4   8 -14 3972.67 754.560   2
  -8   4 -14 1554.23 731.499   2
   4  -8  15 34.4194 107.237   8
  -4   8 -15 35.4328 83.9418   3
   4   8 -15 56.1184 81.9044   3
   4  -8  15 33.4349 93.3120   5
  -4  -8  15-15.8390 101.923   5
  -4   8 -15 143.282 77.5544   2
  -4  -8  15-32.5917 102.052   8
   8  -4  15 58.3643 108.131   8
  -8   4 -15 94.4118 77.3768   3
  -8  -4  15 35.7911 87.1168   8
  -8  -4  15 13.6803 69.8069   5
   8  -4  15-27.6402 96.3152   7
  -8   4 -15-20.2676 89.3269   4
  -8   4 -15 52.0380 64.0034   2
   8  -4  15 98.2279 77.7818   6
  -8   4 -15 192.391 344.101   1
   4   8 -15 37.1078 60.9528   2
   8  -4  15 88.8938 97.1133   5
   8  -4  16 730.098 377.177   5
  -4   8 -16 463.260 368.269   3
   4   8 -16 586.989 369.239   3
   4  -8  16 17.2512 364.690   5
  -4  -8  16-16.1897 366.433   5
  -4  -8  16 67.5380 370.296   8
   8  -4  16 321.403 376.476   8
  -8  -4  16 721.337 377.697   8
  -8   4 -16 902.229 369.761   3
  -8  -4  16 43.5226 358.843   5
   4  -8  16-17.7665 369.647   8
  -8   4 -16-146.583 483.069   1
  -8   4 -16 604.145 370.727   4
  -4   8 -16 1344.53 382.228   2
   4   8 -16 1445.61 381.993   2
   8  -4  16 435.063 369.948   6
  -4  -8  17-34.9587 119.153   8
  -4   8 -17 37.3465 75.5142   3
   4   8 -17 47.6572 76.2406   3
   4  -8  17 17.5568 101.862   5
  -4  -8  17 33.5060 108.121   5
   4   8 -17 64.5170 61.6842   2
   8  -4  17 48.0488 108.286   8
  -8  -4  17 13.3771 93.9053   8
  -8  -4  17-62.5060 84.2225   5
  -8   4 -17 12.0909 66.2758   3
   8  -4  17 67.0479 86.9133   5
   4   8 -18 73.8872 89.4963   3
  -4  -8  18-17.3235 123.860   5
  -4  -8  18-18.0791 131.956   8
   8  -4  18 209.956 117.397   5
   8  -4  18 77.6602 133.771   8
   4   8 -18 66.7365 87.5731   2
  -8  -4  18 56.3774 118.660   8
  -8   4 -18 126.253 86.5128   3
   4   8 -19-12.7238 80.2432   3
  -8   4 -19 13.7691 68.7756   3
   8  -4  19 18.5438 78.4691   5
   8  -4  19 64.7177 123.561   8
  -4   8 -19 28.6456 67.1347   2
   4  -8  19-38.9258 139.478   8
  -4  -8  20 38.5680 137.978   8
  -4   8 -20 13.5876 77.4621   3
   4  -8  20 38.3352 126.157   5
   8  -4  20 16.8236 128.222   8
   8  -4  20-38.5477 91.7254   5
  -4   8 -20-14.7380 81.4326   2
   4   8 -20 27.7846 68.9390   2
  -8   4 -20-42.9329 77.7891   3
   4  -8  20-60.0805 147.367   8
   4  -8  21-20.0047 119.331   5
  -4  -8  21 57.9705 121.494   5
  -4   8 -21-14.7881 76.6213   2
   4   8 -21 28.6479 71.4684   2
   4  -8  21-20.5901 143.203   8
  -4   8 -21 14.0646 65.8968   3
   4   8 -21 40.8881 81.4942   3
  -4  -8  21-39.7635 134.004   8
  -4   8 -22 28.8884 92.0271   3
   4   8 -22 103.269 84.3193   2
   4  -8  22-20.5366 119.872   5
  -4  -8  22 20.4755 144.528   8
   4  -8  22-42.2938 144.718   8
   8  -4  22 18.0729 136.311   8
   8  -4  22-20.6961 83.6673   5
  -4   8 -22 30.3766 96.6291   2
  -8   4 -22-15.3739 70.0526   3
   4   8 -22 56.1289 80.3523   3
  -4  -8  22-40.8476 122.621   5
  -4  -8  23-42.1180 142.098   8
  -4   8 -23-59.2574 86.3481   3
   4  -8  23-21.6956 152.570   8
   4   8 -23 29.8911 71.8893   3
   8  -4  23 18.6787 121.978   8
   8  -4  23-43.6008 101.995   5
  -4  -8  23 20.9953 127.143   5
  -8   4 -23-16.1675 65.0210   3
  -4   8 -23-31.1607 66.4232   2
   4   8 -23 15.1744 69.7913   2
   4  -8  23-63.1928 130.937   5
   4  -8  24 88.6047 178.370   5
  -4  -8  24-64.6754 177.362   5
  -4  -8  24 64.8896 208.641   8
  -4   8 -24 172.933 166.716   3
   4   8 -24 245.637 162.284   3
   8  -4  24-19.2751 193.833   8
   8  -4  24 22.4861 152.735   5
  -4   8 -24 622.778 182.147   2
   4   8 -24 670.384 183.917   2
  -8   4 -24-16.6797 142.105   3
   4  -8  24-111.155 204.100   8
  -8   4 -25 17.1755 85.6234   3
   4  -8  25-22.6696 132.520   5
  -4  -8  25-22.8178 137.158   5
   4  -8  25 91.0340 173.011   8
  -4   8 -25 16.0935 86.6065   3
   8  -4  25 119.096 161.117   8
  -4  -8  25-44.3913 159.934   8
   4   8 -25 49.6310 94.7802   3
   8  -4  25 23.1550 96.6135   5
   4   8 -25 47.9887 91.7724   2
  -4   8 -25 16.3479 99.1600   2
  -4   8 -26 919.456 362.217   2
   4  -8  26 46.5457 364.829   8
  -4  -8  26 163.646 354.697   5
   8  -4  26 347.008 374.264   8
  -4   8 -26 641.600 356.309   3
   4   8 -26 525.622 350.912   3
  -4  -8  26 159.221 361.080   8
  -8   4 -26 88.2861 335.072   3
   4  -8  26 92.7008 351.227   5
   4   8 -26 1410.18 370.686   2
   4  -8  27 24.4210 124.621   5
   4   8 -27 65.5791 87.6092   2
   4  -8  27 23.7678 170.828   8
  -4  -8  27 46.5648 167.372   8
  -4  -8  27 23.9191 114.978   5
  -4   8 -27-17.6527 90.7875   3
  -4   8 -27-239.021 107.038   2
   8  -4  27 83.7948 161.820   8
   4   8 -27 17.3502 85.8996   3
   4  -8  28-24.2505 251.124   8
  -4  -8  28 47.6002 232.197   8
   4  -8  28 99.6013 209.005   5
  -4  -8  28-24.8708 202.995   5
  -4   8 -28 234.036 194.319   3
   8  -4  28 42.9448 225.051   8
  -4   8 -28 557.444 216.579   2
   4   8 -28 452.537 211.111   2
   4   8 -28 334.190 197.859   3
   4  -8  29 222.447 270.894   8
  -4  -8  29 48.5904 195.878   8
   4  -8  29 50.7482 159.285   5
  -4  -8  29-25.3909 157.387   5
   8  -4  29-21.9778 173.133   8
  -4   8 -29-18.3473 107.789   3
   4   8 -29 18.9562 104.815   3
  -4   8 -29-177.487 123.350   2
   4   8 -29 188.216 149.035   2
   4  -8  30-100.630 182.743   8
  -4  -8  30-49.5469 183.311   8
   4  -8  30 26.2774 144.109   5
  -4  -8  30-25.8861 127.307   5
  -4   8 -30 58.6553 93.0322   3
   4   8 -30 173.947 99.6843   3
   4   8 -30 17.4485 98.3203   2
  -4   8 -30-17.6565 94.7050   2
  -4  -8  31 25.2345 172.759   8
   4  -8  31-80.1415 117.184   5
  -4  -8  31 26.8605 114.756   5
  -4   8 -31-35.8946 101.067   2
   4  -8  31-51.1625 202.404   8
   4   8 -31-35.5485 90.3322   2
   4   8 -31-60.0925 95.2599   3
  -4   8 -31 19.8819 100.564   3
  -4  -8  32-51.3365 192.282   8
  -4  -8  32-27.3120 127.119   5
   4   8 -32-20.3730 85.7877   3
   4   8 -32 54.2422 99.9052   2
   8   5   0 43.4774 61.9918   6
  -8  -5   0 57.0172 169.517   1
  -8  -5   1-27.8117 277.294   1
   8  -5   1-13.0729 222.487   7
   8   5   1 300.820 226.725   6
   8   5  -1 743.738 235.703   6
  -8   5  -2 373.046 197.092   4
  -8  -5   2 366.265 269.064   1
   8   5  -2 317.461 197.789   7
   8  -5   2 13.0064 195.302   7
   8   5  -2 316.917 198.156   6
   8  -5   3-25.5906 109.056   6
  -8  -5   3-18.9881 108.370   5
  -8  -5   3-13.2389 215.640   1
   8   5  -3 485.460 134.086   6
   8   5  -3 367.192 125.526   7
   8  -5   3-38.5307 127.626   7
  -8   5  -3 392.779 126.449   4
   8  -5   4-12.7640 69.7611   6
   8  -5   4 9.18435 71.4212   5
  -8  -5   4-6.65294 69.0800   5
  -8  -5   4-232.563 206.259   1
   8   5  -4 156.597 83.7038   7
   8  -5   4 51.2556 94.4580   7
   8   5  -4 203.127 83.6326   6
  -8   5  -4 232.938 87.0457   4
   8  -5   5 12.7510 47.5238   6
   8  -5   5-19.1752 52.2723   5
  -8  -5   5-7.03163 44.8706   5
  -8  -5   5 214.436 210.201   1
   8   5  -5 18.5885 57.0006   6
   8   5  -5 10.9275 48.6693   7
   8  -5   5 12.7017 71.4123   7
  -8   5  -5 10.5510 51.4573   4
   8  -5   6-12.7561 66.0698   6
   8  -5   6-10.0459 70.4203   5
  -8  -5   6-37.2112 60.5221   5
   8   5  -6 161.740 72.7806   6
   8   5  -6 106.787 72.7917   7
   8  -5   6 12.7088 82.0282   7
  -8   5  -6 200.517 82.1251   4
   8  -5   7-12.7793 46.1409   6
  -5  -8   7-12.2872 53.5050   5
  -8  -5   7 252.806 228.584   1
  -8  -5   7-14.2708 59.9791   4
   8  -5   7-10.4778 40.7450   8
   8  -5   7 24.9189 76.4582   7
   8   5  -7 17.5771 51.9633   6
  -8   5  -7 93.4889 62.1521   4
  -8   5  -7-8.03260 24.7140   2
   8  -5   7 10.5005 58.3417   5
   8   5  -7 31.2815 61.5223   7
   8  -5   8-25.6417 52.8663   6
  -8   5  -8 16.9057 29.8028   2
   5  -8   8-28.0922 62.6763   5
  -5  -8   8 25.3724 74.7590   5
   8  -5   8-10.9275 63.5657   5
  -8  -5   8 6.98130 56.2373   4
  -8  -5   8 8.64775 45.8845   8
   8  -5   8 37.6469 82.8536   7
   8   5  -8-10.2016 53.0112   7
  -8   5  -8 72.9219 62.3689   4
   8   5  -8 34.3935 50.1853   6
   8  -5   8-11.0277 56.1833   8
  -8  -5   8-94.1493 231.861   1
   8  -5   9 12.8804 51.1673   6
  -8  -5   9-9.29983 53.0526   8
  -8   5  -9 15.9158 47.4268   3
   5  -8   9 14.4657 65.8089   5
  -8   5  -9-8.87339 44.0772   2
   8  -5   9 11.2921 67.2587   5
  -8  -5   9 8.94053 56.8431   5
  -5  -8   9-13.1246 74.8371   5
   8   5  -9-9.98454 56.9517   7
   8  -5   9-11.6103 59.8982   8
  -8  -5   9-7.03454 55.0020   4
  -8  -5   9-11.5092 235.138   1
   8  -5   9 25.2187 88.4902   7
   5  -8   9-21.2316 62.3519   7
  -8   5  -9 10.4641 66.5152   4
   5   8  -9 10.0096 34.4773   2
  -5   8  -9-44.0557 34.6304   2
   8   5  -9-8.50323 47.0272   6
  -8   5 -10 112.880 71.9755   4
   5  -8  10-178.978 90.5712   5
  -5  -8  10-13.5975 72.0918   5
  -8   5 -10 41.8851 53.5193   3
   8  -5  10 11.8811 71.4386   5
  -8   5 -10 9.23988 45.1018   2
  -8  -5  10 19.1766 61.0012   5
  -5  -8  10 13.4805 54.4366   8
   5  -8  10-14.8082 59.6227   8
  -8  -5  10-29.9523 57.7867   8
   8  -5  10-13.1528 91.8985   7
   5  -8  10 52.4310 70.5127   7
   5   8 -10 31.1276 38.4569   2
   8  -5  10 12.2221 84.6127   8
  -5   8 -10 34.0803 40.3195   2
   8  -5  10 38.8641 53.9411   6
   5   8 -11 452.250 216.077   2
   8  -5  11 25.7125 218.107   8
  -5   8 -11 422.140 217.209   2
   8  -5  11 13.0509 218.223   7
  -8   5 -11 1029.11 229.218   3
   5  -8  11-15.3900 215.578   5
   8  -5  11 332.861 218.843   5
  -8   5 -11 1384.58 243.359   4
  -5  -8  11 27.9734 209.471   8
  -8  -5  11 72.9236 210.629   5
  -8   5 -11 349.873 215.535   2
   5  -8  11-15.2866 212.162   8
  -8  -5  11 42.7566 216.386   8
  -5  -8  11-14.0271 215.444   5
   8  -5  11 404.537 218.987   6
  -5   8 -12 72.4473 55.6559   2
   5   8 -12 100.302 57.1647   2
   5  -8  12 31.6089 93.8761   5
  -5  -8  12 14.3960 85.2579   5
  -8   5 -12 91.6312 68.8963   3
   8  -5  12 116.524 88.7412   5
  -5  -8  12-14.5220 84.6907   8
   5  -8  12 15.7850 82.6513   8
  -8  -5  12-11.1191 71.2926   5
  -8  -5  12-45.6645 89.4467   8
   8  -5  12-26.3238 98.1915   7
   8  -5  12 26.3167 68.5156   6
  -8   5 -12 340.951 362.233   1
  -8   5 -12 177.087 89.4121   4
  -8   5 -12 9.92824 54.6118   2
   8  -5  12-13.5080 93.1029   8
   5   8 -13 1184.29 433.233   3
  -8   5 -13 999.064 428.085   3
   5  -8  13 16.1390 420.793   5
  -5  -8  13-14.9369 420.308   5
   8  -5  13 461.743 427.012   5
  -5  -8  13 226.129 428.892   8
   8  -5  13 14.1735 425.094   8
  -8  -5  13 255.228 428.134   8
  -8   5 -13 750.016 425.763   2
  -8  -5  13 230.769 421.103   5
  -5   8 -13 1072.32 430.752   2
   8  -5  13 106.205 424.107   7
   5   8 -13 1747.02 442.552   2
  -8   5 -13 1566.20 437.577   4
   8  -5  13 850.160 430.019   6
   5  -8  13 32.6072 425.302   8
  -5  -8  14 15.6455 89.9447   8
  -5   8 -14 23.1006 71.4651   3
   5   8 -14 53.9046 73.5776   3
   5  -8  14-16.6604 94.0722   5
  -5  -8  14-15.2151 91.4073   5
  -5   8 -14 51.5087 64.2953   2
   5   8 -14 83.1549 58.6145   2
   8  -5  14-14.4394 91.5627   5
   5  -8  14 50.5134 87.3819   8
  -8  -5  14 12.8860 78.1050   5
   8  -5  14 89.0698 110.952   8
  -8  -5  14-25.8099 98.6088   8
  -8   5 -14 21.3007 61.0682   2
  -8   5 -14-10.0608 66.8186   3
  -8   5 -14 62.4530 86.7472   4
  -8   5 -14-428.629 376.870   1
   8  -5  14-13.5161 94.9281   7
   8  -5  14 77.0306 62.8417   6
  -5   8 -15 1025.88 452.152   2
  -5   8 -15 1132.84 451.473   3
   5   8 -15 1051.19 450.052   3
  -8   5 -15 1070.05 448.663   3
  -8   5 -15 1263.51 454.257   4
   5  -8  15-16.8846 442.259   5
  -5  -8  15-46.7125 441.184   5
   5  -8  15-17.3824 443.910   8
  -8   5 -15 48.1411 566.928   1
  -8  -5  15 368.771 447.632   8
  -8   5 -15 645.886 442.926   2
   8  -5  15 170.794 448.597   8
   5   8 -15 1380.27 453.965   2
  -5  -8  15-32.4615 440.851   8
   8  -5  15 543.463 448.921   5
  -5   8 -16 12.3029 78.3698   3
   5   8 -16 34.4213 75.3858   3
   5  -8  16-34.8274 110.771   5
  -5  -8  16 32.2667 101.809   5
   8  -5  16-16.2073 116.436   8
  -8   5 -16 99.5234 72.1329   3
   5  -8  16-17.9373 115.315   8
  -5  -8  16 33.6495 118.338   8
   8  -5  16-15.7555 89.2169   5
  -8   5 -16 69.7599 72.7073   2
  -5   8 -16 40.7096 70.5645   2
   5   8 -16 63.8840 68.1647   2
   8  -5  17 33.7853 132.850   8
  -5   8 -17 12.5581 82.7626   3
   5   8 -17 35.6287 67.4091   3
   5  -8  17-17.7174 110.581   5
  -5  -8  17 66.8295 100.685   5
  -8   5 -17 83.5386 76.4351   3
  -8   5 -17 11.8383 67.2314   2
  -5  -8  17-34.8562 125.477   8
   8  -5  17 84.2680 100.110   5
   5   8 -17 90.0796 69.7893   2
  -8   5 -18 36.9413 70.8001   2
   5   8 -18 12.2902 65.1993   3
  -5  -8  18-51.8470 112.181   5
   8  -5  18 105.140 103.998   5
  -5  -8  18 54.1051 126.194   8
   8  -5  18 70.2879 139.229   8
   5   8 -18 39.9577 66.5392   2
  -8   5 -18-24.8265 71.3452   3
   5   8 -19 101.622 81.5677   3
  -5   8 -19 13.3085 76.7748   3
   5  -8  19 56.3619 109.334   5
   5  -8  19-39.2454 136.796   8
  -5   8 -19-72.1790 78.0375   2
   8  -5  19 112.632 112.376   5
  -8   5 -19 13.5382 69.5115   3
   8  -5  19 17.9375 134.885   8
  -5  -8  19-36.2676 117.200   5
  -8   5 -19 25.5771 73.8488   2
  -5   8 -20 13.6911 85.1743   3
   5  -8  20-19.3174 119.177   5
   5  -8  20 20.1876 140.953   8
  -5   8 -20 89.1094 91.8064   2
   5   8 -20 85.3044 81.1254   2
  -5  -8  20-96.2598 146.314   8
   5  -8  21-20.1558 111.142   5
   5   8 -21 27.2356 73.9383   3
   5  -8  21 20.7478 140.881   8
  -5  -8  21-19.8571 157.505   8
   8  -5  21-76.9655 152.693   8
  -5   8 -21-15.2604 79.4723   2
   5   8 -21 42.9390 80.0335   2
  -5  -8  21 19.2951 124.020   5
  -5   8 -21 70.8182 91.9343   3
  -8   5 -21 96.0416 84.9220   2
   5   8 -22 73.7211 83.1601   2
  -5   8 -22 72.6955 91.7636   3
   5  -8  22 41.3742 127.684   5
   5  -8  22-21.2994 137.842   8
   5   8 -22 130.736 104.404   3
   8  -5  22-21.1569 108.224   5
  -5   8 -22 45.8744 88.3899   2
  -5  -8  22 61.3594 144.580   8
  -8   5 -22-15.7063 86.3215   3
   8  -5  22 99.3985 161.353   8
  -5  -8  22 20.4019 127.662   5
   5   8 -23-15.1715 80.0450   2
   5  -8  23 21.2097 126.508   5
  -5   8 -23 14.9102 85.3506   3
  -5  -8  23 21.0441 152.207   8
   8  -5  23 41.0142 148.334   8
   5   8 -23 14.9443 82.9343   3
   8  -5  23-43.6361 104.117   5
  -5  -8  23-62.9406 123.401   5
  -8   5 -23-16.2011 75.8105   3
   5  -8  23 109.212 162.363   8
  -5   8 -23 62.7308 78.2023   2
  -5  -8  24-22.2389 132.415   5
  -5  -8  24-21.6218 161.983   8
  -5   8 -24-15.8162 83.0819   3
   5  -8  24-44.5994 143.411   5
   8  -5  24 21.1179 165.000   8
   8  -5  24-22.4612 113.665   5
   5   8 -24-15.3531 73.1068   3
   5  -8  24-44.7591 164.691   8
  -5   8 -24 96.3858 100.841   2
   5   8 -24 15.5895 87.5400   2
  -8   5 -24-50.0478 82.8056   3
   5  -8  25 136.877 187.496   5
   5  -8  25 206.114 220.739   8
  -5  -8  25 133.171 220.657   8
  -5  -8  25-45.6347 179.130   5
   8  -5  25 86.8570 217.479   8
  -5   8 -25 194.208 169.044   3
   8  -5  25 94.1304 164.629   5
   5   8 -25 148.980 165.103   3
  -5   8 -25 378.145 175.598   2
   5   8 -25 432.111 175.566   2
  -8   5 -25 34.3058 148.300   3
   5   8 -26 32.8061 85.1767   2
  -8   5 -26-17.9158 69.5947   3
   5  -8  26 46.8249 164.567   8
  -5  -8  26 90.9858 175.106   8
  -5  -8  26 23.3786 133.635   5
   8  -5  26-111.477 170.214   8
  -5   8 -26 33.0878 75.9072   3
   8  -5  26 24.1558 99.3401   5
   5   8 -26 16.9627 89.6357   3
   5  -8  26-48.1077 128.921   5
  -5   8 -26 33.6153 88.8270   2
  -5  -8  27 139.708 217.944   8
   5  -8  27 122.772 179.820   5
  -5  -8  27 24.3499 167.137   5
   8  -5  27-63.6886 196.548   8
  -5   8 -27 159.677 154.527   3
   8  -5  27-24.7615 159.419   5
  -5   8 -27 360.363 173.654   2
   5   8 -27 621.496 174.822   2
   5  -8  27 334.653 227.134   8
   5   8 -27 52.0867 154.043   3
  -8   5 -27-18.3641 137.793   3
   5  -8  28 24.3810 169.331   8
  -5  -8  28-142.853 186.003   8
   5  -8  28 25.0377 151.108   5
   8  -5  28-21.7266 142.992   8
   8  -5  28-50.6707 94.0612   5
  -5   8 -28-72.3800 91.5518   3
  -8   5 -28-18.7931 76.8890   3
   5   8 -28 83.8781 95.6209   2
  -5  -8  28-24.8931 144.016   5
   5   8 -28 130.102 95.8264   3
  -5   8 -28-35.0051 98.2407   2
   5  -8  29-24.8375 183.018   8
   5  -8  29-25.9479 121.152   5
   8  -5  29-88.8444 170.979   8
  -5  -8  29-25.4068 133.747   5
  -5   8 -29 92.1533 93.7594   3
   5   8 -29 18.9797 84.7879   3
   5   8 -29 85.6783 102.481   2
  -8   5 -29-19.2119 74.4779   3
  -5   8 -29-53.5098 92.4802   2
  -5  -8  29 218.796 194.708   8
   5  -8  30-25.2836 179.374   8
  -5  -8  30-74.3874 182.673   8
   8  -5  30-22.6725 162.465   8
   5  -8  30 26.3979 128.630   5
  -5  -8  30 105.628 136.442   5
  -5   8 -30-39.2719 85.4066   3
   5   8 -30 17.4750 87.1665   2
  -5   8 -30 36.3011 100.678   2
   5   8 -30 58.0559 81.9670   3
   5  -8  31 51.3825 184.538   8
   8  -5  31-46.2150 166.134   8
   5  -8  31-26.8298 128.711   5
  -5  -8  31-26.8946 117.462   5
  -5   8 -31 19.9584 90.0635   3
   5   8 -31-60.1830 83.6888   3
   5   8 -31-71.1994 99.6870   2
  -5  -8  31 101.054 177.995   8
  -5  -8  32 205.635 193.054   8
   5   8 -32 18.1113 92.7032   2
   5   8 -32-20.4086 79.6789   3
  -5  -8  32-27.3501 122.169   5
   8   6  -2 43.0886 60.2944   6
   8   6  -3 362.880 263.120   6
   8   6  -4 30.3084 48.8355   6
   8  -6   4-26.9475 78.4213   7
  -8   6  -5 197.858 108.051   4
   8  -6   5-10.9069 101.004   5
   8  -6   5-13.3085 112.601   7
   8   6  -5 293.130 112.388   6
   8  -6   6-11.3080 110.224   5
   8  -6   6 66.4048 117.488   7
   8   6  -6 215.298 114.357   6
  -8   6  -6 252.222 111.843   4
  -8  -6   6-38.1785 190.957   1
   8  -6   7-13.2184 49.6194   6
  -6  -8   7-12.1785 74.5654   5
  -8  -6   7-18.5682 64.3118   5
   8  -6   7 47.0246 70.4240   5
   8  -6   7-13.1660 86.9904   7
   8   6  -7 136.765 66.5174   6
  -8   6  -7 131.426 65.4550   4
   8  -6   8 13.2236 60.0115   6
   6  -8   8 14.2369 76.4398   5
  -6  -8   8 25.1634 86.6371   5
   8  -6   8 24.3614 75.5208   5
  -8  -6   8 9.70701 75.2962   5
   8   6  -8 325.022 84.9548   6
  -8   6  -8-9.31624 55.4747   2
   8   6  -8 52.2707 64.8368   7
  -8  -6   8-7.07500 73.8377   4
   8  -6   8-12.8865 91.8001   7
  -8   6  -8 371.606 94.1924   4
  -8  -6   8 132.673 188.952   1
  -8   6  -9-9.71790 36.6209   2
   8  -6   9-13.2431 47.9290   6
   6  -8   9 14.6564 88.5309   5
  -6  -8   9-26.0493 71.1911   5
   8  -6   9-12.5644 67.6504   5
  -8  -6   9 30.2621 67.3242   5
  -8  -6   9-10.3464 47.1981   8
   8  -6   9 25.8208 90.0050   7
   6  -8   9 35.6301 76.0229   7
  -8   6  -9 306.425 82.6284   4
   8  -6   9-12.6800 59.5748   8
   8  -6  10-26.5653 47.8768   6
  -8   6 -10-9.07037 54.3133   3
  -8   6 -10 10.1126 36.6489   2
   6  -8  10-30.2119 78.0974   5
  -6  -8  10-13.4329 69.4997   5
   8  -6  10-26.2147 77.1588   5
  -8  -6  10 10.9606 51.3432   8
  -8  -6  10-31.6217 64.7329   5
   8  -6  10-13.2347 63.2460   8
   8  -6  10 12.9992 81.7791   7
   6  -8  10-23.3600 69.7771   7
   6  -8  10-14.9996 66.8120   8
  -8   6 -10-10.9719 57.9003   4
   6   8 -10-10.3076 32.8687   2
  -6   8 -10 11.5030 32.8099   2
  -6   8 -11 47.4758 54.3075   2
  -8  -6  11 11.6070 72.2590   8
   8  -6  11-13.3359 55.8180   6
   8  -6  11 55.2552 84.1228   8
   6  -8  11-15.4772 70.9259   8
  -8   6 -11 56.7998 61.9936   3
   6  -8  11-46.4979 87.4365   5
  -8   6 -11 10.5544 51.1599   2
  -6  -8  11-41.8166 82.5660   5
   8  -6  11 40.2846 77.4238   5
  -8  -6  11 55.7506 79.4430   5
  -6  -8  11-27.8007 73.8233   8
   8  -6  11 27.0712 95.6634   7
  -8   6 -11 108.226 71.8124   4
   6   8 -11 53.5102 50.6897   2
  -6   8 -12 208.238 81.6156   2
  -8   6 -12 177.739 89.1324   3
   6  -8  12-15.9899 103.360   5
  -6  -8  12 14.3194 99.2260   5
   8  -6  12 42.0010 99.5117   5
  -8   6 -12 10.8933 70.3395   2
   6   8 -12 144.519 78.4159   2
   8  -6  12 13.4058 69.6745   6
  -6  -8  12-28.8771 97.7763   8
   8  -6  12-40.8268 101.079   7
   6  -8  12-15.9741 93.0448   8
  -8   6 -12 282.813 97.3774   4
   8  -6  12-28.8186 92.2456   8
   8  -6  13 67.4404 127.486   6
   6  -8  13 65.9715 145.110   8
   6   8 -13 134.455 130.378   3
  -6   8 -13 302.608 131.773   2
   6  -8  13 16.3250 141.685   5
  -8   6 -13 387.236 138.145   3
  -6  -8  13 14.5992 142.229   5
   8  -6  13 40.4627 142.727   7
   8  -6  13 72.0056 134.738   5
  -6  -8  13 14.9985 133.563   8
   6   8 -13 264.837 128.482   2
  -8   6 -13 113.547 120.790   2
   8  -6  13 15.0245 140.139   8
  -8   6 -13 339.208 136.838   4
  -6   8 -14 291.865 182.151   3
   6   8 -14 375.931 182.130   3
  -6   8 -14 364.445 180.275   2
   6   8 -14 287.096 175.815   2
   6  -8  14-33.6911 190.912   5
  -6  -8  14-30.2986 182.010   5
  -8   6 -14 360.919 180.995   3
   8  -6  14 119.980 182.172   5
  -6  -8  14-15.5765 185.871   8
   8  -6  14-15.6514 184.818   8
   6  -8  14-17.0232 181.609   8
  -8   6 -14 333.516 177.128   2
  -8   6 -14 407.869 188.470   4
  -6   8 -15 144.532 113.833   3
   6   8 -15 275.859 121.474   3
   6  -8  15-34.1210 118.246   5
  -6   8 -15 146.142 103.750   2
  -6  -8  15 15.5120 120.567   5
   6   8 -15 233.339 111.723   2
  -8   6 -15 165.510 111.169   3
   8  -6  15 78.0043 122.927   5
   8  -6  15 16.2838 127.142   8
  -6  -8  15 64.6730 129.602   8
  -8   6 -15 47.8688 96.6850   2
   6  -8  15-17.5672 127.559   8
  -6  -8  16 33.5424 120.778   8
  -6   8 -16 173.950 106.125   3
   6   8 -16 103.006 97.8400   3
   6  -8  16-17.3631 119.146   5
  -6  -8  16 32.1662 113.725   5
  -6   8 -16 164.448 89.1577   2
   6   8 -16 63.7005 88.4660   2
   8  -6  16 48.6144 114.352   5
   8  -6  16 16.9242 121.615   8
  -8   6 -16 49.7529 86.4404   2
  -8   6 -16 160.511 97.9481   3
   6  -8  16 18.1195 120.418   8
  -6   8 -17 88.7160 115.597   3
   6   8 -17 142.208 110.863   3
  -6  -8  17 33.3262 132.981   5
   8  -6  17 153.684 138.328   5
  -8   6 -17 107.848 108.940   3
   6   8 -17 211.272 110.046   2
  -6  -8  17 104.285 141.094   8
  -8   6 -17 100.783 103.800   2
   8  -6  17-52.6933 154.430   8
  -6   8 -18 113.175 118.558   2
  -6  -8  18-34.4912 139.163   5
   6   8 -18 220.840 128.042   3
   8  -6  18 106.155 140.206   5
   6  -8  18-38.4775 147.627   8
  -6  -8  18-17.9957 157.620   8
  -8   6 -18 211.111 120.318   3
   8  -6  18 18.2079 151.527   8
  -8   6 -18 78.3544 113.952   2
   6   8 -18 345.656 125.610   2
  -6   8 -19 13.4252 89.8798   3
   6   8 -19 229.933 103.456   3
  -6   8 -19 14.5584 85.4005   2
  -6  -8  19 18.1038 129.264   5
   6  -8  19 18.9557 132.028   5
   6  -8  19 39.6048 161.823   8
  -6   8 -20 179.418 114.710   3
   6  -8  20-19.4845 122.447   5
  -6  -8  20-96.1444 160.032   8
   8  -6  20 38.9552 158.329   8
  -6   8 -20 134.752 97.9142   2
  -8   6 -20 83.8124 104.400   2
   6  -8  20 81.4492 148.938   8
   8  -6  21-40.2091 137.949   8
  -6  -8  21 59.5103 131.926   8
   8  -6  21-20.6765 132.345   5
   6   8 -21 28.1918 84.8272   3
  -6   8 -21 92.2737 99.5232   2
  -8   6 -21 141.938 97.2424   3
   6   8 -21 117.272 92.2168   2
  -8   6 -21 28.8385 80.2220   2
   6  -8  21 81.2877 123.876   5
   6  -8  21-20.9156 144.573   8
  -6   8 -21 71.3783 95.6382   3
  -6  -8  21-19.7936 124.126   5
  -6   8 -22 102.545 109.233   3
   6  -8  22 64.4033 153.314   8
  -6  -8  22-40.8848 149.606   8
   8  -6  22 127.815 115.576   5
   8  -6  22 82.8808 177.128   8
   6   8 -22 203.344 111.343   3
  -6   8 -22 47.3546 96.2252   2
  -8   6 -22 30.7307 94.4034   3
   6   8 -22 147.435 99.5598   2
   6  -8  22-20.8476 129.442   5
  -8   6 -22 14.5172 101.552   2
  -6  -8  22 20.3898 127.051   5
  -6  -8  23 20.9818 131.222   5
  -6   8 -23 105.105 105.547   3
   8  -6  23-21.3260 156.274   8
   8  -6  23-21.9184 123.505   5
   6   8 -23 104.634 101.995   3
  -6   8 -23 31.5884 94.1791   2
   6   8 -23 364.253 115.624   2
   6  -8  23-65.8069 119.693   5
   6  -8  23 22.0100 157.790   8
  -8   6 -23 110.696 113.243   3
  -8   6 -23-14.9410 92.9411   2
  -6  -8  23 21.0399 154.392   8
   6  -8  24 22.5387 167.346   8
  -6  -8  24-21.6315 157.716   8
  -6  -8  24 22.2435 139.583   5
   8  -6  24-43.8414 181.967   8
  -6   8 -24 79.6002 96.0885   3
   8  -6  24-45.8425 134.547   5
   6   8 -24-16.1412 87.7269   3
  -6   8 -24-16.1733 90.7837   2
   6   8 -24-46.8032 86.1935   2
  -8   6 -24 61.4281 90.1519   2
  -8   6 -24 16.2540 86.8553   3
   6  -8  24-22.4588 129.936   5
   6  -8  25-68.9056 131.004   5
   6   8 -25 32.0359 81.1897   2
   6  -8  25-46.1147 158.570   8
  -6  -8  25-22.8302 117.804   5
   8  -6  25-22.1097 175.560   8
   8  -6  25 23.5173 119.079   5
  -6   8 -25 48.8565 79.3147   3
   6   8 -25 99.3912 95.9635   3
  -6   8 -25 33.0907 87.0070   2
  -6  -8  25-22.2022 151.098   8
  -8   6 -25-47.2816 84.3560   2
  -8   6 -25-17.4654 73.6886   3
   6   8 -26 16.9846 100.689   3
   6  -8  26 48.4221 142.619   5
  -6  -8  26 22.7611 166.057   8
   8  -6  26 113.311 194.894   8
  -6  -8  26-46.8000 138.700   5
   8  -6  26-24.0983 122.637   5
  -6   8 -26 104.896 120.158   3
  -6   8 -26 236.773 125.354   2
   6   8 -26 344.879 129.929   2
  -8   6 -26 53.6899 99.5621   3
  -8   6 -26-16.1540 105.148   2
   6  -8  26 23.5649 171.166   8
   6  -8  27-96.2112 175.509   8
  -6  -8  27 23.3070 182.218   8
   6  -8  27-24.7052 125.187   5
   8  -6  27-92.7988 169.294   8
  -6  -8  27-48.7473 121.123   5
   8  -6  27 24.6631 131.966   5
  -6   8 -27-17.8437 101.951   3
   6   8 -27-18.2081 92.3919   3
  -6   8 -27 17.2623 89.2805   2
   6   8 -27 134.547 93.1804   2
  -8   6 -27 36.6305 87.4406   3
  -8   6 -27 16.5319 85.5275   2
   6  -8  28 147.159 245.488   8
  -6  -8  28-23.8389 200.440   8
   6  -8  28-50.3697 161.423   5
   8  -6  28-23.7085 203.477   8
  -6  -8  28-24.9183 157.820   5
   8  -6  28 77.0446 145.719   5
  -6   8 -28 90.9716 107.416   3
  -6   8 -28 17.6022 126.544   2
   6   8 -28-55.8485 111.351   3
   6   8 -28 137.629 129.514   2
  -8   6 -28 38.0890 96.8738   3
  -8   6 -28 16.8986 92.7945   2
  -8   6 -29-38.8757 84.1412   3
   6  -8  29-24.9853 168.166   8
  -6  -8  29-48.6971 174.238   8
   8  -6  29-24.2049 171.538   8
   6  -8  29-26.0939 132.058   5
  -6  -8  29-50.8929 136.006   5
   8  -6  29-26.2127 107.291   5
  -6   8 -29 58.1866 110.604   3
  -6   8 -29 35.8503 99.0861   2
   6   8 -29 19.0118 92.4785   3
   6   8 -29 70.2734 103.184   2
  -8   6 -29-69.0082 90.6455   2
  -6   8 -30 18.2362 90.9845   2
   6  -8  30 101.662 178.567   8
   8  -6  30-49.3547 180.178   8
   6  -8  30-26.5401 129.363   5
  -6  -8  30 26.4490 136.698   5
   8  -6  30-53.4179 124.670   5
  -6   8 -30-19.7315 92.3339   3
   6   8 -30-53.7763 99.4954   2
   6   8 -30-19.7348 83.6356   3
  -8   6 -30-39.6426 74.2198   3
  -8   6 -30 17.5823 100.679   2
  -6  -8  30-49.6698 184.643   8
   6   8 -31-20.1052 82.7219   3
  -6  -8  31-75.9065 196.264   8
   8  -6  31 75.3660 194.870   8
   6  -8  31-53.9370 131.380   5
  -6  -8  31-26.9353 110.541   5
  -6   8 -31 20.0467 89.3888   3
   6   8 -31 17.8378 95.7172   2
  -8   6 -31-20.1778 72.7240   3
  -8   6 -31 125.318 105.455   2
   6   8 -32 72.6017 97.5214   2
  -6  -8  32 25.7437 174.469   8
  -6  -8  32-54.8032 117.193   5
   6   8 -32 20.4590 73.3130   3
   8   7  -4 96.1960 87.2059   6
  -8  -7   5-29.5022 136.119   5
   8   7  -5 421.054 152.766   6
   8  -7   6-25.1953 57.4195   5
  -8  -7   6-40.7760 58.2413   5
   8  -7   6-55.3513 84.7289   7
   8   7  -6 59.4447 54.8791   6
  -7  -8   7 12.0614 143.839   5
   8  -7   7-12.9948 144.840   5
  -8  -7   7-31.8337 146.555   5
   8  -7   7 13.7956 154.126   7
   7  -8   8-14.4369 67.3843   5
  -7  -8   8-37.4196 76.4631   5
   8  -7   8-13.4306 77.8717   5
  -8  -7   8 22.0503 66.7395   5
   8  -7   8-13.6579 94.0251   7
   7  -8   8 13.2225 84.1610   7
   7  -8   9 14.8545 84.3349   5
  -7  -8   9-38.7669 82.0065   5
   8  -7   9-27.6495 85.4239   5
   8  -7   9-13.6449 93.7863   7
   7  -8   9-52.1349 95.6932   7
  -8   7  -9-10.5768 47.2862   2
   7  -8  10 25.7519 89.6231   7
   7  -8  10 15.3040 90.9290   5
  -7  -8  10 13.3376 78.4386   5
   8  -7  10-14.3211 85.2344   5
  -8   7 -10 10.9608 37.1693   2
   8  -7  10-26.7071 92.8667   7
   8  -7  10 14.3005 61.8257   8
  -7   8 -10 11.6517 35.6100   2
  -8   7 -10 136.094 65.1954   4
  -8   7 -11 11.3610 36.0882   2
   8  -7  11 41.1646 51.2494   6
   7  -8  11-15.6974 89.6436   5
  -7  -8  11-27.4044 74.6739   5
   8  -7  11 29.3665 79.9908   5
  -7  -8  11 13.8062 56.7584   8
   8  -7  11 13.4247 95.2853   7
   7  -8  11-15.6763 66.2272   8
   7  -8  11 38.4965 87.4638   7
   8  -7  11-14.8276 78.0479   8
   7   8 -11-10.6358 30.3750   2
  -7   8 -11-12.0173 36.2110   2
  -8   7 -11 79.4725 61.9530   4
   7   8 -12 33.1705 48.8553   2
  -7   8 -12 24.7939 44.4319   2
   8  -7  12-13.7502 50.0857   6
   7   8 -12 59.4158 62.7406   3
  -8   7 -12 94.8285 74.0829   3
  -8   7 -12-11.7463 49.9865   2
   7  -8  12 80.0867 105.205   5
   8  -7  12 80.7534 107.314   7
  -7  -8  12-13.9797 85.9465   5
   8  -7  12 14.9454 89.0892   5
  -7  -8  12-14.3567 73.0117   8
   7  -8  12-16.1763 89.0566   8
   8  -7  12-15.3764 80.6999   8
  -8   7 -12 102.374 62.4513   4
  -7   8 -13 68.6373 74.3594   3
  -7   8 -13 12.7564 51.1786   2
   7   8 -13 22.9227 45.3621   2
   7   8 -13 30.8812 68.2138   3
  -8   7 -13 54.6008 70.3895   3
  -8   7 -13 85.2438 62.2906   2
   7  -8  13-16.5191 98.8837   5
  -7  -8  13-43.5754 93.1869   5
   8  -7  13-30.9771 94.2220   5
   8  -7  13 15.9378 95.5404   8
  -7  -8  13 14.9250 77.9595   8
   7  -8  13 16.6902 81.7521   8
  -8   7 -13 45.5470 60.7870   4
  -7   8 -14 141.648 105.069   3
  -7   8 -14 105.307 93.0238   2
   7   8 -14 214.430 100.194   2
  -8   7 -14 201.634 107.350   3
   7   8 -14 179.996 102.855   3
   7  -8  14 50.1970 125.515   5
  -8   7 -14 62.4236 91.7213   2
   8  -7  14-15.8320 114.540   5
  -7  -8  14-29.7815 110.234   5
  -7  -8  14-31.0233 109.876   8
   8  -7  14-16.5179 116.591   8
   7  -8  14 34.4460 108.343   8
  -7   8 -15 36.5241 70.5401   3
  -7   8 -15-13.5752 55.6690   2
   7   8 -15-12.3752 50.7734   2
  -8   7 -15-11.5977 74.6730   3
   7   8 -15-11.0005 63.7587   3
   7  -8  15-17.2548 96.9195   5
   8  -7  15 81.9455 102.913   5
  -7  -8  15 46.3794 106.338   5
  -8   7 -15 25.8538 64.2450   2
   7  -8  15-17.7645 101.322   8
   8  -7  15-17.1082 107.422   8
  -7  -8  15 16.1125 101.179   8
  -8   7 -16-13.3772 62.2518   2
  -7   8 -16 12.4250 69.7344   3
   7  -8  16-17.5485 98.4893   5
  -8   7 -16 11.9932 73.3502   3
   7   8 -16 91.2662 79.2306   3
   7   8 -16-12.7074 57.7755   2
   8  -7  16 16.9575 93.6735   5
  -7  -8  16-48.1114 104.336   5
   8  -7  16-53.1005 111.066   8
   7  -8  16-36.6346 113.493   8
  -7  -8  16-50.1703 106.241   8
  -8   7 -17 121.003 106.869   2
  -8   7 -17 185.953 113.850   3
   7   8 -17 118.295 106.464   3
   8  -7  17-17.5219 126.991   5
   8  -7  17 18.2968 139.247   8
  -7  -8  17 16.6237 134.396   5
  -7  -8  17 17.3423 137.373   8
   7   8 -17 184.522 108.191   2
  -7  -8  18-17.4837 124.926   5
   7   8 -18 98.6761 96.9692   3
   7   8 -18 92.9467 79.2313   2
   7  -8  18-19.4297 150.250   8
  -7   8 -18 58.7592 91.3790   2
  -7  -8  18 17.9609 157.943   8
   8  -7  19 97.4970 226.448   8
  -7   8 -19 419.914 216.410   3
   7  -8  19-19.1371 210.002   5
  -7  -8  19-18.0795 212.399   5
  -8   7 -19 143.255 210.431   2
  -7   8 -19 367.327 222.155   2
   7  -8  19-19.9921 219.777   8
   7   8 -19 816.886 225.136   3
   8  -7  20 60.2796 143.522   8
   7  -8  20-19.9704 125.083   5
  -7   8 -20 139.203 98.4514   3
   7  -8  20-82.1996 143.808   8
  -8   7 -20 59.0699 78.0672   2
  -8   7 -20-13.6999 75.6049   3
   8  -7  20 39.0401 111.153   5
  -7   8 -20 75.5301 88.9702   2
  -7  -8  20-19.2128 130.686   8
   7  -8  21 20.4985 209.049   5
  -7   8 -21 287.876 208.637   3
   8  -7  21 144.374 218.228   5
  -7  -8  21-39.5745 207.944   5
  -7  -8  21-19.8297 219.826   8
   8  -7  21 20.6825 229.712   8
  -8   7 -21 438.037 214.437   3
   7   8 -21 366.515 206.963   3
  -7   8 -21 449.811 214.419   2
   7   8 -21 600.989 214.212   2
  -8   7 -21 133.487 206.808   2
   7  -8  21 105.505 225.866   8
   7  -8  22-21.0260 112.996   5
   8  -7  22 21.1947 117.681   5
   7  -8  22-64.9416 152.268   8
  -7  -8  22-20.3925 115.209   5
  -7  -8  22 40.8902 142.595   8
  -8   7 -22 75.0613 96.0997   3
  -7   8 -22 63.6475 85.5129   2
   7   8 -22 14.5324 78.7164   3
   7   8 -22 90.6767 85.6038   2
  -8   7 -22 15.2495 74.9625   2
  -7   8 -22 88.6150 88.7900   3
   8  -7  22-63.7840 137.212   8
  -7  -8  23-42.0953 166.976   8
   7  -8  23 22.1164 132.858   5
   7  -8  23 244.057 198.899   8
   8  -7  23 21.7611 137.818   5
  -7  -8  23-43.3066 126.687   5
  -7   8 -23 62.6662 121.698   3
  -8   7 -23 46.2432 106.480   3
  -7   8 -23 114.159 123.111   2
   7   8 -23 31.4271 92.5873   3
   7   8 -23 151.904 106.183   2
  -8   7 -23-31.3164 107.975   2
   8  -7  23 87.3461 192.231   8
   8  -7  24-44.7946 163.476   8
   7  -8  24 45.4263 149.678   8
  -7  -8  24-21.6419 160.867   8
   8  -7  24-23.0143 121.071   5
  -7  -8  24 44.5187 132.733   5
  -7   8 -24 32.0745 88.9277   3
  -7   8 -24 16.6949 89.5334   2
  -8   7 -24-16.6071 77.6689   3
   7   8 -24 16.1601 77.2809   3
   7   8 -24-15.6211 80.9031   2
   7  -8  24 45.2668 131.166   5
  -8   7 -24 48.1793 84.6673   2
   7  -8  25 46.2809 132.008   5
  -7  -8  25 22.2215 151.251   8
   8  -7  25 47.1429 126.065   5
  -7  -8  25 22.8503 124.301   5
  -7   8 -25-16.4009 90.7748   3
  -7   8 -25 33.3270 87.6641   2
   7   8 -25-16.5947 79.1617   3
   8  -7  25-137.645 173.432   8
  -8   7 -25 32.8981 95.3273   2
  -8   7 -25-102.057 87.8709   3
   7  -8  25 23.2292 161.425   8
  -8   7 -26-34.7954 80.1347   3
   7  -8  26 24.3783 114.170   5
   8  -7  26 164.298 156.738   8
   8  -7  26-48.2182 124.951   5
  -7  -8  26-23.8439 121.307   5
  -7   8 -26 70.4084 89.9687   3
  -7   8 -26 17.0206 90.2742   2
  -8   7 -26 16.8288 90.8254   2
   7  -8  26 142.405 167.001   8
  -7  -8  26-91.1796 168.214   8
  -7  -8  27-23.3441 219.782   8
   8  -7  27 71.9444 185.902   8
   7  -8  27-74.6310 146.110   5
   8  -7  27-75.1867 147.196   5
  -7   8 -27-35.9150 90.9943   3
  -8   7 -27 18.6158 88.7286   3
  -7   8 -27 34.7363 106.350   2
  -8   7 -27 17.1983 99.6296   2
   7  -8  27-72.6580 249.771   8
   7  -8  28 49.3807 192.359   8
  -7  -8  28-47.7699 173.668   8
   8  -7  28-24.4820 190.753   8
   7  -8  28 126.727 127.303   5
   8  -7  28-25.5785 112.402   5
  -7   8 -28 73.2010 101.427   3
  -7   8 -28 70.8225 93.4315   2
  -8   7 -28-17.5526 87.6143   2
  -8   7 -28 18.9934 92.5476   3
  -7   8 -29 18.0262 98.0115   2
   7  -8  29 125.666 184.956   8
   8  -7  29 174.670 188.570   8
   7  -8  29-26.2630 127.692   5
   8  -7  29-26.0694 118.571   5
  -7   8 -29-39.0149 92.8758   3
  -8   7 -29-17.8939 93.9974   2
  -8   7 -29-19.3577 92.1639   3
  -7   8 -30 39.6743 93.0123   3
   7  -8  30-102.256 186.040   8
   8  -7  30 50.8229 183.220   8
   7  -8  30 53.4031 126.320   5
   8  -7  30 108.146 119.113   5
  -7   8 -30-18.3350 90.1542   2
  -8   7 -30 53.3752 94.4977   2
  -8   7 -30 80.2184 103.971   3
  -8   7 -31-40.7797 83.9660   3
   8  -7  31-25.8369 193.772   8
   8  -7  31 54.9761 136.702   5
   8   8  -6 607.481 432.806   6
   8  -8   8 43.9160 78.6681   5
   8  -8   8-14.3376 86.9392   7
   8  -8   9-30.1213 89.4378   5
   8  -8   9-28.3607 86.7959   7
   8  -8  10 61.7243 95.6926   5
   8  -8  10 70.7557 103.916   7
   8  -8  11-47.7144 97.5014   5
   8  -8  11-15.8848 63.3916   8
   8  -8  11-13.8317 97.2653   7
  -8   8 -11 12.1709 42.3580   2
   8  -8  12 16.3814 67.0467   8
   8  -8  12 32.4385 86.6841   5
  -8   8 -12-12.5533 41.3641   2
  -8   8 -13-25.8943 44.6181   2
  -8   8 -13 34.7381 73.6343   3
   8  -8  13 16.7249 99.6149   5
   8  -8  13 16.9008 80.4829   8
  -8   8 -14 26.6321 53.6764   2
   8  -8  14-50.8045 106.679   5
  -8   8 -14 71.6459 78.2543   3
   8  -8  14-69.7194 102.738   8
  -8   8 -15 27.4620 55.0703   2
  -8   8 -15 12.3101 77.6526   3
   8  -8  15-34.9065 96.7398   5
   8  -8  15 17.9736 99.6047   8
  -8   8 -16-25.1178 81.3643   3
   8  -8  16-17.7479 119.194   5
   8  -8  18 56.4132 138.908   5
  -8   8 -18 281.937 146.057   2
   8  -8  18-39.2804 154.234   8
  -8   8 -19 27.3544 78.9214   3
   8  -8  19-20.1977 130.452   8
  -8   8 -19 15.2593 68.8192   2
   8  -8  19 38.6611 114.131   5
   8  -8  20-62.2521 295.813   8
  -8   8 -20 679.070 294.439   3
   8  -8  20-40.3311 284.946   5
  -8   8 -20 658.536 291.561   2
   8  -8  21-21.3003 145.632   8
  -8   8 -21 15.6529 74.3252   2
   8  -8  21 82.7690 125.748   5
  -8   8 -21 14.5245 88.8914   3
   8  -8  22 262.140 333.873   8
   8  -8  22 148.533 309.580   5
  -8   8 -22 208.687 295.177   2
  -8   8 -22 789.282 307.901   3
   8  -8  23-22.3072 129.616   5
  -8   8 -23-15.7998 83.8247   3
  -8   8 -23 49.3322 84.0644   2
   8  -8  23 67.1497 157.495   8
   8  -8  24 91.6306 158.380   8
  -8   8 -24 80.8470 102.898   3
  -8   8 -24 16.8288 86.3500   2
   8  -8  24 45.6564 133.185   5
  -8   8 -25-16.5279 79.8216   3
  -8   8 -25-17.2062 81.0904   2
   8  -8  25-24.0607 130.314   5
   8  -8  25-117.110 165.698   8
   8  -8  26 23.9127 188.950   8
   8  -8  26-73.7100 158.744   5
  -8   8 -26 17.5703 98.2966   2
  -8   8 -26 70.9155 94.3655   3
   8  -8  27-24.4030 165.453   8
   8  -8  27-50.1175 133.106   5
  -8   8 -27-17.4895 100.225   2
  -8   8 -27-36.1641 100.326   3
   8  -8  28-25.9848 130.229   5
  -8   8 -28-35.6505 100.197   2
  -8   8 -28-18.4232 87.7147   3
   8  -8  28-24.8641 182.222   8
   8  -8  29-25.3122 168.503   8
   8  -8  29-26.4371 128.546   5
  -8   8 -29 18.1399 88.2404   2
  -8   8 -29 19.6299 84.9668   3
   8  -8  30 154.358 198.837   8
   8  -8  30 26.8681 136.913   5
  -8   8 -30 59.8719 108.678   3
  -9   0   0-18.5856 67.9354   4
   9   0   0 75.4037 91.3763   7
   9   0   0 11.2037 53.1816   6
   9   0  -1 411.663 232.300   7
   9   0  -1 111.225 214.400   6
   9   0   1 486.999 231.363   7
  -9   0   1 230.674 215.740   4
  -9   0  -1 378.859 217.586   4
   9   0   1 284.792 219.236   6
  -9   0  -2-9.10954 60.9185   4
   9   0   2 25.2295 75.3279   7
   9   0  -2-23.9169 68.4143   7
  -9   0   2-38.0753 65.0166   4
   9   0   2-11.0641 57.3471   6
   9   0  -2 11.6748 54.6527   6
  -9   0  -3 26.8590 67.4239   4
   9   0  -3 11.9046 81.2371   7
  -9   0   3 37.9172 70.8763   4
   9   0   3 110.740 70.3320   6
   9   0  -3-12.1515 63.9473   6
  -9   0  -4-18.1265 62.3533   4
   9   0   4 12.9071 71.3467   7
   9   0  -4 11.8225 67.4322   7
  -9   0   4-19.2946 57.4882   4
   9   0   4-11.2128 53.4160   6
   9   0  -4 60.5830 63.6648   6
   9   0  -5 72.6055 126.727   6
  -9   0  -5 183.692 136.609   4
   9   0   5 237.286 141.869   7
   9   0  -5 236.120 142.901   7
  -9   0   5 167.993 131.569   4
   9   0   5 136.386 131.548   6
  -9   0  -5-93.3036 303.486   1
   9   0  -6-12.1041 43.3002   6
  -9   0  -6-141.900 292.232   1
   9   0   6 13.3767 73.8937   7
  -9   0  -6 9.23495 62.8149   4
   9   0  -6-35.4236 86.0884   7
   9   0   6 11.5274 56.0296   6
  -9   0   6 19.7736 54.6156   4
   9   0  -7-12.1261 57.7630   6
  -9   0  -7 272.342 291.427   1
   9   0   7 96.2369 88.4421   7
   9   0  -7 12.0888 81.4415   7
   9   0   7 93.6516 78.5266   6
  -9   0   7 60.4929 64.8990   4
   9   0  -8 12.1647 38.5560   6
   9   0   8-27.9492 76.1373   7
   9   0  -8-12.1262 78.1612   7
   9   0   8-11.8977 56.8749   6
  -9   0   8-30.4260 54.4628   4
  -9   0   9 10.1920 45.2061   4
   9   0   9 57.4687 81.2734   7
   9   0  -9 12.1846 74.0177   7
   9   0   9 36.6957 61.2367   6
   0  -9  10-15.2583 75.7446   5
   9   0  10 14.6236 78.1823   7
   9   0 -10-24.7119 84.9785   7
   9   0  10-12.4489 61.8197   6
   0   9 -10 11.6322 30.6641   2
  -9   0 -10-101.118 301.448   1
   0  -9  11 15.6967 94.3438   5
   0  -9  11 15.5779 95.2182   8
  -9   0 -11 188.837 299.862   1
   9   0 -11 12.4485 101.510   7
   9   0  11 240.861 100.306   6
   9   0  11 74.5380 97.5659   7
   0   9 -11 119.722 84.5823   2
   0   9 -12-12.3293 50.4426   2
   0  -9  12 32.3176 89.2655   5
  -9   0 -12-69.9682 276.043   1
   9   0  12 30.3793 70.6911   7
   9   0 -12-25.1172 74.7643   7
   9   0  12-12.9150 67.8078   6
   0  -9  12 16.0437 69.3885   8
  -9   0 -13-89.1631 362.660   1
   0  -9  13-33.1079 260.037   5
   9   0  13 722.548 273.604   6
   9   0  13 170.578 259.039   7
   0  -9  13 16.5300 256.869   8
   9   0 -13-12.8002 257.175   7
   0   9 -14-13.0501 63.4310   2
   0  -9  14 17.0483 100.067   5
   9   0  14-13.6401 81.1986   6
   0  -9  14-17.0329 102.794   8
   9   0  14 26.5340 65.0797   8
  -9   0 -14-127.302 260.846   1
   0  -9  15 52.1043 171.237   5
   0   9 -15 295.796 168.588   2
   0  -9  15-17.5486 176.136   8
   9   0  15 358.855 165.376   8
   9   0  15 180.851 168.569   6
   0   9 -16 12.4248 67.5189   3
   0  -9  16 17.5601 111.556   5
   0   9 -16 13.7004 57.6689   2
   0  -9  16-36.1469 110.537   8
   9   0  16-10.0354 66.7903   8
   9   0  16-14.1893 79.6361   6
   0   9 -17-12.7907 78.0073   3
   0  -9  17 36.1411 98.8415   5
   9   0  17 31.8582 58.7947   8
   9   0  17 14.4779 78.1676   6
   0   9 -18-14.5150 65.3376   2
   0  -9  18-19.1470 120.648   8
   0   9 -19 227.677 170.115   3
   0  -9  19 18.8587 173.973   5
   0   9 -19 391.817 173.802   2
   0  -9  19 19.6901 188.011   8
   0   9 -20 27.5198 75.9638   3
   0  -9  20 135.609 140.567   5
   0   9 -20-14.9111 78.0293   2
   0  -9  20-40.4626 150.803   8
   0   9 -21 211.735 124.602   3
   0  -9  21-59.6497 139.770   5
   0  -9  21 20.7717 155.492   8
   0   9 -21 137.789 110.203   2
   0   9 -22 15.7070 75.2050   2
   0   9 -22-28.9605 81.7003   3
   0  -9  22-63.9186 161.206   8
   0  -9  22 20.3866 121.647   5
   0   9 -23 14.9400 86.4835   3
   0   9 -23 16.0972 81.4919   2
   0  -9  23-21.8344 148.544   8
   0  -9  23-21.2107 124.536   5
   0   9 -24-16.0822 80.5747   2
   0   9 -24 15.2920 83.8635   3
   0  -9  24 21.7095 126.099   5
   0  -9  24 111.781 152.481   8
   0  -9  25-22.7864 182.822   5
   0  -9  25-68.5915 194.166   8
   0   9 -25 203.352 145.718   3
   0   9 -25 246.789 160.937   2
   0  -9  26-70.0845 164.134   8
   0   9 -26-16.5445 79.2220   3
   0   9 -26 33.6231 80.4847   2
   0  -9  26-69.8278 142.632   5
   0  -9  27 71.2636 214.208   5
   0  -9  27 23.8482 240.352   8
   0   9 -27 320.870 204.570   3
   0   9 -27 360.302 212.449   2
   0  -9  28 24.3148 188.553   8
   0   9 -28 36.1708 101.763   3
   0   9 -28 34.9985 96.9401   2
   0  -9  28-99.9229 133.667   5
   0  -9  29-24.7676 201.520   8
   0  -9  29-76.3194 145.522   5
   0   9 -29 18.4207 105.717   3
   0   9 -29-17.8197 99.2145   2
   0  -9  30-50.3930 184.513   8
   0  -9  30 77.6177 146.234   5
   0   9 -30-36.2688 103.238   2
   0   9 -30-37.4763 99.8835   3
   0   9 -31 59.8172 106.968   3
   0  -9  31 133.779 155.589   5
   0  -9  31-25.6091 184.219   8
   9   1   0 1599.78 684.322   7
  -9   1   0 1123.73 677.090   4
  -9  -1   0 703.248 675.040   4
   9  -1   0 749.334 678.921   7
   9   1   0 1145.20 677.608   6
   9  -1   0 707.688 676.578   6
  -9  -1   0 495.646 731.882   1
  -9   1  -1-9.82397 76.2001   4
  -9  -1   1-100.889 278.152   1
   9   1   1 74.7250 88.4027   7
  -9  -1   1 8.81000 63.2530   4
   9   1  -1 36.5631 77.7345   7
  -9  -1  -1 70.0309 71.8553   4
   9  -1   1 51.2413 77.3220   7
  -9  -1  -1-221.954 295.171   1
   9  -1  -1-36.6966 76.0837   7
  -9   1   1 99.3228 77.5984   4
   9   1   1 21.6393 58.0284   6
   9   1  -1 32.0697 63.0359   6
   9  -1   1 48.2445 57.8823   6
   9  -1  -1 12.4880 63.3814   6
  -9  -1  -2-645.011 362.681   1
   9   1   2 254.261 209.689   7
  -9  -1  -2 44.3313 199.311   4
   9   1  -2 676.134 219.864   7
  -9   1  -2 314.594 208.041   4
  -9  -1   2 299.336 203.181   4
   9  -1  -2 206.567 208.010   7
  -9   1   2 356.728 206.450   4
   9   1   2 274.018 204.663   6
   9   1  -2 426.181 207.144   6
   9  -1   2 322.081 207.097   6
   9  -1  -2 112.096 199.182   6
   9  -1  -3 12.4424 60.7511   6
  -9  -1  -3-17.8215 79.0861   4
   9   1   3 12.8941 77.4499   7
  -9   1  -3 57.6641 72.4770   4
   9  -1   3 76.8840 90.5676   7
   9   1  -3 85.1325 89.1615   7
  -9  -1   3 81.0261 79.2390   4
   9  -1  -3 36.4068 80.4444   7
  -9   1   3 20.3038 67.0731   4
   9   1   3 88.8956 68.2324   6
   9  -1   3 57.9948 66.5641   6
   9   1  -3 119.261 65.2750   6
   9  -1  -4-12.4473 46.3154   6
  -9   1  -4-9.33775 66.2360   4
   9  -1   4-12.9395 71.5476   7
   9   1  -4-24.1660 74.9317   7
  -9  -1   4-18.5664 61.8648   4
   9  -1  -4 37.2239 77.9221   7
   9   1   4-11.2807 59.3066   6
  -9   1   4 10.1582 59.7080   4
   9  -1   4 11.3502 51.7009   6
   9   1  -4-11.3747 54.2145   6
   9  -1  -5-12.4710 46.1482   6
  -9   1   5-10.3597 49.6348   4
   9   1   5 13.4613 72.8849   7
   9  -1   5 52.2728 75.4115   7
   9   1  -5 11.5941 70.9593   7
   9  -1  -5 24.8613 73.9124   7
  -9  -1   5 9.24041 59.1726   4
   9   1   5 34.7546 61.9556   6
  -9   1  -5 47.1889 67.9044   4
  -9   1  -5-185.589 285.664   1
   9  -1   5 22.9473 58.1297   6
   9   1  -5 11.8333 53.8162   6
   9  -1  -6-25.0273 75.4517   6
   9   1   6 200.270 99.3562   6
   9   1   6 109.520 100.426   7
  -9   1  -6 111.385 93.0694   4
   9  -1   6 145.499 106.784   7
   9   1  -6 358.197 113.149   7
  -9   1  -6 266.888 304.220   1
   9  -1  -6-25.1425 92.2429   7
  -9  -1   6 84.5857 90.8727   4
   9  -1   6 92.8932 89.3253   6
  -9  -1  -6 127.596 274.522   1
  -9   1   6 51.9868 80.2802   4
   9   1  -6 11.7939 80.3863   6
   9   1  -7 35.3191 54.5274   6
  -9   1  -7-15.9170 300.907   1
   9   1   7 71.9308 73.9525   6
  -9   1  -7 37.6067 78.0122   4
   9  -1   7 40.5078 84.6029   7
  -9   1  -7-5.39910 33.4662   3
  -9  -1  -7 81.1845 266.653   1
   9   1  -7 92.2450 79.2204   7
   9  -1  -7-25.2631 73.3910   7
  -9   1  -7 19.1816 35.8753   2
  -9  -1   7 48.1149 68.6324   4
   9  -1   7 81.5019 69.1917   6
   9   1   7 98.5744 79.8336   7
  -9   1   7 52.3724 52.7764   4
  -9   1   8 10.5430 62.8479   4
   9   1  -8 47.0747 67.2207   6
  -9  -1  -8-115.772 264.177   1
   9   1   8 143.403 96.0410   7
  -9   1  -8 95.3208 91.5472   4
   9  -1   8 136.945 102.468   7
  -9   1  -8 274.196 314.285   1
  -9   1  -8 42.5052 60.4453   3
   9   1  -8 195.204 109.367   7
   9  -1  -8 76.2470 90.2826   7
   9   1   8 99.2656 86.2811   6
   9  -1   8 70.8437 78.5940   6
  -9  -1   8 68.5559 76.5636   4
   9   1   9-14.6255 70.6977   7
   9   1  -9-11.7826 44.0802   6
  -9  -1  -9 16.8546 262.841   1
   9   1  -9 137.941 79.3693   7
  -9   1  -9 76.7046 79.7996   4
   9  -1   9 56.2665 83.6898   7
   9  -1  -9-25.8405 84.5536   7
   9   1   9 63.2067 70.5758   6
   9  -1   9 95.8748 68.3843   6
  -9  -1   9-29.4252 55.1241   4
   9   1 -10 11.8179 38.3290   6
   1  -9  10 15.3888 68.2705   5
  -1  -9  10 30.2765 79.5139   5
  -9  -1 -10-103.099 266.190   1
  -9   1 -10 38.9507 75.1362   4
   9  -1  10 28.5817 79.1376   7
   9   1 -10 34.5778 83.8554   7
  -9   1 -10 14.8445 28.7809   3
   9  -1 -10 26.0664 71.2796   7
   9   1  10 12.8844 59.1611   6
   9  -1  10 73.0130 65.6748   6
   9   1  10 29.8162 66.2458   7
   1   9 -10 11.5440 35.7945   2
  -9  -1  10-9.86051 40.8344   4
  -9   1 -10 182.850 316.739   1
  -9  -1  11 9.90539 43.7787   4
   1  -9  11 15.8248 86.1000   5
  -1  -9  11-15.5790 75.9912   5
   9  -1  11 128.559 72.3915   8
   9   1  11 106.582 83.1811   7
   9  -1  11 29.3692 83.1457   7
  -1  -9  11 61.8451 75.4923   8
   9   1 -11 70.9766 80.0321   7
  -9   1 -11-270.489 316.331   1
  -9   1 -11 24.2984 45.2669   3
   9   1  11 39.4134 77.6177   6
   9  -1  11 61.8523 75.6867   6
   1   9 -11 11.8852 52.0025   2
   1   9 -12 697.983 262.907   2
   1  -9  12-16.2843 255.054   5
  -1  -9  12-16.0439 254.694   5
  -1  -9  12-47.7875 253.048   8
   9  -1  12 693.989 262.134   8
  -9   1 -12-275.262 396.194   1
   9   1 -12 368.799 262.068   7
   9   1  12 402.058 260.733   6
   9  -1  12 616.589 262.525   6
   9  -1  12 298.783 262.894   7
  -9  -1 -12 178.774 343.871   1
   1   9 -13 113.263 69.6099   2
   1  -9  13-33.3515 96.7154   5
  -1  -9  13-32.8887 98.3232   5
  -1  -9  13 16.4177 86.7074   8
   9  -1  13 140.054 83.6282   8
  -9   1 -13 385.293 318.828   1
   9   1 -13 11.9777 82.3536   7
   9   1  13-13.7728 81.5107   6
   9  -1  13 115.269 88.7386   6
   9  -1  13 60.8906 87.0317   7
   9   1  14 463.741 284.850   6
   1  -9  14-17.1686 280.121   5
  -1  -9  14 16.7621 281.785   5
  -9   1 -14-53.5201 396.139   1
  -1  -9  14-50.7719 282.147   8
   9  -1  14 15.5000 273.938   7
   9   1 -14 85.2323 276.025   7
   1   9 -14 1154.50 302.083   2
   9  -1  14 909.412 293.536   6
   9  -1  14 1059.43 291.580   8
  -9   1 -15-145.409 295.320   1
   1   9 -15-11.9961 65.6517   3
   1  -9  15 104.906 99.9537   5
  -1  -9  15-17.2688 109.981   5
   1   9 -15 40.1105 56.8144   2
  -1  -9  15-17.4450 118.912   8
   9  -1  15 10.6466 75.0950   8
   9  -1  15-15.8180 75.6653   7
   9  -1  15 13.4273 70.9206   6
  -1   9 -16 174.953 126.137   3
   1   9 -16 247.219 135.332   3
   1  -9  16-70.6836 142.170   5
  -1  -9  16 52.3931 132.462   5
   1   9 -16 299.842 125.649   2
  -1  -9  16-53.9217 151.101   8
   9  -1  16 146.799 130.377   8
   9  -1  16 123.135 129.470   6
  -9   1 -16-296.417 308.203   1
   1   9 -17 50.9198 78.6451   3
  -1  -9  17 17.9816 110.542   5
   9  -1  17 41.8398 80.6563   6
   9  -1  17 35.7801 93.5022   8
  -1   9 -18 102.121 98.8490   2
   9  -1  18 141.771 105.149   8
   9  -1  18 42.6567 98.4760   6
  -1   9 -19 40.3713 85.7905   3
   1   9 -19 146.726 86.1915   3
   1  -9  19-18.9525 115.415   5
  -1  -9  19-37.5507 133.996   5
  -1  -9  19-39.2044 135.350   8
  -1   9 -19 72.9129 79.5170   2
   1   9 -19 86.7266 78.9623   2
   9  -1  19 61.9684 91.6818   8
   9  -1  19-14.4971 87.8202   6
  -1   9 -20 262.608 156.699   3
   1   9 -20 178.087 153.172   3
   1  -9  20 19.4634 173.934   5
  -1  -9  20-19.2938 173.170   5
  -1  -9  20-20.1479 191.159   8
  -1   9 -20 269.619 154.982   2
   1   9 -20 252.580 156.605   2
   9  -1  20 181.536 163.448   8
  -1   9 -21 14.1737 81.0036   3
   1   9 -21-28.1371 79.1852   3
   1  -9  21 39.9365 113.965   5
  -1  -9  21 19.8088 124.442   5
  -1   9 -21-15.3745 73.3986   2
   1   9 -21-15.2572 80.3227   2
   9  -1  21-27.0509 96.0188   8
  -1  -9  21-20.6951 131.608   8
  -1  -9  22-20.3168 119.477   5
   1   9 -22 57.7458 98.4270   3
  -1   9 -22 94.5880 77.4842   2
   1   9 -22 46.9739 73.8365   2
   1  -9  22 20.4725 123.718   5
   1  -9  22-21.3955 151.479   8
  -1   9 -22 14.5320 80.4924   3
  -1  -9  22 84.9326 148.890   8
  -1  -9  23-42.2851 125.901   5
  -1   9 -23 29.9775 88.0391   3
  -1  -9  23-87.0651 149.652   8
  -1   9 -23 16.1512 81.7738   2
   1   9 -23-16.0520 81.2723   2
   1  -9  23-21.9199 152.269   8
   1  -9  23-21.2938 133.656   5
   1   9 -23 74.4967 82.3695   3
   1  -9  24-43.5793 128.865   5
  -1   9 -24 15.3415 86.2018   3
   1   9 -24 30.5096 84.3844   3
   1  -9  24-89.7493 162.828   8
  -1  -9  24 111.465 169.181   8
  -1   9 -24 32.2710 90.5171   2
   1   9 -24 112.322 88.6119   2
  -1  -9  24-86.5908 141.718   5
   1   9 -25-32.8320 86.2492   2
  -1  -9  25-68.1846 156.265   5
   1  -9  25-45.8808 174.857   8
  -1   9 -25-15.6845 92.1237   3
   1   9 -25 16.1578 105.176   3
  -1   9 -25 32.9957 86.6785   2
  -1  -9  25-22.8059 169.356   8
   1  -9  25 68.5925 136.149   5
   1  -9  26 23.3490 220.778   5
  -1  -9  26-46.4460 216.728   5
   1  -9  26-117.167 259.310   8
  -1  -9  26 93.2255 240.357   8
  -1   9 -26 331.776 214.294   3
   1   9 -26 445.841 218.344   3
   1   9 -26 503.321 220.752   2
  -1   9 -26 337.060 215.974   2
   1  -9  27-119.581 169.454   8
  -1  -9  27 23.7983 168.618   8
  -1   9 -27 67.7157 83.9794   3
   1   9 -27-16.8597 90.0785   3
  -1   9 -27-34.4005 91.8983   2
   1   9 -27-34.2539 84.9617   2
  -1  -9  27 71.0907 132.996   5
   1  -9  27 71.4457 135.733   5
  -1  -9  28-72.8109 194.817   8
   1  -9  28-25.0464 146.632   5
   1  -9  28-24.3781 186.354   8
  -1  -9  28 24.9347 156.280   5
  -1   9 -28 36.2503 118.944   3
   1   9 -28 144.477 130.303   3
  -1   9 -28 315.594 135.903   2
   1   9 -28 209.674 138.875   2
   1  -9  29-148.957 232.402   8
  -1  -9  29 49.4398 190.016   8
   1  -9  29-101.965 165.891   5
  -1  -9  29-25.3878 161.332   5
  -1   9 -29 55.3711 105.268   3
   1   9 -29 18.3988 104.937   3
  -1   9 -29 17.8557 114.877   2
   1   9 -29-17.7973 119.823   2
   1  -9  30-25.2502 175.371   8
  -1  -9  30-150.977 174.764   8
   1  -9  30-25.9300 131.189   5
  -1  -9  30-25.8371 128.181   5
  -1   9 -30 18.1612 100.337   2
   1   9 -30 18.1153 106.343   2
   1   9 -30-37.4406 98.2946   3
  -1   9 -30 75.0840 94.9765   3
   1  -9  31-26.8091 131.598   5
  -1  -9  31-26.7127 136.385   5
  -1   9 -31 38.1457 106.953   3
   1   9 -31 139.461 104.344   3
   1   9 -31 18.4171 101.759   2
  -1  -9  31-102.314 187.390   8
  -9  -2   0-8.61403 107.855   4
   9   2   0 224.143 119.404   7
  -9   2   0 152.809 105.226   4
   9   2   0 182.418 99.7135   6
   9  -2   0 64.0808 94.5224   6
   9  -2  -1 358.476 753.678   6
  -9  -2   1 260.908 803.184   1
  -9  -2  -1-328.045 801.739   1
   9   2  -1 2309.00 771.224   7
  -9   2  -1 2624.20 768.433   4
  -9   2   1 2066.55 765.171   4
  -9  -2   1 565.908 755.448   4
   9  -2  -1 280.746 755.772   7
   9   2   1 1883.98 765.145   6
   9  -2   1 989.349 760.046   6
   9  -2  -2 25.6147 52.3058   6
   9  -2   2 61.6960 76.6970   6
   9   2  -2 108.336 82.2799   7
   9   2   2 12.9908 70.3989   7
  -9  -2   2 50.8173 69.3031   4
  -9  -2   2-157.340 282.104   1
   9  -2   2-12.6354 73.1540   7
   9  -2  -2-12.7649 71.6095   7
  -9  -2  -2 363.730 272.658   1
  -9   2  -2 30.1322 73.5086   4
   9   2   2 55.3121 67.0199   6
   9   2  -2 10.5670 56.2577   6
  -9   2   2 73.1017 70.2207   4
   9  -2  -3 12.8305 177.691   6
  -9  -2   3 380.651 336.168   1
   9   2   3 290.600 191.074   7
  -9  -2   3 215.432 187.534   4
   9   2  -3 357.009 198.055   7
   9  -2  -3-12.8886 184.958   7
   9  -2   3 266.799 195.870   7
  -9   2  -3 464.428 194.669   4
   9   2   3 363.761 193.272   6
   9   2  -3 428.357 192.604   6
  -9   2   3 298.173 188.699   4
   9  -2   3 148.863 185.243   6
  -9  -2  -3 277.109 320.866   1
   9  -2  -4-12.8719 39.1638   6
  -9   2  -4 10.9291 27.7748   3
   9   2   4-23.1311 57.9454   6
   9   2  -4 11.7933 65.6509   7
  -9  -2   4 26.5978 59.5635   4
   9  -2   4-13.2642 80.4600   7
  -9   2  -4 40.6473 73.8460   4
   9  -2  -4 90.5033 80.5182   7
  -9  -2  -4-15.6706 259.821   1
   9   2   4-27.1695 73.0344   7
  -9  -2   4 237.036 278.860   1
   9   2  -4 21.3413 48.0373   6
   9  -2   4 37.4654 61.2411   6
  -9   2   4-10.6866 49.2614   4
  -9   2  -5-4.63485 23.7974   2
   9  -2  -5-12.9331 36.8082   6
  -9   2  -5 12.3970 26.0080   3
   9   2  -5 11.6877 78.0290   7
   9  -2   5-26.7446 80.9345   7
  -9   2  -5 118.455 80.9935   4
  -9  -2   5 17.5838 68.4034   4
   9  -2  -5-38.9635 77.5580   7
   9   2   5 11.9694 60.8631   6
   9  -2   5 23.8462 59.4647   6
   9   2  -5 21.1562 49.6069   6
  -9   2   5 21.5266 46.9504   4
  -9   2   6 10.8305 98.9817   4
  -9   2  -6-5.13214 94.9112   2
  -9   2  -6 310.073 102.875   3
   9  -2   6 212.715 139.186   7
  -9   2  -6 278.896 125.444   4
   9   2  -6 324.883 130.483   7
   9  -2  -6-13.1825 115.640   7
   9   2   6 85.3566 118.827   6
   9   2   6 112.853 112.789   7
   9  -2   6 204.571 115.762   6
   9   2  -6 188.516 115.124   6
  -9  -2   6 72.4515 114.783   4
  -9  -2   7 45.9565 70.9996   4
  -9   2  -7 58.5771 40.8430   3
   9   2   7-14.3795 69.7271   7
   9  -2   7 26.8712 85.5220   7
  -9   2  -7 9.68533 75.1487   4
   9   2  -7 11.7100 71.4724   7
   9  -2  -7-53.1137 78.1759   7
   9   2   7 24.8576 62.3011   6
   9  -2   7 70.7068 63.8358   6
   9   2  -7-11.5237 52.3167   6
  -9  -2  -7 215.579 250.827   1
  -9  -2  -8 186.047 234.990   1
   9   2   8 87.9834 71.9687   7
  -9   2  -8 48.9761 74.2002   4
   9  -2   8-27.1564 81.6276   7
   9   2  -8 58.2857 73.4450   7
  -9   2  -8 32.2059 323.584   1
   9   2   8 12.7655 63.2500   6
  -9  -2   8-36.6138 64.7109   4
   9  -2   8 59.6034 68.1722   6
   9   2  -8 11.4757 56.2415   6
   9   2  -9-11.4427 45.5044   6
  -9  -2  -9 103.532 229.346   1
  -9   2  -9-342.651 339.389   1
  -2  -9   9 29.2262 64.2742   5
   9  -2   9 37.5504 49.7952   5
   9  -2   9 18.2220 73.2588   8
  -9   2  -9 60.8336 43.4892   3
   9   2   9-14.9828 60.6046   7
  -9   2  -9 39.6665 71.9096   4
   9  -2   9 96.9798 93.9596   7
   9   2  -9 22.4181 66.8283   7
  -9   2  -9-6.38766 33.1858   2
   9   2   9 13.0219 72.8820   6
  -9  -2   9-37.4466 56.9477   4
   9  -2   9 12.0709 59.8298   6
   9   2 -10-11.4280 72.0322   6
   2  -9  10 15.5320 96.0033   5
  -2  -9  10-30.0633 89.2507   5
  -9   2 -10 20.8547 71.3244   2
   9  -2  10 107.154 93.0312   8
  -9   2 -10 95.6067 76.2021   3
  -9   2 -10 253.967 111.112   4
   2   9 -10 34.3928 71.2032   2
  -9   2 -10 396.624 356.247   1
   9  -2  10 42.1328 102.503   7
   9   2 -10 313.399 111.891   7
   9   2  10 53.1473 93.4383   6
   9  -2  10 339.031 103.601   6
  -9  -2  10 28.5526 78.6918   4
  -2   9 -10 11.8370 65.9163   2
  -9  -2 -10 35.2173 224.086   1
   9  -2  10 306.294 92.4404   5
  -2  -9  11-15.3541 252.925   8
   2  -9  11-142.655 255.894   8
   9   2 -11-11.4268 246.882   6
   2  -9  11-31.9343 255.568   5
  -2  -9  11 61.9022 258.129   5
   9   2  11 271.205 258.559   6
  -9   2 -11 100.629 416.643   1
   9  -2  11 646.134 266.674   8
   9  -2  11 719.151 264.313   5
   9   2 -11 1343.35 284.191   7
  -9   2 -11 483.182 256.792   3
  -9   2 -11 604.358 266.099   4
   9  -2  11 475.822 269.605   7
   9  -2  11 1007.23 275.918   6
  -9  -2  11-9.54458 248.348   4
   2   9 -11 507.739 258.709   2
  -2   9 -11 620.804 261.253   2
  -9  -2  12-9.56430 57.9756   4
   2   9 -12 109.536 72.4743   2
  -2   9 -12 87.6845 70.5036   2
   2  -9  12 49.2698 100.775   5
  -2  -9  12-15.9429 99.7331   5
   2  -9  12-16.3112 83.0941   8
   9  -2  12 94.7795 93.4912   8
   9  -2  12 72.4964 73.1584   5
   9  -2  12-14.6386 96.7591   7
  -9   2 -12 35.8442 68.1245   3
   9   2 -12 167.491 91.2527   7
  -9   2 -12 140.765 97.7473   4
   9  -2  12 137.182 80.4812   6
  -2  -9  12 63.3009 90.0390   8
  -9   2 -12-17.0136 341.663   1
   2  -9  13-33.5825 466.732   8
   9  -2  13 1305.82 476.668   5
   2  -9  13 16.8111 464.067   5
  -2  -9  13-32.6918 465.058   5
   9  -2  13 1217.45 479.860   8
   2   9 -13 1401.39 477.661   2
  -2  -9  13 16.3196 463.335   8
   9   2 -13 1400.29 480.473   7
  -9   2 -13 551.555 467.876   4
  -9   2 -13 546.727 463.885   3
  -9   2 -13 17.2912 574.172   1
   9  -2  13 1190.80 478.681   6
  -2   9 -13 1272.83 478.490   2
   9  -2  13 345.790 469.902   7
  -2   9 -14 26.4710 58.3132   2
   2   9 -14 51.6153 52.4078   2
   2  -9  14-17.3011 97.7381   5
  -2  -9  14 16.6685 98.4695   5
   9  -2  14 22.0100 80.2650   8
   9  -2  14 28.0750 58.4942   5
   9  -2  14-15.2845 83.8026   7
  -9   2 -14 10.2894 85.5276   4
  -9   2 -14-10.3971 42.7394   3
   9  -2  14 51.5203 75.3413   6
   2  -9  14-17.2883 88.1674   8
  -2  -9  14 67.3192 110.059   8
   2   9 -15 1026.78 329.646   3
  -2  -9  15 138.827 324.176   8
   9  -2  15 982.967 334.609   5
   2  -9  15 88.0601 326.255   5
  -2  -9  15-17.1793 319.665   5
  -9   2 -15 715.630 457.543   1
   9  -2  15 1296.44 337.336   8
  -9   2 -15 209.260 317.834   4
  -9   2 -15 187.581 308.026   3
   9  -2  15 46.6883 310.686   7
   9  -2  15 1374.94 335.924   6
   2  -9  15-17.7973 319.045   8
  -2   9 -16 88.0618 91.2236   3
   2   9 -16 98.4517 90.5679   3
  -9   2 -16 18.2116 309.495   1
   2  -9  16 17.7931 112.632   5
  -2  -9  16 34.7660 102.072   5
   2   9 -16 230.648 89.8320   2
   9  -2  16 86.4217 91.6071   8
   9  -2  16 78.7141 78.9784   5
  -9   2 -16-10.6453 94.3123   4
  -2  -9  16-35.7734 108.872   8
   9  -2  16-79.1943 90.9059   7
  -9   2 -16-11.6667 64.0317   3
   9  -2  16 199.880 101.515   6
  -9   2 -17 352.402 307.319   1
   2   9 -17 152.145 100.464   3
  -2  -9  17-71.6098 118.374   5
   9  -2  17 260.188 123.831   8
   9  -2  17-32.3034 84.9628   7
  -9   2 -17 24.5783 66.4893   3
   9  -2  17 81.3949 96.9766   6
  -2   9 -18 132.066 87.2053   2
   2  -9  18-38.7521 117.958   8
   9  -2  18 81.9901 98.9985   8
  -9   2 -18-12.9080 50.7772   3
   9  -2  18 13.8134 75.3752   6
  -9   2 -18 151.122 266.857   1
  -2   9 -19 13.5299 79.4173   3
   2   9 -19 53.1796 75.7758   3
   2  -9  19-57.1978 118.133   5
  -2  -9  19 18.7067 118.842   5
   2  -9  19-39.8166 118.513   8
   9  -2  19-14.3086 106.236   8
  -2   9 -19-43.9878 63.4136   2
   2   9 -19-14.4056 67.0402   2
  -2  -9  19 97.6472 128.527   8
  -2   9 -20 83.3456 91.5226   3
   2   9 -20 109.275 85.8953   3
   2  -9  20-58.7081 141.426   5
  -2  -9  20-96.1507 133.684   5
   2  -9  20-40.8824 151.725   8
  -2  -9  20 20.0803 147.757   8
  -2   9 -20 60.2228 90.6004   2
   2   9 -20 44.4382 74.7169   2
   9  -2  20-27.9253 103.739   8
  -2   9 -21 14.2403 80.1923   3
   2   9 -21-56.1302 81.4458   3
   2  -9  21 20.0749 154.417   5
  -2  -9  21-39.4949 111.025   5
   2  -9  21 20.9734 147.286   8
  -2   9 -21-15.4482 101.879   2
   2   9 -21 15.2165 78.7206   2
  -2  -9  21-41.2529 137.436   8
   2  -9  22-41.1399 148.819   5
  -2   9 -22-43.7960 78.4625   3
  -2  -9  22-21.1741 129.780   8
  -2   9 -22-31.6692 80.5584   2
   2   9 -22 46.8639 77.9597   2
   2  -9  22 21.5031 158.447   8
  -2  -9  22 41.1531 119.343   5
   2   9 -22 101.497 86.7332   3
   2  -9  23-22.0229 142.070   8
  -2  -9  23-63.2796 134.788   5
   2  -9  23 85.5533 134.903   5
   2   9 -23 118.936 93.2857   3
  -2  -9  23 195.414 170.091   8
  -2   9 -23 48.6534 94.0976   2
   9  -2  23-31.3439 108.282   8
   2   9 -23 48.0586 86.0381   2
  -2   9 -23 30.1067 100.048   3
  -2  -9  24 21.5982 116.418   5
   2  -9  24-22.5303 152.387   8
  -2  -9  24-88.9575 165.832   8
   9  -2  24 16.2119 110.171   8
  -2   9 -24 16.5963 78.7503   2
   2   9 -24 16.0125 76.0880   2
  -2   9 -24 46.1960 80.8632   3
   2  -9  24 43.7598 119.891   5
   2   9 -24 60.9204 89.4422   3
   2  -9  25 46.0711 253.263   8
  -2  -9  25-68.2723 248.743   8
   2   9 -25 258.151 212.998   3
  -2   9 -25 612.583 224.929   2
   2   9 -25 442.553 225.342   2
   2  -9  25 22.9523 218.734   5
  -2   9 -25 377.835 222.321   3
  -2  -9  25-22.6859 224.831   5
   2  -9  26 93.7301 145.274   5
  -2  -9  26-23.1866 119.641   5
   2  -9  26-117.622 179.346   8
  -2  -9  26-46.5314 160.002   8
  -2   9 -26 16.6462 87.5370   3
   2   9 -26-16.4934 92.7050   3
  -2   9 -26-16.9077 75.1888   2
   2   9 -26 16.7580 81.6082   2
   2  -9  27-23.9018 241.731   5
  -2  -9  27-23.6658 232.641   5
   2  -9  27-23.9948 250.162   8
  -2  -9  27 71.2791 242.314   8
  -2   9 -27 356.538 220.067   3
   2   9 -27 353.624 222.739   3
   2   9 -27 701.507 230.746   2
   2  -9  28-50.2456 151.682   5
   2  -9  28 73.3808 168.195   8
  -2  -9  28 72.7116 178.392   8
  -2  -9  28-49.8011 139.825   5
  -2   9 -28-17.3005 87.6387   3
   2   9 -28-36.0964 94.8589   3
   2   9 -28 17.4545 90.0967   2
   2  -9  29-99.6158 218.346   8
  -2  -9  29-74.1027 203.755   8
   2  -9  29-25.5720 164.392   5
  -2  -9  29 152.205 144.616   5
  -2   9 -29 18.5012 124.211   3
   2   9 -29-36.7667 101.286   3
   2   9 -29 302.378 132.179   2
   2  -9  30 177.267 196.203   8
  -2  -9  30-25.1376 181.561   8
   2  -9  30-25.9965 145.748   5
  -2  -9  30-51.6206 144.735   5
  -2   9 -30 18.8118 101.851   3
   2   9 -30 93.5444 103.014   3
   2   9 -30 36.2093 89.6713   2
  -2   9 -31-38.2196 96.8207   3
  -2  -9  31 76.6845 199.760   8
   2  -9  31-80.6148 160.050   5
  -2  -9  31 53.4014 137.753   5
   2   9 -31 19.9169 94.9157   3
   2   9 -31-18.4082 91.4715   2
   9  -3   0 65.9523 911.094   6
  -9   3   0 4188.62 937.158   4
   9   3   0 3790.63 934.046   6
  -9  -3   0-104.191 946.803   1
   9  -3   1-13.1875 50.6750   6
   9  -3  -1-13.2115 45.4079   6
  -9  -3   1 14.6339 261.341   1
   9   3   1 13.1282 63.8104   7
   9   3  -1-25.1138 59.7486   7
   9  -3   1 26.2868 74.9106   7
  -9  -3  -1-333.314 273.062   1
   9   3   1 11.1786 48.3446   6
   9   3  -1 10.6934 55.1292   6
  -9   3  -1 21.4843 60.2903   4
  -9   3   1-10.9560 49.8135   4
   9  -3   2 277.255 602.002   6
  -9  -3   2 302.795 656.580   1
   9  -3  -2 26.5010 598.728   6
   9   3   2 2125.36 623.227   7
   9   3  -2 2361.11 626.260   7
  -9   3  -2 2881.62 625.753   4
  -9   3   2 1817.62 615.611   4
  -9  -3   2 245.248 602.101   4
  -9  -3  -2-138.881 646.203   1
   9  -3   2 296.158 607.427   7
   9  -3  -2 26.6143 602.081   7
   9   3   2 2405.97 622.164   6
   9   3  -2 2716.26 623.018   6
   9  -3  -3 13.3080 40.0776   6
   9  -3   3 12.9109 71.5809   7
  -9  -3  -3-283.063 250.682   1
  -9  -3   3-42.6012 275.070   1
   9   3   3-13.6320 66.5385   7
  -9  -3   3-8.41055 63.8420   4
   9   3  -3-12.0391 71.9262   7
   9  -3  -3-26.9667 74.7319   7
   9   3   3 11.7840 55.1763   6
  -9   3  -3 52.5506 59.3019   4
   9   3  -3 10.3800 48.6880   6
  -9   3   3 22.1313 45.6760   4
   9  -3   3 39.7091 59.0460   6
  -9   3   4 100.169 155.810   4
   9   3   4 305.704 170.714   7
  -9  -3   4 116.199 159.858   4
   9   3  -4 285.036 171.474   7
   9  -3  -4-13.5586 160.855   7
  -9   3  -4 443.037 171.945   4
   9   3   4 288.271 169.514   6
   9  -3   4 91.0954 167.885   7
  -9  -3   4-56.0752 324.809   1
   9   3  -4 475.868 170.722   6
  -9  -3  -4 112.234 279.796   1
   9  -3   4 106.300 164.048   6
  -9   3  -5 73.5754 45.4113   3
  -9  -3   5 41.4987 285.014   1
  -9  -3  -5 261.654 234.193   1
   9   3   5 99.1916 69.0524   7
  -9  -3   5 8.43449 67.3724   4
   9   3  -5 69.8388 75.4014   7
   9  -3   5 78.4973 84.7841   7
  -9   3  -5 31.1702 75.6187   4
   9   3   5 12.3369 62.5580   6
   9   3  -5 20.4350 55.5325   6
  -9   3  -5-5.48967 29.2380   2
   9  -3   5 51.1043 71.5288   6
  -9   3  -6 21.1123 38.5790   3
  -9  -3   6-205.016 290.373   1
   9   3  -6 69.0407 78.4013   7
   9  -3   6 27.3115 93.4104   7
  -9   3  -6 20.9106 78.0530   4
   9   3   6 12.5852 65.8436   6
  -9  -3   6 52.0081 71.3376   4
   9   3  -6 10.4234 53.3710   6
   9  -3   6 12.8586 56.6688   6
  -9  -3   7-26.9728 283.906   1
  -9   3  -7 6.45823 35.8191   2
   9   3  -7 34.1795 78.0581   7
   9  -3   7-13.7630 88.6576   7
  -9  -3   7-42.9182 67.5802   4
  -9   3  -7 115.873 80.9362   4
   9   3   7 12.8424 64.1234   6
   9   3  -7 21.7947 54.9635   6
   9  -3   7 64.7878 60.7143   6
   9   3  -8 33.9154 86.5164   7
   9  -3   8 122.837 64.2334   5
   9  -3   8-18.2935 62.5136   8
  -9   3  -8 55.7794 51.7928   3
   9  -3   8 54.7088 92.1567   7
  -9   3  -8-6.91571 45.0114   2
  -9   3  -8 61.4516 82.0092   4
  -9  -3   8 70.6426 69.6970   4
   9   3   8 39.8054 70.2071   6
  -9  -3  -8 104.298 201.252   1
   9  -3   8 49.5239 71.8896   6
   9   3  -8 43.2091 67.1115   6
  -3  -9   9 14.5137 68.3725   5
  -9   3  -9 40.3961 39.8187   3
   9  -3   9-9.86983 69.3659   8
  -9   3  -9 7.25680 39.5540   2
   9   3  -9-22.4357 73.7530   7
  -9   3  -9 82.7268 78.8550   4
   9  -3   9 41.4044 99.3128   7
  -9   3  -9-277.224 349.795   1
  -9  -3   9 35.7883 62.4126   4
   9  -3   9 12.5052 50.7542   6
   9  -3   9-9.60934 56.5993   5
   9   3  -9-11.2098 45.7401   6
   9   3 -10 111.404 209.340   6
  -9   3 -10 742.229 219.481   3
   9  -3  10 31.8394 217.485   8
   3  -9  10 15.6884 214.422   5
  -3  -9  10 29.8662 216.317   5
  -9  -3  10 63.8624 209.581   4
  -9   3 -10 940.833 236.932   4
  -9   3 -10 76.1353 206.504   2
  -9   3 -10 99.2325 406.251   1
   9  -3  10 474.533 232.528   7
   9   3 -10 847.460 238.590   7
   9  -3  10 636.042 223.222   5
   3   9 -10 113.915 206.926   2
  -3   9 -10 179.306 209.480   2
   9  -3  10 821.860 234.116   6
   9   3 -11-22.1813 49.2191   6
   3  -9  11-16.1198 73.2966   5
  -3  -9  11-30.7607 80.7517   5
   3  -9  11-16.0053 63.5257   8
  -3  -9  11-15.2573 58.6353   8
   9  -3  11 22.7048 58.5337   5
   9  -3  11-11.3675 86.6350   8
  -9   3 -11-8.02986 43.6470   3
   9  -3  11 14.2339 82.3510   7
  -9   3 -11 16.3080 40.4618   2
  -9   3 -11 61.0920 75.6029   4
   9   3 -11 11.2665 79.0465   7
  -9  -3  11-9.24604 54.2795   4
   9  -3  11-12.4024 61.5329   6
   3   9 -11 11.7380 34.9514   2
  -3   9 -11 12.2880 43.9680   2
  -9   3 -12 1722.31 532.117   3
   9  -3  12 1574.23 538.700   5
   3  -9  12-33.1503 524.953   5
  -3  -9  12 47.3080 522.484   5
  -3  -9  12-15.7323 521.288   8
   9  -3  12 727.847 530.787   8
  -9   3 -12 406.880 636.181   1
  -9   3 -12 1794.10 540.098   4
   9  -3  12 547.927 531.168   7
  -9   3 -12 535.698 522.085   2
   9  -3  12 2286.76 547.390   6
   3   9 -12 1367.68 533.702   2
   3  -9  12-32.9288 523.054   8
  -3   9 -13-13.0057 46.5959   2
   3   9 -13-37.4559 67.8965   2
   3  -9  13-16.9604 105.117   5
  -3  -9  13-16.2590 94.0961   5
   3  -9  13-33.8844 87.3808   8
  -9   3 -13 18.0823 53.1308   2
   9  -3  13-13.2797 72.2104   5
   9  -3  13 12.6776 98.2713   8
  -9   3 -13 9.56808 55.4129   3
   9  -3  13 14.7924 102.766   7
  -9   3 -13 41.8004 90.4230   4
   9  -3  13-12.7368 71.5308   6
  -3  -9  13-48.6942 97.9899   8
  -9   3 -14 1693.32 736.659   3
   9  -3  14 1997.71 744.837   5
   3  -9  14 34.8960 731.312   5
  -3  -9  14 16.5869 730.152   5
   9  -3  14 1545.08 743.784   8
   3  -9  14 17.4358 729.252   8
  -9   3 -14 1833.74 740.675   4
   9  -3  14 405.347 732.066   7
   9  -3  14 2429.24 746.885   6
   3   9 -14 2401.75 747.256   2
  -9   3 -14-34.8612 814.122   1
  -3   9 -14 2241.88 745.628   2
  -3  -9  14-16.7461 728.206   8
   3   9 -15 47.5611 71.4766   3
  -3  -9  15 17.2744 91.9927   8
   3  -9  15 17.7546 103.866   5
  -3   9 -15 27.4642 56.6392   2
   3   9 -15 13.2493 54.7980   2
  -3  -9  15-34.2048 109.739   5
   9  -3  15 15.1192 70.4513   5
   9  -3  15 13.1805 90.9690   8
  -9   3 -15 67.2886 58.7959   3
   9  -3  15-15.4073 93.0062   7
  -9   3 -15-10.7592 90.6340   4
  -9   3 -15 17.7055 359.047   1
   3  -9  15-17.9424 116.394   8
   9  -3  15 65.5924 77.4450   6
  -3  -9  16 35.6257 443.017   8
  -3   9 -16 849.011 446.572   3
   3   9 -16 956.354 447.562   3
   3  -9  16 53.7884 440.705   5
  -3  -9  16-34.6205 439.180   5
  -9   3 -16 786.063 444.256   4
  -9   3 -16 521.711 551.547   1
   9  -3  16 888.433 452.934   8
   9  -3  16 1018.75 451.771   5
   9  -3  16 46.9982 436.618   7
   3   9 -16 1527.28 456.815   2
   9  -3  16 975.995 448.851   6
  -9   3 -16 519.515 437.940   3
   3   9 -17 101.096 80.3979   3
  -3  -9  17-17.8369 105.533   5
  -9   3 -17 347.498 344.545   1
   9  -3  17-14.5787 102.115   8
   9  -3  17-16.7066 71.5643   5
  -9   3 -17-12.3994 56.5941   3
  -9   3 -17-10.7932 89.9349   4
   9  -3  17 93.8533 80.9092   6
   9  -3  17-47.7810 93.0905   7
   3  -9  18-18.6889 122.193   5
   3  -9  18 39.0229 131.383   8
   9  -3  18 91.5912 109.882   8
   9  -3  18 35.6578 86.4151   5
  -9   3 -18 25.9631 76.3907   3
  -3   9 -18 132.946 89.2539   2
  -3   9 -19 13.6132 80.3154   3
   3  -9  19-38.3813 123.659   5
   3   9 -19-28.7308 67.3411   2
   3  -9  19-20.0393 136.544   8
  -3  -9  19 19.4687 142.173   8
   9  -3  19 31.8941 111.049   8
   9  -3  19 18.6158 74.3225   5
  -9   3 -19-27.5915 63.2464   3
  -3   9 -19-30.3480 72.6550   2
  -3   9 -20-13.9743 83.7206   3
   3   9 -20 13.6283 83.8827   3
   3  -9  20-19.6907 129.930   5
  -3  -9  20 19.1784 112.964   5
   3  -9  20-61.7196 140.252   8
  -3  -9  20-60.0749 156.722   8
  -3   9 -20 15.1444 82.8369   2
   3   9 -20-14.7767 79.5115   2
   9  -3  20-16.6163 125.905   8
  -9   3 -20-14.3769 59.5639   3
   9  -3  20-58.1850 75.1214   5
  -3   9 -21 42.9548 85.8441   3
   3  -9  21 20.1929 125.530   5
   3   9 -21-42.0079 87.3582   3
  -3  -9  21-59.1003 127.079   5
  -3  -9  21 61.7424 141.836   8
  -3   9 -21 62.1367 86.4165   2
   3   9 -21 15.1877 68.1572   2
   3  -9  21 42.1932 146.871   8
  -3   9 -22-73.3679 85.0049   3
   3  -9  22-64.8681 160.599   8
  -3  -9  22 21.1299 142.254   8
  -3   9 -22 31.8342 86.6106   2
   3   9 -22 77.9566 74.3188   2
   9  -3  22-16.4133 118.635   8
  -3  -9  22-41.0608 101.942   5
   3   9 -22 43.4297 87.4785   3
   3  -9  23 64.5001 131.525   5
  -3  -9  23-21.0527 121.827   5
  -3   9 -23-15.1262 82.2490   3
  -3   9 -23-48.8923 85.6090   2
   9  -3  23-16.9909 122.758   8
   3   9 -23 79.9696 92.5720   2
  -3  -9  23 21.6744 149.012   8
   3  -9  23 66.4137 150.605   8
   3   9 -23-14.8483 79.3846   3
  -3  -9  24-132.858 248.507   5
   3   9 -24 380.294 214.686   3
  -3   9 -24 417.644 219.948   3
  -3  -9  24-44.4062 242.887   8
   9  -3  24 122.886 234.252   8
  -3   9 -24 716.938 233.441   2
   3   9 -24 377.016 217.269   2
   3  -9  24-22.6476 249.027   8
   3  -9  24-21.9879 229.795   5
   3  -9  25-23.0591 131.700   5
   3  -9  25-46.2835 160.945   8
  -3   9 -25-31.6181 80.4306   3
   3   9 -25 32.2432 77.1816   3
   9  -3  25-36.2030 146.151   8
  -3   9 -25-17.0367 81.5106   2
   3   9 -25 16.3740 84.8428   2
  -3  -9  25-67.9662 138.822   5
  -3  -9  25-22.7333 156.495   8
  -3  -9  26 23.1581 316.975   5
  -3  -9  26 46.4829 324.629   8
  -3   9 -26 568.217 325.378   3
   3   9 -26 494.470 318.177   3
   9  -3  26 204.942 342.874   8
  -3   9 -26 814.850 326.926   2
   3   9 -26 820.534 322.109   2
   3  -9  26 117.672 322.978   5
   3  -9  26 23.6269 329.133   8
   3   9 -27 17.1066 90.5275   2
   3  -9  27-23.9997 133.063   5
   3  -9  27 72.2998 162.568   8
  -3  -9  27-23.7407 181.281   8
  -3  -9  27 24.3965 141.596   5
  -3   9 -27 51.1203 85.2945   3
   3   9 -27-35.3742 96.7872   3
  -3   9 -27 34.6319 83.1749   2
   3  -9  28-49.1072 268.839   8
   3  -9  28-100.878 250.261   5
  -3  -9  28 193.762 263.511   8
  -3  -9  28-49.7666 236.022   5
  -3   9 -28 225.678 214.847   3
   3   9 -28 288.687 225.554   3
  -3   9 -28 405.772 220.886   2
   3   9 -28 628.326 230.036   2
   3  -9  29 24.9924 192.090   8
  -3  -9  29-49.3805 183.335   8
   3  -9  29-76.9905 144.063   5
  -3  -9  29 25.3560 133.148   5
  -3   9 -29 92.7998 104.206   3
   3   9 -29-35.5743 93.4253   2
  -3   9 -29-35.9172 100.832   2
   3   9 -29 18.3849 87.5253   3
   3  -9  30 50.8161 195.443   8
  -3  -9  30 50.2651 196.657   8
   3  -9  30 26.0837 155.056   5
  -3  -9  30-52.5225 149.328   5
  -3   9 -30 56.5994 113.016   3
  -3   9 -30 73.0267 122.797   2
   3   9 -30 217.356 123.315   2
   3   9 -30 19.5994 108.105   3
  -3  -9  31-25.5585 176.669   8
  -3  -9  31-26.7010 138.909   5
  -3   9 -31-57.4863 89.0938   3
   3   9 -31 19.9224 90.3400   3
   3   9 -31-36.8287 95.0041   2
   9  -4   0 40.9575 114.456   6
   9   4   0 365.010 135.517   6
   9   4   0 237.506 137.802   7
   9  -4   0-41.1267 130.379   7
  -9  -4   0 60.9144 260.887   1
  -9   4   0 294.857 131.905   4
   9  -4   1 13.6175 587.743   6
  -9  -4  -1 77.6451 632.313   1
  -9  -4   1-14.9409 632.322   1
  -9   4   1 2174.86 611.072   4
   9  -4   1-13.6750 591.034   7
   9   4   1 2616.34 614.063   6
   9   4  -1 3458.35 621.825   6
  -9   4   2 57.2334 61.9002   4
   9  -4   2-13.5994 65.4711   6
  -9  -4  -2 237.624 236.408   1
   9   4   2 54.8789 82.0412   7
  -9  -4   2 278.663 271.756   1
   9   4  -2 139.719 83.0023   7
   9  -4   2-13.5505 89.8204   7
   9   4   2 83.6188 81.4755   6
   9   4  -2 97.3447 78.7353   6
  -9   4  -2 123.922 86.0579   4
   9  -4   3 13.5987 354.492   6
  -9  -4  -3 210.155 415.467   1
   9   4  -3 1298.11 378.096   7
   9   4   3 841.201 370.690   7
   9  -4   3 27.1030 359.534   7
  -9  -4   3-129.634 438.523   1
   9   4  -3 1051.66 371.869   6
   9   4   3 706.881 368.856   6
  -9  -4  -4 66.0029 292.989   1
   9  -4   4 40.8466 220.171   6
   9  -4   4 92.9412 229.102   7
   9   4   4 300.470 228.086   7
   9   4  -4 789.422 243.837   7
   9   4   4 310.932 229.856   6
   9   4  -4 682.483 233.967   6
  -9   4  -4 598.317 241.461   4
  -9  -4   4 396.423 351.156   1
  -9  -4   4 58.1981 222.233   4
   9  -4   5 13.6512 60.1748   6
  -9  -4   5-181.013 294.520   1
  -9  -4   5 8.25661 71.7374   4
   9   4  -5 23.9017 84.2505   7
   9  -4   5 39.9417 88.6443   7
   9   4   5-12.8520 71.5374   6
  -9   4  -5 88.8468 83.6776   4
   9   4  -5 152.735 69.4911   6
  -9  -4  -5 16.8454 190.388   1
   9  -4   6-26.5011 61.3285   5
   9   4  -6 94.1673 73.7898   7
  -9  -4   6 16.7389 69.3544   4
   9  -4   6-13.4189 86.3002   7
  -9   4  -6 130.436 83.2559   4
   9   4  -6 101.337 68.4072   6
  -9   4  -6 6.83128 31.5345   2
   9  -4   6 13.7029 62.1450   6
  -9   4  -7 7.27736 23.9665   2
  -9   4  -7-19.5186 38.7428   3
   9  -4   7 9.24087 57.2641   5
   9  -4   7 28.4922 48.9720   8
  -9  -4   7-13.5232 284.302   1
  -9  -4   7 41.2828 70.4743   4
   9  -4   7-40.4653 89.7775   7
  -9   4  -7 43.6895 74.2980   4
   9   4  -7-9.99124 46.5051   6
   9  -4   7-13.7719 57.9783   6
   9   4  -7-11.4680 74.6160   7
  -9   4  -8 7.73369 59.0715   2
  -9   4  -8 109.827 69.5165   3
   9  -4   8 58.2728 78.3237   5
   9  -4   8-10.1190 71.5970   8
  -9  -4   8 399.974 296.341   1
   9   4  -8 124.496 100.227   7
  -9  -4   8 16.9383 80.1182   4
   9  -4   8 42.2281 102.969   7
  -9   4  -8 175.817 103.386   4
   9   4  -8 172.968 79.2136   6
   9  -4   8 110.864 86.7257   6
  -4  -9   9-14.4181 137.128   5
  -9   4  -9 306.895 128.277   3
  -9   4  -9-8.14354 117.885   2
   9  -4   9 248.004 137.759   5
   9   4  -9 480.700 150.160   7
   9  -4   9 55.8620 139.184   7
  -9  -4   9 8.68194 130.617   4
  -9   4  -9 412.090 153.914   4
  -9  -4   9 39.5371 314.052   1
   9  -4   9-10.7752 128.299   8
   9   4  -9 244.060 133.345   6
   9  -4   9 240.334 135.746   6
  -9   4 -10 43.2761 51.9607   2
  -9  -4  10 247.374 295.605   1
   9  -4  10-34.3590 78.7757   8
   4  -9  10-63.4257 86.3996   5
  -4  -9  10-29.6814 82.7830   5
  -9   4 -10 100.883 55.6284   3
   9  -4  10-10.9796 69.4065   5
   9   4 -10 98.7760 79.7203   7
   9  -4  10 42.2607 95.8230   7
  -9   4 -10 218.705 88.5728   4
  -9  -4  10 35.0670 69.2262   4
  -4   9 -10-12.0784 43.9489   2
   9  -4  10 53.8627 71.1782   6
   9   4 -10 10.9729 58.2245   6
   9  -4  11 1005.24 334.451   5
   4  -9  11-16.2877 321.844   5
  -4  -9  11-45.8752 321.473   5
  -9   4 -11 973.038 529.397   1
   4  -9  11 16.1739 315.613   8
   9  -4  11 60.7457 321.862   8
  -9   4 -11 383.843 318.059   2
  -9   4 -11 2008.59 351.175   4
   9  -4  11 383.573 331.143   7
   9  -4  11 1427.52 345.546   6
   4   9 -11 525.366 321.136   2
  -4   9 -11 719.863 325.669   2
  -4  -9  11-15.1702 316.670   8
   4   9 -12 132.480 95.1382   2
  -4   9 -12 63.8105 87.2847   2
  -9   4 -12 149.079 98.3414   3
   4  -9  12 33.4831 125.751   5
  -4  -9  12 15.6854 121.411   5
   9  -4  12-12.8591 121.736   8
  -9   4 -12 64.5438 92.1122   2
  -4  -9  12 31.2991 106.402   8
   9  -4  12 71.8001 116.528   7
   9  -4  12 62.5589 108.782   5
  -9   4 -12 333.136 130.779   4
   9  -4  12 192.320 110.055   6
   4  -9  12 16.6299 107.642   8
  -9   4 -13 2176.11 548.382   3
   9  -4  13 1396.47 551.056   5
   4  -9  13-68.4899 538.632   5
  -4  -9  13-16.1798 535.206   5
   4  -9  13-17.1059 534.044   8
   9  -4  13 312.322 537.627   8
  -9   4 -13 2347.18 556.542   4
  -9   4 -13 457.606 535.061   2
  -9   4 -13-17.2081 650.289   1
   9  -4  13 2250.05 557.674   6
   4   9 -13 2088.14 552.912   2
   9  -4  13 321.959 538.195   7
  -4  -9  13-32.3014 533.494   8
  -4   9 -14 134.634 88.0988   2
   4   9 -14 102.336 87.5618   2
   4  -9  14-17.4193 114.180   5
  -4  -9  14 49.5403 107.387   5
   4  -9  14 35.1971 120.226   8
   9  -4  14 157.051 111.841   5
   9  -4  14-14.3013 122.289   8
  -9   4 -14 101.010 81.8109   3
   9  -4  14 44.4503 115.844   7
  -9   4 -14 20.5130 83.6650   2
  -9   4 -14 208.965 116.618   4
  -4  -9  14 16.6691 114.245   8
  -9   4 -14 313.242 389.786   1
   9  -4  14 159.839 96.1373   6
  -4   9 -15 1291.85 512.435   3
   4   9 -15 1611.14 514.879   3
  -9   4 -15 986.943 505.307   3
   9  -4  15 1184.62 516.011   5
   4  -9  15-53.7327 504.405   5
  -4  -9  15 66.9104 498.913   5
   9  -4  15 75.9590 499.883   7
   9  -4  15 871.772 513.533   8
  -9   4 -15 1659.93 517.557   4
  -9   4 -15 631.813 500.537   2
   4  -9  15 18.1013 500.830   8
   9  -4  15 1592.35 517.174   6
  -4  -9  15 17.2025 501.380   8
  -9   4 -15-211.411 612.613   1
  -4   9 -16 12.7743 79.3255   3
   4   9 -16-24.4455 71.9380   3
   4  -9  16 72.3264 112.157   5
  -4  -9  16 103.493 107.004   5
   4   9 -16 13.4735 67.0480   2
  -4  -9  16 35.4964 101.293   8
   9  -4  16-16.2152 83.7621   5
   9  -4  16 61.9554 115.119   8
  -9   4 -16-11.6885 62.6745   3
   9  -4  16 15.5665 80.4248   7
  -9   4 -16-11.2900 90.4630   4
  -9   4 -16 178.675 365.492   1
  -9   4 -16-11.0411 61.2208   2
   9  -4  16-13.6822 70.7348   6
   4   9 -17 374.218 255.373   3
  -4  -9  17-17.5467 255.456   5
  -4   9 -17 521.366 261.877   2
   4   9 -17 791.966 263.069   2
   9  -4  17 474.835 263.421   5
   9  -4  17 145.789 261.010   8
  -9   4 -17 488.943 253.995   3
  -9   4 -17 57.7502 243.758   2
  -4   9 -18-26.7018 78.4087   3
   4  -9  18-56.4971 118.200   5
  -4   9 -18 74.4038 73.8661   2
   9  -4  18 50.7312 135.290   8
   9  -4  18 17.6908 80.4755   5
  -9   4 -18-25.5180 56.6729   3
   4  -9  18 19.6619 124.936   8
  -4   9 -19 15.2773 81.1807   2
  -4   9 -19-27.4152 94.5213   3
   4  -9  19 19.3325 118.509   5
   4   9 -19 73.7200 92.7223   2
   4  -9  19 40.3722 164.944   8
   9  -4  19 88.0481 149.307   8
   9  -4  19 206.221 125.381   5
  -9   4 -19 208.657 106.066   3
  -4  -9  19-58.2673 140.467   8
  -4   9 -20 140.631 122.198   3
   4  -9  20-19.8310 143.153   5
   4   9 -20 204.105 122.790   3
  -4  -9  20 114.824 143.399   5
  -4   9 -20 106.717 121.265   2
   4  -9  20 41.4344 160.123   8
  -4  -9  20-59.9450 147.974   8
   9  -4  20 58.4304 119.879   5
  -9   4 -20 144.553 111.196   3
   4   9 -20 177.026 122.450   2
  -4  -9  21-19.9758 122.231   5
  -4   9 -21 43.2238 95.9674   3
   4  -9  21 20.3225 114.121   5
   4  -9  21 21.2367 141.392   8
  -4  -9  21 20.5438 151.207   8
   4   9 -21-30.3365 73.8233   2
   4   9 -21-13.9860 87.8426   3
  -4   9 -21-31.2584 64.0478   2
   4  -9  22 65.2794 153.840   8
  -4  -9  22-21.0993 153.947   8
  -4   9 -22 208.164 107.545   2
   4   9 -22 155.796 91.8663   2
   9  -4  22 73.0091 132.816   8
   9  -4  22-21.3066 96.8360   5
   4   9 -22 57.8453 94.9771   3
  -4  -9  22-20.5050 122.709   5
  -9   4 -22 31.5821 91.4534   3
  -4   9 -22 59.0424 100.810   3
   4  -9  22-20.8139 129.330   5
   4   9 -23 281.913 133.264   3
  -4  -9  23-21.6457 165.882   8
  -4   9 -23 196.686 123.937   2
   9  -4  23 94.2974 163.851   8
   4   9 -23 223.782 130.989   2
   9  -4  23 110.044 118.094   5
   4  -9  23-111.355 176.715   8
   4  -9  23-21.6295 143.446   5
  -9   4 -23 16.3155 101.464   3
  -4  -9  23-21.0342 156.740   5
  -4   9 -23 136.890 128.621   3
  -4  -9  24-66.3626 158.007   5
   4  -9  24-44.2247 127.611   5
  -4   9 -24 15.5493 94.7631   3
  -4  -9  24-22.1850 159.961   8
   4   9 -24 31.4901 89.1791   3
   9  -4  24 175.079 163.384   8
  -4   9 -24 134.058 116.302   2
   4   9 -24 212.990 99.0935   2
   9  -4  24 158.868 114.130   5
   4  -9  24-68.3324 171.616   8
  -9   4 -24-33.6466 81.5934   3
  -4  -9  25 22.6393 231.598   5
   4  -9  25 23.2674 250.475   8
  -4  -9  25-22.7110 242.569   8
  -4   9 -25 333.568 222.729   3
   4   9 -25 596.332 228.848   3
   9  -4  25 100.162 252.949   8
  -4   9 -25 753.461 234.590   2
   4   9 -25 687.561 234.660   2
   4  -9  25-115.917 240.352   5
  -9   4 -25-17.3237 198.189   3
   4  -9  26-23.6545 132.947   5
   4  -9  26 189.978 187.117   8
  -4   9 -26 167.856 102.866   3
   9  -4  26-41.1830 159.246   8
   4   9 -26-16.4852 90.0379   3
  -4   9 -26 52.4319 96.2802   2
   4   9 -26 83.7196 84.9883   2
  -4  -9  26 23.1531 138.176   5
  -4  -9  26-69.6965 161.623   8
   4  -9  27 24.1083 330.472   5
   4  -9  27-72.6479 350.981   8
  -4  -9  27 97.5742 337.103   5
   9  -4  27 147.894 355.300   8
  -4   9 -27 564.821 337.544   3
   4   9 -27 707.674 340.317   3
  -4   9 -27 608.647 344.096   2
   4   9 -27 1471.41 360.237   2
  -4  -9  27-71.2124 345.443   8
   4  -9  28 443.992 303.693   8
  -4  -9  28 314.903 266.293   8
   4  -9  28 557.356 243.573   5
  -4  -9  28 74.6608 213.302   5
   9  -4  28-21.6458 207.402   8
  -4   9 -28 183.107 174.350   3
  -4   9 -28 106.270 187.397   2
   4   9 -28 174.642 168.783   2
   4   9 -28 18.0465 154.260   3
   4  -9  29 125.458 218.859   8
  -4  -9  29-24.6923 194.122   8
   4  -9  29 25.7663 162.686   5
  -4  -9  29-25.3663 163.024   5
   9  -4  29 88.6058 182.052   8
  -4   9 -29 93.1265 130.338   3
  -4   9 -29 252.327 150.285   2
   4   9 -29 444.994 159.314   2
   4   9 -29 36.7991 128.350   3
   4  -9  30 25.5109 182.235   8
  -4  -9  30-75.4217 174.361   8
   4  -9  30 26.1804 134.462   5
  -4  -9  30-26.2731 124.445   5
  -4   9 -30 18.9373 102.091   3
  -4   9 -30 18.3195 102.219   2
   4   9 -30 98.0631 94.1712   3
   4   9 -30 72.5209 110.392   2
   4   9 -31 18.4329 98.5432   2
  -4  -9  31-51.1346 179.400   8
  -4  -9  31 80.1305 135.169   5
   4   9 -31-19.9476 88.5733   3
  -9  -5   0 62.7500 800.353   1
   9   5   0 1305.20 786.366   7
   9   5   0 1063.76 782.004   6
  -9   5  -1 715.432 261.812   4
  -9  -5   1-230.480 331.139   1
   9   5  -1 359.661 258.331   7
   9  -5   1-28.6219 252.921   7
   9   5   1 289.596 254.903   6
   9   5  -1 643.852 263.792   6
  -9  -5  -1-48.0522 310.901   1
   9  -5   2-14.0799 308.796   6
  -9  -5   2 90.3346 385.920   1
   9   5  -2 834.105 326.045   7
  -9   5  -2 1098.50 331.458   4
   9  -5   2-14.1370 314.500   7
   9   5  -2 991.661 329.353   6
   9   5   2 473.930 321.555   6
   9  -5   3 14.0493 220.378   6
   9  -5   3-26.9498 220.476   5
  -9  -5   3 162.334 328.535   1
  -9   5  -3 1224.08 251.420   4
   9  -5   3-14.1069 231.257   7
   9   5  -3 923.755 246.119   6
   9   5  -3 741.144 245.531   7
   9  -5   4-14.0347 61.3524   6
   9  -5   4-9.33181 62.8153   5
   9   5  -4 62.6588 78.1943   7
   9   5  -4 159.906 82.3233   6
   9  -5   4-27.9648 89.3425   7
  -9   5  -4 243.946 85.6914   4
   9  -5   5 98.2562 210.920   6
   9  -5   5 9.74030 208.798   5
  -9  -5   5-70.9488 325.597   1
   9   5  -5 454.928 222.569   7
   9  -5   5 27.9720 222.408   7
   9   5  -5 631.266 224.527   6
  -9   5  -5 755.035 230.420   4
   9  -5   6-14.0552 66.3429   6
   9  -5   6-10.1525 69.5786   5
  -9  -5   6 250.614 266.699   1
   9   5  -6 144.701 84.6075   7
  -9  -5   6 57.2264 77.2076   4
   9  -5   6-13.7044 93.1928   7
  -9   5  -6 93.0356 78.8403   4
   9   5  -6 91.4352 66.6308   6
   9  -5   7 42.2729 111.332   6
   9  -5   7-10.5473 113.013   5
   9   5  -7 379.035 135.583   7
  -9  -5   7 150.359 282.651   1
   9  -5   7-27.4822 135.554   7
  -9  -5   7-24.3134 114.095   4
   9   5  -7 678.892 138.482   6
  -9   5  -7 595.624 141.375   4
  -9   5  -7 8.15403 98.9513   2
   9  -5   8 14.1433 52.6093   6
  -9   5  -8 23.0131 49.4359   3
   9  -5   8-11.0909 73.0667   5
   9   5  -8-11.6425 70.3413   7
  -9  -5   8-8.19610 63.0759   4
  -9  -5   8-13.4263 263.759   1
   9  -5   8 13.8485 84.7625   7
  -9   5  -8-11.4928 64.5881   4
   9   5  -8 29.7382 57.4433   6
   9  -5   8-22.3933 49.7911   8
  -9   5  -8 8.57775 33.1286   2
   9  -5   9 71.0479 155.260   6
  -9   5  -9 18.0553 144.695   2
  -5  -9   9 14.3286 160.612   5
  -9   5  -9 411.749 160.513   3
   9  -5   9 57.2879 155.743   5
   9  -5   9-11.7846 153.496   8
   9   5  -9 492.261 171.112   7
  -9  -5   9 58.6513 159.806   4
   9  -5   9 72.1467 169.561   7
  -9  -5   9-158.312 315.003   1
  -9   5  -9 819.832 184.140   4
   9   5  -9 553.317 167.338   6
   5  -9  10-16.0367 107.596   5
  -5  -9  10 73.7757 119.531   5
  -9   5 -10 9.47101 84.2054   2
  -9   5 -10 311.106 102.527   3
   9  -5  10 59.4659 105.217   5
   9  -5  10-29.0370 114.797   7
  -9   5 -10 452.954 129.851   4
   9  -5  10 24.8012 97.1431   8
   9  -5  10 114.359 110.177   6
   5  -9  11-65.8688 155.229   5
  -5  -9  11 15.2106 145.364   5
  -9   5 -11 830.778 155.846   3
  -9   5 -11 59.1033 133.812   2
   9  -5  11 137.489 148.261   5
   9  -5  11 26.0772 145.877   8
   9  -5  11-14.3994 154.059   7
  -9   5 -11 786.573 174.240   4
   5  -9  11-16.3540 138.670   8
   5   9 -11 209.072 138.333   2
  -5   9 -11 50.1813 128.891   2
   9  -5  11 115.149 143.763   6
  -9   5 -12 1066.61 263.053   3
   5  -9  12 16.8106 248.241   8
   5  -9  12-16.8324 251.621   5
  -5  -9  12 46.8293 250.800   5
  -5  -9  12-31.1444 245.920   8
   9  -5  12 236.219 253.731   5
  -9   5 -12 769.330 477.937   1
  -9   5 -12 206.905 243.802   2
   9  -5  12 27.3800 252.046   8
  -9   5 -12 1665.76 283.598   4
   9  -5  12 58.0644 253.677   7
   5   9 -12 359.640 247.605   2
   9  -5  12 478.743 256.093   6
  -5   9 -12 580.278 254.399   2
   5   9 -13 185.672 104.488   2
  -5   9 -13 132.588 105.380   2
   5  -9  13-69.2019 130.463   5
  -5  -9  13-15.9367 128.640   5
   9  -5  13 82.5483 120.684   5
   5  -9  13-17.2830 121.032   8
  -9   5 -13 84.3977 106.028   2
  -5  -9  13 32.1576 121.153   8
  -9   5 -13 301.558 115.956   3
   9  -5  13 14.6323 133.550   7
  -9   5 -13 121.118 402.506   1
  -9   5 -13 405.611 133.694   4
   9  -5  13 14.3588 132.847   8
   9  -5  13 190.284 122.026   6
  -9   5 -14 1056.11 342.685   3
   5   9 -14 686.393 339.647   3
   5  -9  14-35.1788 335.975   5
  -5  -9  14 65.7988 335.967   5
   5   9 -14 943.166 342.653   2
  -5  -9  14-16.6031 331.797   8
   5  -9  14 17.7742 333.524   8
   9  -5  14-30.0742 336.011   8
  -9   5 -14 430.857 330.981   2
   9  -5  14-14.8907 336.353   7
  -9   5 -14 997.717 347.465   4
   9  -5  14 672.807 347.492   5
  -5   9 -14 1100.91 347.254   2
   9  -5  14 509.037 338.263   6
  -9   5 -14-209.775 506.493   1
  -5   9 -15 288.317 168.818   3
   5   9 -15 295.264 166.940   3
   5   9 -15 460.573 166.045   2
   5  -9  15 36.1631 171.805   5
  -5  -9  15-33.3387 172.875   5
   9  -5  15-47.1659 183.232   8
  -9   5 -15-176.591 423.980   1
  -9   5 -15 135.265 153.203   2
   9  -5  15-30.1001 177.430   7
  -9   5 -15 393.949 175.259   4
   9  -5  15 122.288 163.030   5
  -9   5 -15 589.613 169.807   3
  -5  -9  15-17.1428 163.523   8
   5  -9  15-18.2745 167.614   8
   9  -5  15 200.111 161.420   6
   5   9 -16 365.753 233.178   3
   5   9 -16 665.602 236.594   2
  -5  -9  16-68.7943 236.793   5
  -5  -9  16 17.6931 238.833   8
   9  -5  16 343.821 243.368   5
   9  -5  16 65.6190 239.647   8
  -9   5 -16 532.771 232.857   3
  -9   5 -16 211.759 224.583   2
   5   9 -17 360.993 134.334   3
  -5   9 -17 73.0153 126.846   2
   5   9 -17 235.680 115.355   2
  -5  -9  17-52.5109 143.648   5
   9  -5  17 34.1855 145.449   8
  -9   5 -17 205.145 119.892   3
  -9   5 -17 61.2666 111.946   2
   9  -5  17 51.1426 128.467   5
  -5  -9  17 36.5054 143.211   8
   5  -9  17-38.6083 142.369   8
  -5   9 -18-26.9118 87.5431   3
   5  -9  18-37.9826 109.867   5
  -5   9 -18 29.9987 75.8812   2
   5  -9  18-59.4852 148.525   8
   9  -5  18 91.4371 107.340   5
   9  -5  18-17.7740 151.696   8
  -9   5 -18 25.0928 71.5074   3
  -9   5 -18-12.7448 79.9717   2
  -5  -9  19-19.3873 184.899   8
  -5   9 -19 124.302 158.305   3
   5  -9  19-38.9657 180.254   5
   9  -5  19 189.751 178.993   5
   9  -5  19 129.143 188.576   8
  -9   5 -19 355.697 161.847   3
  -5   9 -19 400.298 176.158   2
   5   9 -19 235.584 164.444   2
   5  -9  19 20.3496 190.695   8
  -5   9 -20-14.1554 86.9685   3
   5  -9  20 19.9804 122.479   5
   5   9 -20-13.5907 79.0580   3
   5   9 -20-29.4767 77.8164   2
  -5  -9  20-79.8284 133.082   8
   5  -9  20 41.7479 137.623   8
  -5  -9  20-19.1112 114.066   5
  -5   9 -20 15.7929 73.9576   2
  -5   9 -21 159.585 159.704   3
   5  -9  21 102.357 177.896   5
   5   9 -21 211.094 165.025   3
  -5  -9  21 20.5178 181.563   8
   5   9 -21 651.766 170.122   2
   9  -5  21 116.671 193.593   8
   9  -5  21 41.3933 154.923   5
  -9   5 -21 58.6581 145.167   3
  -5   9 -21 440.682 168.988   2
   5  -9  21 21.3946 185.797   8
  -9   5 -21 27.7160 142.967   2
  -5  -9  21 79.8049 171.032   5
  -5   9 -22-14.8545 84.6793   3
   5   9 -22-14.4576 87.2677   3
   5  -9  22 21.9071 135.745   8
  -5   9 -22 16.1179 78.3595   2
   5   9 -22-15.5707 78.7902   2
   9  -5  22-60.2435 142.292   8
   9  -5  22 21.3667 87.4216   5
   5  -9  22-20.9568 133.146   5
  -5  -9  22-21.0806 140.312   8
  -9   5 -22 31.7169 78.6880   3
  -9   5 -22-14.3105 66.6168   2
  -5  -9  22 81.9475 123.649   5
   5  -9  23-67.2686 154.429   8
  -5  -9  23 21.6336 159.897   8
   5   9 -23 14.8356 92.5828   3
  -5   9 -23 230.874 105.706   2
   9  -5  23-41.4184 176.638   8
   5   9 -23 287.650 127.080   2
   9  -5  23-66.0849 128.069   5
  -9   5 -23-16.3508 95.7991   3
   5  -9  23 21.7689 148.762   5
  -5  -9  23-21.5827 139.628   5
  -9   5 -23 14.7573 98.9414   2
  -5   9 -23 137.716 106.260   3
   5  -9  24 22.9176 157.309   8
  -5  -9  24 66.5416 168.923   8
   5   9 -24 94.4906 98.6113   3
   9  -5  24-63.9433 153.952   8
  -5   9 -24 84.2964 87.8730   2
   5   9 -24 262.171 103.704   2
   9  -5  24-22.6717 107.603   5
  -5  -9  24-44.2332 127.813   5
  -9   5 -24-134.661 82.8371   3
  -9   5 -24 15.1922 81.1255   2
   5  -9  24-89.0020 134.131   5
  -5   9 -24 46.9350 77.3868   3
   5  -9  25 70.2309 189.476   8
  -5   9 -25 33.0851 140.384   3
   9  -5  25 87.6444 213.974   8
   5   9 -25 193.504 152.310   3
  -5   9 -25 551.011 168.714   2
   5   9 -25 402.740 157.799   2
   9  -5  25-23.7474 148.799   5
  -5  -9  25-90.5683 169.860   5
   5  -9  25 93.2772 177.310   5
  -5  -9  25 45.4271 197.765   8
  -9   5 -25 52.8058 144.701   3
   5  -9  26-47.5722 203.692   5
   5  -9  26 23.8791 222.449   8
  -5  -9  26-23.2367 219.415   8
  -5  -9  26-23.8921 197.067   5
  -5   9 -26 219.415 198.414   3
   9  -5  26 22.4923 226.091   8
  -5   9 -26 579.782 217.527   2
   5   9 -26 433.182 203.389   3
   5   9 -26 804.286 215.256   2
   9  -5  26-24.3642 186.397   5
  -9   5 -26 72.2553 178.703   3
   5  -9  27-48.4893 143.093   5
   5  -9  27-24.3437 174.809   8
  -5  -9  27 23.7479 170.562   8
  -5  -9  27-73.2182 163.124   5
   9  -5  27-23.0448 173.266   8
  -5   9 -27 120.401 97.6901   3
  -5   9 -27-35.8104 95.1881   2
   5   9 -27 17.7062 87.3559   3
   9  -5  27-24.9628 93.8722   5
   5   9 -27 85.6331 105.813   2
  -9   5 -27 55.5349 81.4469   3
   5  -9  28-123.939 239.371   8
  -5  -9  28-24.2405 201.609   8
   5  -9  28-25.4623 165.893   5
  -5  -9  28-24.9069 157.504   5
   9  -5  28 70.7559 192.911   8
  -5   9 -28 220.755 139.372   3
  -5   9 -28 124.553 140.984   2
   5   9 -28 471.904 157.607   2
   5   9 -28 144.572 138.977   3
  -9   5 -28 18.9347 114.448   3
   5  -9  29-126.089 175.114   8
  -5  -9  29 74.1338 186.761   8
   5  -9  29 77.6634 133.302   5
   9  -5  29 96.4021 170.894   8
  -5  -9  29-103.314 161.949   5
  -5   9 -29 37.4292 104.691   3
  -5   9 -29 108.626 99.8706   2
   5   9 -29 106.945 90.1287   2
   5   9 -29-57.8602 93.1295   3
   5  -9  30 102.496 211.697   8
  -5  -9  30-50.3208 166.248   8
   5  -9  30-52.6149 111.727   5
   9  -5  30 196.706 198.742   8
  -5  -9  30 184.095 152.868   5
  -5   9 -30-19.0125 95.4778   3
   5   9 -30 36.3077 87.6461   2
   5   9 -30-19.6465 88.4276   3
  -5  -9  31 51.1985 186.055   8
   9  -5  31-50.1100 196.824   8
  -5  -9  31 80.2129 136.838   5
   5   9 -31 19.9756 91.0160   3
   5   9 -31 36.9350 104.093   2
   9   6   0 235.258 183.699   6
   9   6  -1 299.301 224.352   6
   9   6  -2 550.632 395.486   6
  -9  -6   3-45.6900 192.495   1
   9  -6   3 14.7637 82.0437   7
   9   6  -3 34.1565 63.2057   6
   9  -6   4 32.1639 332.103   5
  -9   6  -4 1024.36 348.984   4
   9  -6   4 58.3578 340.809   7
   9   6  -4 1181.26 351.233   6
  -9  -6   4 312.985 387.283   1
   9  -6   5 44.3026 90.3346   5
   9   6  -5 50.5567 83.0455   7
   9  -6   5 14.5633 107.870   7
   9   6  -5 214.641 98.7573   6
  -9  -6   5 247.974 219.321   1
  -9   6  -5 120.264 93.8561   4
  -9  -6   6 171.325 300.750   1
   9  -6   6 14.4941 213.467   6
   9  -6   6 11.4814 218.591   5
   9   6  -6 383.515 224.902   7
  -9   6  -6 949.153 241.113   4
   9  -6   6-43.3147 226.036   7
   9   6  -6 882.637 236.640   6
   9  -6   7 14.4986 172.951   6
  -9  -6   7 293.417 280.997   1
   9  -6   7 11.9338 179.020   5
   9   6  -7 218.073 184.541   7
   9  -6   7 14.1330 188.964   7
   9   6  -7 620.828 194.249   6
  -9   6  -7 671.389 199.318   4
   9  -6   8 14.5164 121.747   6
  -6  -9   8-13.8421 136.293   5
   9  -6   8 12.3613 131.733   5
   9   6  -8 284.271 139.941   7
   9  -6   8-14.1552 144.306   7
  -9  -6   8-40.4959 129.124   4
   9   6  -8 638.243 150.412   6
  -9   6  -8 660.072 152.694   4
   9  -6   9-14.5529 57.1908   6
  -6  -9   9 42.7299 86.7898   5
   9  -6   9 50.9866 90.2242   5
   9  -6   9 12.8687 63.6868   8
   9  -6   9-14.2461 97.6373   7
  -9   6  -9 144.325 96.9474   4
  -9   6  -9-9.85648 40.9119   2
  -9   6 -10-10.2833 99.6064   2
   9  -6  10 14.6022 109.684   6
  -9   6 -10 809.130 140.500   3
   6  -9  10-16.2283 130.261   5
  -6  -9  10-14.6746 119.982   5
   9  -6  10-26.1073 123.344   5
   9  -6  10 14.2965 131.619   7
  -9   6 -10 687.923 148.345   4
   9  -6  10-13.4268 116.795   8
   9  -6  11-14.6711 51.3150   6
  -9   6 -11-21.3942 47.2319   2
   6  -9  11-49.9747 92.5120   5
  -9   6 -11 115.120 66.6271   3
  -6  -9  11 45.1712 94.9600   5
   9  -6  11 13.6134 79.3295   5
   9  -6  11-28.0099 75.4302   8
   9  -6  11-29.7934 104.941   7
  -9   6 -11 95.2817 76.2606   4
  -6   9 -11-12.6882 40.9322   2
   9  -6  12 58.9930 99.6610   6
   6  -9  12 17.0217 132.776   5
  -6  -9  12 31.0819 118.804   5
  -9   6 -12 55.7813 96.5631   2
  -9   6 -12 524.874 126.363   3
   9  -6  12 42.0200 120.101   5
   9  -6  12 14.6068 116.822   8
  -6  -9  12-15.4971 101.435   8
   9  -6  12-74.8845 131.627   7
  -9   6 -12 574.587 131.250   4
   6   9 -12 131.309 95.0336   2
  -6   9 -12 78.2233 94.9539   2
   6  -9  12-16.9985 114.230   8
   6   9 -13 73.9944 66.9534   2
   9  -6  13 14.8442 83.7197   6
  -6   9 -13 107.179 75.9655   2
   6  -9  13 34.9715 103.267   5
  -6  -9  13-15.8750 104.497   5
  -9   6 -13 268.285 88.8637   3
  -9   6 -13 23.0047 68.6409   2
   9  -6  13-14.5923 98.9080   5
   6  -9  13-17.4722 90.8135   8
   9  -6  13-14.8491 107.564   7
   9  -6  13-15.2244 97.6632   8
  -9   6 -13 192.746 96.8483   4
  -6  -9  13 64.0369 95.1251   8
  -9   6 -14 299.444 202.545   2
   6   9 -14 445.964 204.346   2
  -6   9 -14 371.864 203.784   2
  -9   6 -14 475.307 441.249   1
   6   9 -14 615.797 213.931   3
   6  -9  14-35.5519 215.352   5
  -6  -9  14-16.0938 210.212   5
  -9   6 -14 665.677 213.260   3
   9  -6  14 121.534 209.254   5
  -6  -9  14 33.0801 201.765   8
   9  -6  14-31.6994 208.908   8
   9  -6  14-44.8411 210.101   7
  -9   6 -14 545.933 216.114   4
   6  -9  14 17.9621 203.839   8
   9  -6  14 164.514 201.571   6
  -6   9 -15 139.213 137.403   3
   6   9 -15 157.457 123.472   2
   6   9 -15 341.616 140.419   3
   6  -9  15 73.0580 150.534   5
  -6  -9  15 149.560 150.995   5
  -9   6 -15 245.633 132.156   3
  -6  -9  15 51.2596 139.501   8
  -9   6 -15 108.996 118.994   2
   9  -6  15 16.4876 148.585   8
   9  -6  15 15.7917 137.621   5
   6   9 -16 311.690 176.563   2
   6   9 -16 457.487 185.258   3
  -6  -9  16 16.9284 182.630   5
  -9   6 -16 455.531 183.211   3
   9  -6  16 102.787 197.670   8
  -9   6 -16 75.4986 167.710   2
   9  -6  16 99.9424 181.040   5
  -6  -9  16 17.6440 188.981   8
  -6   9 -17-14.8988 62.8825   2
   6   9 -17 27.9735 76.1461   2
   6   9 -17-24.8503 84.6385   3
  -6  -9  17 87.3254 108.310   5
  -9   6 -17-12.1161 70.2441   3
   9  -6  17-17.7729 134.370   8
  -9   6 -17-13.0525 78.9061   2
   9  -6  17-17.2792 104.381   5
   6  -9  17-38.9716 125.375   8
  -6  -9  17-36.4220 135.286   8
  -6   9 -18 149.297 119.321   3
  -6   9 -18 90.7678 119.617   2
   6  -9  18-19.1597 123.626   5
   6  -9  18-60.0143 155.578   8
   9  -6  18 55.2392 151.911   8
  -9   6 -18 181.981 105.064   3
   9  -6  18 55.1122 119.795   5
  -6   9 -19 153.187 130.992   3
   6  -9  19-19.6516 139.943   5
  -6   9 -19 310.447 128.921   2
   6   9 -19 88.2499 113.291   2
   6  -9  19 20.5304 148.360   8
  -6  -9  19 19.3610 154.924   8
  -6   9 -20 527.837 226.139   3
   6  -9  20-40.2875 222.920   5
   6   9 -20 448.340 222.536   3
   6  -9  20 126.298 229.616   8
  -6  -9  20 19.9300 224.880   8
   9  -6  20 176.676 222.192   5
   9  -6  20 19.6902 239.722   8
  -9   6 -20 155.266 209.644   2
   6   9 -20 469.603 223.482   2
  -6   9 -20 573.028 222.890   2
  -6  -9  20 19.3903 219.765   5
  -6   9 -21 146.161 127.948   3
   6  -9  21-20.6351 135.760   5
  -6  -9  21-19.9418 145.338   5
  -6   9 -21 179.396 125.719   2
   6   9 -21 227.256 113.405   2
   6  -9  21 86.2507 169.529   8
   9  -6  21 20.8879 141.524   5
   9  -6  21 20.3146 156.661   8
  -9   6 -21 301.119 133.812   3
  -9   6 -21 29.1240 105.237   2
   6   9 -21 126.644 124.908   3
  -6  -9  21-20.5072 162.956   8
  -6   9 -22 271.138 143.409   3
  -6   9 -22 324.693 147.824   2
   6  -9  22-22.0773 180.078   8
   6   9 -22 187.956 141.770   3
   6   9 -22 436.060 150.098   2
   9  -6  22 62.7914 173.487   8
   9  -6  22 43.0281 148.848   5
  -9   6 -22 155.117 140.784   3
  -6  -9  22-42.1450 166.604   8
  -9   6 -22-30.0056 124.020   2
   6  -9  22 21.4440 160.294   5
  -6  -9  22-20.4850 151.757   5
  -9   6 -23-46.3096 99.6646   2
  -6  -9  23 21.5833 123.344   5
   6  -9  23 45.1707 164.911   8
  -6   9 -23-33.2105 92.1716   2
   9  -6  23-107.682 207.359   8
   6   9 -23-15.3719 89.3867   3
   6   9 -23 15.9893 79.8315   2
   9  -6  23-22.1299 142.578   5
  -9   6 -23-31.9205 87.2005   3
  -6  -9  23 86.5380 144.271   8
  -6   9 -23-30.8130 88.2719   3
   6  -9  23 43.8524 127.167   5
   6  -9  24 134.432 153.418   5
  -6  -9  24 88.5006 150.336   5
  -6  -9  24 88.7548 174.513   8
  -6   9 -24 110.217 121.537   3
   9  -6  24 154.876 178.202   8
  -6   9 -24 220.622 132.079   2
   6   9 -24 63.0425 120.604   3
   9  -6  24 115.654 137.649   5
   6   9 -24 229.554 117.144   2
  -9   6 -24 34.3256 111.816   3
  -9   6 -24 15.4927 106.757   2
   6  -9  24 23.0831 160.341   8
   6  -9  25 23.4747 137.897   5
   6  -9  25 47.1318 166.987   8
  -6  -9  25-68.1890 163.335   8
  -6  -9  25-23.3769 135.451   5
  -6   9 -25 16.6440 112.055   3
   9  -6  25 22.7016 169.263   8
  -6   9 -25 155.932 108.876   2
   9  -6  25 71.1966 128.804   5
   6   9 -25 319.158 127.825   2
   6   9 -25 96.8590 103.557   3
  -9   6 -25 70.4371 105.929   3
  -9   6 -25 63.5823 98.7500   2
   6  -9  26 95.7521 152.081   5
   6  -9  26 48.0773 173.526   8
  -6  -9  26 69.7640 165.542   8
  -6  -9  26 23.9111 155.603   5
   9  -6  26 232.637 208.336   8
  -6   9 -26 33.9435 115.344   3
  -6   9 -26 159.058 117.210   2
   9  -6  26-48.5995 140.096   5
   6   9 -26 361.025 138.062   2
   6   9 -26 86.7357 126.756   3
  -9   6 -26 72.1577 104.505   3
  -9   6 -26-16.2837 108.734   2
   6  -9  27 514.337 291.570   8
  -6  -9  27-95.0712 241.079   8
   6  -9  27 170.732 228.523   5
   9  -6  27 142.783 227.018   8
  -6  -9  27 73.2793 208.625   5
  -6   9 -27 345.934 183.286   3
  -6   9 -27 414.150 195.051   2
   9  -6  27 126.706 185.316   5
   6   9 -27 509.604 213.181   2
   6   9 -27 70.9321 158.967   3
  -9   6 -27-18.7870 149.632   3
  -9   6 -27 66.6627 159.401   2
   6   9 -28 36.1977 96.1636   3
   6  -9  28-349.058 193.104   8
  -6  -9  28-24.2681 175.363   8
   6  -9  28 128.044 147.797   5
   9  -6  28-24.3132 167.191   8
  -6  -9  28-25.3766 135.283   5
  -6   9 -28 164.973 114.425   2
  -6   9 -28 184.953 116.812   3
   9  -6  28 51.7676 119.900   5
   6   9 -28 70.0498 113.842   2
  -9   6 -28 38.3877 81.4001   3
  -9   6 -28 51.0791 94.2928   2
   6  -9  29 50.7112 181.743   8
  -6  -9  29-74.2404 173.965   8
   6  -9  29-78.0916 150.997   5
   9  -6  29-24.3895 171.463   8
  -6  -9  29-51.7302 128.787   5
  -6   9 -29-18.6439 89.4003   2
   9  -6  29-52.8276 111.735   5
  -6   9 -29-37.6024 99.3251   3
   6   9 -29 71.4183 96.0360   2
   6   9 -29-57.9829 92.6292   3
  -9   6 -29-19.5802 80.8600   3
  -9   6 -29 17.3736 98.1356   2
   6   9 -30 127.330 102.634   2
   6  -9  30 25.7580 163.976   8
  -6  -9  30-100.813 169.921   8
   9  -6  30-49.7202 174.726   8
   6  -9  30-52.8728 128.927   5
  -6  -9  30 26.3374 128.448   5
   9  -6  30-26.9080 122.794   5
  -6   9 -30 38.1976 91.4868   3
   6   9 -30-19.6871 87.9881   3
  -9   6 -30 17.7081 86.7158   2
  -9   6 -30 19.9510 74.8129   3
  -9   6 -31-20.3059 81.6897   3
  -6  -9  31 76.9503 189.206   8
   9  -6  31-126.515 196.526   8
  -6  -9  31-53.5818 146.201   5
   6   9 -31-37.0177 92.7878   2
  -9   6 -31-18.0229 103.589   2
   6   9 -31 20.0219 85.3346   3
   9   7  -3 178.406 143.592   6
   9   7  -4 290.653 216.337   6
   9  -7   5-45.3217 188.369   7
   9   7  -5 451.230 190.099   6
   9  -7   6-12.7849 241.555   5
   9  -7   6 15.0670 245.918   7
  -9   7  -7 397.231 173.398   4
   9  -7   7-26.3708 167.210   5
   9  -7   7 14.9263 177.410   7
   9   7  -7 476.621 177.278   6
  -7  -9   8 13.7486 125.507   5
   9  -7   8-27.2489 132.258   5
   9  -7   8-59.6646 147.125   7
  -7  -9   9-28.3016 71.8321   5
   9  -7   9-28.0482 87.1133   5
   9  -7   9 14.6031 95.1229   7
  -9   7  -9 136.461 69.1140   4
   9  -7  10-15.0015 50.4758   6
   7  -9  10-16.4287 89.1568   5
  -7  -9  10 58.3498 94.5762   5
   9  -7  10-28.7353 86.4937   5
   9  -7  10 14.6233 98.0627   7
   7  -9  10 95.2593 105.670   7
  -9   7 -10 11.1098 45.9574   2
  -9   7 -10 273.217 83.6666   4
   9  -7  11 15.0349 103.152   6
  -9   7 -11 483.965 129.319   3
   7  -9  11 16.8603 134.540   5
  -7  -9  11 14.9766 127.900   5
   9  -7  11 14.8861 124.024   5
   9  -7  11 15.0332 109.427   8
   9  -7  11 103.013 134.882   7
  -9   7 -11 460.312 128.779   4
  -9   7 -11-11.5150 96.5084   2
  -9   7 -12-11.9362 37.4600   2
   9  -7  12 15.0798 51.8355   6
   9  -7  12 15.3068 116.654   7
  -9   7 -12 10.6705 69.4272   3
   7  -9  12-17.2210 92.0137   5
  -7  -9  12 15.3015 93.5876   5
   9  -7  12-15.1469 92.6421   5
   9  -7  12 15.5839 75.7506   8
   7   9 -12-11.8829 31.2054   2
  -7   9 -12-13.1869 39.2601   2
  -9   7 -12 12.4509 60.5241   4
   7   9 -13 98.9684 96.1193   3
  -9   7 -13 49.3229 86.4557   2
  -9   7 -13 320.727 108.761   3
   7  -9  13 34.9959 115.002   5
  -7  -9  13-31.6191 113.955   5
   9  -7  13-47.0632 114.403   5
   9  -7  13-48.4421 109.980   8
   7  -9  13-17.6736 100.159   8
  -9   7 -13 249.952 106.124   4
  -7  -9  13-15.9455 95.5953   8
   7   9 -13 73.7015 81.8813   2
  -7   9 -13 216.737 91.6415   2
   7  -9  14 18.1611 79.5450   8
   7   9 -14 25.3985 50.3986   2
  -7   9 -14 13.9208 51.3678   2
   7   9 -14 34.1011 67.8996   3
  -9   7 -14 25.5480 53.7529   2
   7  -9  14-71.8859 116.238   5
  -9   7 -14 45.3475 78.1340   3
  -7  -9  14 16.0416 90.9098   5
   9  -7  14 96.1990 106.266   5
   9  -7  14-33.4569 91.7750   8
  -7  -9  14-32.9689 75.9998   8
   7   9 -15 301.931 140.654   2
   9  -7  15-34.6306 158.307   8
  -7   9 -15 383.557 153.823   3
   7   9 -15 328.973 147.862   3
   7  -9  15-18.1269 159.657   5
  -9   7 -15 91.5819 133.754   2
  -7  -9  15-32.7046 149.229   5
  -9   7 -15 258.233 146.428   3
   9  -7  15 33.1867 153.634   5
  -7  -9  15-51.1182 150.685   8
  -7   9 -16 14.6469 79.7695   2
   7   9 -16 108.198 75.7244   2
   7   9 -16 36.0438 80.0888   3
  -7  -9  16 50.6643 115.002   5
  -9   7 -16 48.5175 83.3969   3
  -9   7 -16 13.5302 79.2382   2
   9  -7  16 137.253 139.341   5
   9  -7  16-35.8297 141.928   8
  -7  -9  16-17.6057 123.340   8
  -7   9 -17 15.0399 100.217   2
  -7   9 -17 146.825 115.705   3
   7   9 -17 237.461 113.258   2
   7  -9  17 18.8558 133.207   5
   7   9 -17 248.137 122.450   3
  -7  -9  17-17.4359 128.517   5
   9  -7  17 17.7264 121.382   5
  -9   7 -17 213.067 116.831   3
   7  -9  17-19.6836 151.888   8
  -7  -9  17-18.1762 124.706   8
  -7   9 -18 205.469 171.041   3
  -7   9 -18 154.352 160.444   2
   7  -9  18-19.3436 172.012   5
   7   9 -18 447.714 173.991   3
   7  -9  18 20.1973 182.008   8
  -7   9 -19 210.711 123.403   3
  -7   9 -19 62.6472 96.8198   2
   7   9 -19 308.745 117.022   2
   7  -9  19-59.5026 124.047   5
  -7  -9  19 58.0259 138.835   8
  -9   7 -19 174.635 112.766   3
   9  -7  19-19.7141 153.861   8
  -9   7 -19-14.4749 104.588   2
   9  -7  19 95.7691 121.064   5
   7  -9  19-62.1647 140.573   8
  -7   9 -20 1064.53 351.872   3
  -7   9 -20 642.083 345.642   2
   7  -9  20-20.3242 339.459   5
  -7  -9  20 19.3811 340.986   5
   7  -9  20 42.4770 349.573   8
   9  -7  20 222.795 345.226   5
  -7  -9  20 19.9196 343.284   8
   9  -7  20 20.3080 348.866   8
  -9   7 -20 1017.32 353.635   3
  -9   7 -20 208.806 336.407   2
   7   9 -20 588.137 345.733   3
   7   9 -20 1105.59 354.227   2
  -7   9 -21 103.139 150.912   3
  -7   9 -21 230.176 154.263   2
   7   9 -21 436.383 149.568   2
   7  -9  21-21.7541 176.603   8
  -7  -9  21-20.5062 176.437   8
   9  -7  21 20.8345 155.092   5
   7   9 -21 182.995 154.248   3
   9  -7  21 20.8974 179.703   8
  -9   7 -21 383.338 162.561   3
  -9   7 -21 107.429 146.162   2
   7  -9  21 20.8098 169.452   5
  -7  -9  21-19.9356 159.345   5
  -7   9 -22 318.787 172.753   3
  -7   9 -22 151.452 139.951   2
  -7  -9  22-21.0326 164.594   5
   7  -9  22-66.7838 194.715   8
  -7  -9  22-42.1526 177.579   8
   9  -7  22 171.232 195.111   5
   9  -7  22-21.4760 213.356   8
   7   9 -22 164.808 146.212   3
  -9   7 -22 227.272 161.719   3
  -9   7 -22-31.5425 141.941   2
   7  -9  22-43.2381 180.699   5
   7   9 -22 561.028 157.895   2
  -7   9 -23 66.9232 85.9048   2
   7  -9  23-45.5261 172.741   8
  -7  -9  23-64.7701 138.275   5
   9  -7  23 66.1349 139.367   8
   9  -7  23-45.3221 124.201   5
   7   9 -23 107.709 96.9007   3
  -9   7 -23 114.364 103.686   3
  -9   7 -23 31.6001 90.2151   2
   7  -9  23 88.4113 128.981   5
  -7   9 -23 46.5656 96.4591   3
  -7  -9  23-108.228 164.483   8
  -7   9 -24-17.0897 83.1785   2
  -7  -9  24-44.4073 158.914   8
   7  -9  24 46.5033 151.336   8
  -7   9 -24-31.7088 87.6883   3
  -7  -9  24-22.1406 137.251   5
   9  -7  24 45.1995 148.796   8
   9  -7  24 92.9172 132.465   5
  -9   7 -24 16.7474 84.8362   3
  -9   7 -24-48.6026 82.0754   2
   7  -9  24 22.5759 143.486   5
  -7  -9  25-45.5066 159.260   8
   7  -9  25 70.9412 133.884   5
   7  -9  25-47.4764 165.777   8
   9  -7  25-23.1483 168.262   8
  -7   9 -25 261.630 107.674   2
  -7   9 -25 167.548 109.144   3
   9  -7  25-95.0930 138.615   5
  -9   7 -25 34.2981 91.4313   3
  -9   7 -25-33.1779 93.4125   2
   7  -9  26-48.4012 200.954   8
   7  -9  26 48.2150 160.533   5
  -7  -9  26-23.2873 214.324   8
   9  -7  26 47.3434 172.663   8
  -7   9 -26-35.5739 117.175   2
   9  -7  26 74.2191 120.361   5
  -7   9 -26-85.4105 105.969   3
  -9   7 -26 73.4425 103.180   3
  -9   7 -26-16.9682 115.532   2
   7  -9  27-73.9766 180.100   8
   7  -9  27 50.6538 149.044   5
   9  -7  27-72.5606 170.021   8
  -7   9 -27 72.4711 102.248   2
   9  -7  27-25.2706 125.817   5
  -7   9 -27 86.9974 95.1578   3
  -9   7 -27 18.7546 87.9315   3
  -9   7 -27-34.6640 94.7933   2
   7  -9  28 100.368 172.792   8
   9  -7  28 123.364 183.481   8
   7  -9  28 25.7688 142.730   5
  -7   9 -28-73.7562 99.0701   2
   9  -7  28 103.116 130.833   5
  -7   9 -28 18.6009 94.6800   3
  -9   7 -28 17.6793 99.7727   2
  -9   7 -28-19.1360 87.6289   3
   7  -9  29 25.5066 174.313   8
   9  -7  29 75.4242 175.424   8
   7  -9  29 52.3646 150.180   5
  -7   9 -29-18.7502 90.8055   2
   9  -7  29-26.7574 116.946   5
  -7   9 -29 113.424 95.2901   3
  -9   7 -29-18.0145 99.3444   2
  -9   7 -29 19.8415 80.5384   3
   9  -7  30-76.7770 177.943   8
   9  -7  30 163.422 143.247   5
  -7   9 -30-19.1955 83.4511   3
  -9   7 -30 18.3369 93.1571   2
  -9   7 -30 20.1846 78.0283   3
   9  -7  31-27.6804 110.730   5
  -9   7 -31 41.0362 82.6081   3
   9   8  -5 626.721 449.077   6
   9   8  -6 11.5372 71.0140   6
   9  -8   7 62.4016 102.467   7
   9  -8   8 59.3843 87.6360   5
   9  -8   8-15.4446 99.6514   7
   8  -9   9-32.4689 85.0257   5
   9  -8   9-15.2711 94.5929   5
   9  -8   9-15.4227 104.857   7
   8  -9  10-33.2838 87.4562   5
   9  -8  10-15.6428 85.0959   5
   9  -8  10-15.0822 91.1041   7
   8  -9  10 44.2042 103.445   7
   8  -9  11-33.9691 99.3520   5
   9  -8  11 31.8805 92.0325   5
   9  -8  11 15.0840 90.9888   7
  -9   8 -11-49.3089 41.3770   2
  -9   8 -12 76.8933 51.8006   4
  -9   8 -12 113.638 74.8135   3
   8  -9  12 17.4289 103.555   5
   9  -8  12 16.4310 96.4046   5
   9  -8  12-33.1950 67.8007   8
  -8   9 -12-13.3429 38.5360   2
  -9   8 -12-12.7115 48.2285   2
  -9   8 -13 46.8765 69.9412   3
   8  -9  13-35.4075 104.034   5
   9  -8  13-16.6348 97.7676   5
   9  -8  13-17.1173 68.1148   8
   8  -9  13-17.8867 83.3867   8
  -8   9 -13 13.7053 47.3682   2
  -9   8 -13 13.1090 52.2635   2
  -9   8 -14-13.5139 56.8858   2
  -8   9 -14 12.5839 76.9642   3
  -9   8 -14 24.1634 77.6843   3
   8  -9  14-36.3624 121.005   5
   9  -8  14-17.1426 103.456   5
   8  -9  14-18.3720 94.7144   8
   9  -8  14 17.6471 105.051   8
  -9   8 -15-41.6694 67.1120   2
  -9   8 -15 98.6197 74.3055   3
   9  -8  15-34.8679 120.403   5
   9  -8  15 18.1888 110.387   8
  -8   9 -16 14.8009 76.5471   2
  -9   8 -16 177.786 94.3062   3
   9  -8  16-71.8095 122.777   5
   8  -9  16-19.3761 108.778   8
  -8   9 -17 91.1420 104.001   2
  -8   9 -17 337.069 128.802   3
  -9   8 -17 14.7354 94.7900   2
   8  -9  17 57.1600 141.938   5
   8  -9  17-19.8901 126.656   8
  -8   9 -18-15.5877 63.8492   2
  -8   9 -18 27.6642 83.5408   3
  -9   8 -18-14.9962 74.4641   2
   8  -9  18 19.5399 102.636   5
  -9   8 -18 67.2011 80.0750   3
   9  -8  18-76.0378 111.626   5
   8  -9  18 20.4073 105.257   8
   9  -8  18-19.8543 121.472   8
  -8   9 -19 447.447 246.648   2
  -8   9 -19 665.951 250.499   3
  -9   8 -19 416.243 235.344   2
   8  -9  19 20.0328 238.356   5
   9  -8  19-19.8399 233.691   5
   9  -8  19-20.4116 240.316   8
   8  -9  19 41.8521 243.654   8
  -9   8 -19 483.597 248.177   3
  -8   9 -20 16.1970 89.8708   2
  -8   9 -20 43.5530 88.5955   3
   8  -9  20 61.5549 135.675   5
  -9   8 -20 63.3506 96.0708   2
   8  -9  20-21.4414 128.167   8
   9  -8  20-20.9641 138.529   8
  -9   8 -20 57.1513 90.6857   3
   9  -8  20 20.3690 126.914   5
  -8   9 -21 464.369 246.376   2
  -9   8 -21 81.2592 233.960   2
   9  -8  21 21.5132 266.628   8
  -9   8 -21 835.714 261.441   3
   9  -8  21 83.6199 244.899   5
  -8   9 -21 639.203 257.016   3
   8  -9  21-21.3298 238.127   5
   8  -9  21 21.9503 251.585   8
  -8   9 -22 16.9700 81.1769   2
   8  -9  22 109.064 133.668   5
  -8   9 -22 15.3111 84.9905   3
   9  -8  22 110.286 145.402   8
  -9   8 -22-16.2011 75.8540   2
  -9   8 -22-46.6960 84.9964   3
   8  -9  22 22.4608 151.370   8
   9  -8  22 21.9911 113.679   5
   8  -9  23-22.2906 135.166   5
   9  -8  23 45.1897 160.297   8
   9  -8  23 90.0531 145.084   5
  -9   8 -23 116.139 110.522   2
  -9   8 -23 159.358 116.556   3
  -8   9 -23 156.435 117.140   3
   8  -9  23 68.8824 164.073   8
  -8   9 -23 17.3473 117.735   2
   8  -9  24 23.3606 129.926   5
   8  -9  24 23.4475 142.309   8
   9  -8  24-23.1185 149.414   8
   9  -8  24 23.0272 136.003   5
  -8   9 -24 16.5458 91.1742   3
  -9   8 -24 16.9703 83.8572   2
  -9   8 -24 16.3046 83.8576   3
  -8   9 -24 53.1306 78.0673   2
  -8   9 -25 17.5704 99.4399   2
   9  -8  25-23.6193 172.677   8
   9  -8  25 24.2770 132.546   5
  -8   9 -25-16.8825 91.1047   3
  -9   8 -25-69.3866 106.862   2
  -9   8 -25 17.5022 89.4635   3
   8  -9  25-95.6788 176.464   8
   8  -9  25-47.6572 160.854   5
   8  -9  26-73.1613 179.522   8
   9  -8  26-96.4841 167.610   8
   8  -9  26 121.433 142.657   5
  -8   9 -26 89.5670 94.2032   2
   9  -8  26-24.7778 141.325   5
  -9   8 -26 17.7096 88.0227   2
  -8   9 -26-17.2026 95.1849   3
  -9   8 -26-17.8686 85.1973   3
   8  -9  27-49.6705 160.170   8
   9  -8  27 73.7898 169.528   8
   8  -9  27 51.0177 134.497   5
  -8   9 -27 36.4847 89.5356   2
   9  -8  27 25.2587 135.526   5
  -9   8 -27 18.0579 95.6160   2
  -8   9 -27 36.8040 92.1313   3
  -9   8 -27-36.4405 85.6974   3
   8  -9  28 126.324 177.733   8
   9  -8  28 100.224 183.178   8
   8  -9  28-25.9425 148.325   5
  -8   9 -28 37.1149 90.8784   2
   9  -8  28 26.1779 125.066   5
  -9   8 -28 73.6032 98.9947   2
  -8   9 -28-18.7196 100.571   3
  -9   8 -28 38.8562 100.448   3
   8  -9  29 25.6715 171.544   8
   9  -8  29 25.4933 158.698   8
   8  -9  29 52.7161 146.409   5
  -8   9 -29 18.8600 91.0414   2
   9  -8  29 26.6272 122.031   5
  -9   8 -29 74.8860 107.800   2
  -8   9 -29-38.0407 89.8327   3
  -9   8 -29 19.7668 91.1718   3
   9  -8  30 51.8276 145.655   8
   9  -8  30-27.0592 131.759   5
  -9   8 -30-40.1855 82.5749   3
   9  -9   9 16.4514 84.0078   5
   9  -9   9-48.3518 97.9364   7
   9  -9  10-236.050 132.343   5
   9  -9  10 31.9066 122.242   7
   9  -9  11 17.2038 101.682   5
   9  -9  12-69.8379 132.860   5
   9  -9  13 17.9225 109.651   5
  -9   9 -13-13.8676 47.7475   2
  -9   9 -14-25.4547 81.4383   3
   9  -9  14-36.1293 110.901   5
  -9   9 -16 45.0211 62.7964   2
   9  -9  16 18.7770 106.210   5
   9  -9  16-39.1987 105.547   8
  -9   9 -17 107.496 75.6842   2
  -9   9 -17 13.6256 87.2648   3
   9  -9  17 19.2670 127.280   5
   9  -9  17-20.1132 118.297   8
  -9   9 -18 157.495 132.271   2
   9  -9  18-20.6251 152.501   8
  -9   9 -18 307.444 147.449   3
   9  -9  18-19.7494 142.086   5
  -9   9 -19-48.4248 93.3391   2
  -9   9 -19-28.6227 97.5839   3
   9  -9  19 20.2409 123.167   5
   9  -9  19 21.1434 138.457   8
   9  -9  20-41.4515 158.494   5
  -9   9 -20 264.542 158.860   2
  -9   9 -20 322.508 174.401   3
   9  -9  20-43.3161 178.295   8
   9  -9  21-43.0691 128.209   5
  -9   9 -21 16.7391 70.4905   2
   9  -9  21-44.3323 140.833   8
  -9   9 -21 30.2031 88.6642   3
  -9   9 -22 154.073 152.833   2
   9  -9  22 110.081 178.799   5
   9  -9  22 22.6702 181.830   8
  -9   9 -22 293.450 167.813   3
  -9   9 -23-17.4953 77.7742   2
   9  -9  23-46.3375 157.662   8
  -9   9 -23 47.3527 87.3240   3
   9  -9  23-67.4778 141.219   5
   9  -9  24-47.2955 177.399   8
  -9   9 -24 100.090 105.123   3
   9  -9  24-94.2657 157.146   5
  -9   9 -24 17.8612 92.5895   2
   9  -9  25-24.1237 158.892   8
   9  -9  25-48.0534 141.190   5
  -9   9 -25-17.0174 91.1638   3
  -9   9 -25-54.6611 100.454   2
  -9   9 -26-18.5612 84.5811   2
   9  -9  26-24.5833 180.971   8
   9  -9  26-25.2590 132.730   5
  -9   9 -26 17.3359 87.8856   3
  -9   9 -27 36.7614 88.8803   2
   9  -9  27-25.7098 138.273   5
  -9   9 -27-18.5360 98.5927   3
   9  -9  27 125.149 183.171   8
  -9   9 -28 18.6876 101.661   2
   9  -9  28 78.3952 128.505   5
  -9   9 -28 94.2600 100.743   3
   9  -9  28-50.9138 177.969   8
   9  -9  29-212.385 148.251   5
  -9   9 -29 19.1511 97.1625   3
  10   0   0 68.6034 90.6988   7
 -10   0   0-10.3003 81.1884   4
  10   0   0 99.3421 75.9713   6
  10   0   1 13.8267 78.8052   7
 -10   0  -1 10.3758 70.5748   4
  10   0  -1-13.8418 83.5356   7
 -10   0   1-10.6203 73.7587   4
  10   0   1-12.5123 69.1192   6
  10   0  -1 13.0274 60.6251   6
 -10   0  -2 379.304 311.327   1
 -10   0  -2 70.5009 92.0943   4
  10   0   2 125.537 99.8390   7
  10   0  -2 41.3036 99.8350   7
 -10   0   2 63.4030 86.1196   4
  10   0   2 122.315 82.5450   6
  10   0  -2 12.9589 74.1644   6
 -10   0  -3-20.3345 70.6868   4
  10   0  -3-39.6682 84.0647   7
 -10   0   3 53.7099 73.1372   4
  10   0   3 37.0532 70.4693   6
  10   0  -3-13.4946 51.9561   6
 -10   0  -4 349.536 423.841   4
  10   0  -4 672.419 433.659   7
  10   0   4 1161.34 433.881   6
 -10   0   4 803.591 428.480   4
  10   0  -4 255.685 420.140   6
  10   0  -5-13.4369 55.7294   6
 -10   0  -5-20.2018 78.0205   4
  10   0   5-14.4985 90.1385   7
  10   0  -5-26.3271 76.7521   7
 -10   0   5-10.9728 65.5115   4
  10   0   5-37.4959 65.2704   6
 -10   0  -5-170.986 319.141   1
  10   0  -6 94.0373 476.969   6
  10   0   6 1203.90 498.592   7
 -10   0  -6 69.1951 574.549   1
 -10   0  -6 398.782 482.520   4
  10   0  -6 865.117 492.314   7
  10   0   6 1581.92 496.935   6
 -10   0   6 779.068 486.262   4
  10   0  -7 13.4455 51.7555   6
 -10   0  -7-263.055 341.410   1
 -10   0  -7-20.5375 79.6299   4
  10   0   7-15.0561 88.4259   7
  10   0  -7 13.1180 85.3993   7
  10   0   7-12.8186 62.3795   6
 -10   0   7 11.1811 58.7798   4
 -10   0  -8 88.8355 390.759   1
  10   0  -8 13.4770 225.850   6
 -10   0  -8 145.749 237.644   4
  10   0   8 809.267 265.206   7
  10   0  -8 456.869 251.164   7
  10   0   8 701.971 250.055   6
 -10   0   8 246.618 232.208   4
  10   0  -9-13.5224 42.4259   6
  10   0   9 15.6607 89.2570   7
  10   0  -9 26.9633 83.5314   7
  10   0   9 13.1901 69.2474   6
 -10   0   9-11.2765 43.3308   4
 -10   0  10-11.3338 103.575   4
  10   0  10 254.438 142.441   7
 -10   0 -10 256.443 347.806   1
  10   0 -10 81.2769 127.282   7
  10   0  10 321.419 138.649   6
   0 -10  11 16.7972 83.3303   5
  10   0  11 16.1557 81.7352   7
  10   0 -11-13.6240 75.2638   7
  10   0  11-27.5005 72.1926   6
   0  10 -11 25.6243 33.6419   2
  10   0  12 32.8746 83.5923   7
   0 -10  12 34.4364 85.8397   5
  10   0 -12-13.8274 86.0974   7
   0 -10  12-34.1877 74.4157   8
  10   0  12 55.8947 92.3576   6
   0  10 -12 13.1369 45.9494   2
   0 -10  13-52.9676 101.946   5
 -10   0 -13-38.4812 339.734   1
   0 -10  13-17.5376 71.4911   8
  10   0  13-14.2080 76.3594   6
  10   0  13-16.7134 79.4743   7
  10   0 -13-41.8033 90.0178   7
   0  10 -13-13.4776 41.1990   2
   0  10 -14 27.6623 49.5656   2
   0 -10  14-18.0181 91.2005   5
   0 -10  14 17.9972 83.8033   8
  10   0  14 17.0252 73.6875   7
  10   0 -14 14.0616 84.9128   7
  10   0  14-14.4508 74.5574   6
   0 -10  15 18.2870 104.943   5
  10   0  15 14.7014 80.8242   6
 -10   0 -15 79.6606 288.628   1
  10   0  16 14.9608 76.3946   6
   0  10 -17 29.8070 51.6542   2
   0 -10  17-56.6781 107.884   5
   0 -10  17-19.4507 119.147   8
  10   0  17-46.4335 91.0931   6
   0  10 -18 562.014 262.650   3
   0 -10  18-38.7361 262.256   5
   0  10 -18 574.577 266.028   2
   0 -10  18 39.8964 263.665   8
  10   0  18 299.382 261.388   6
   0  10 -19-14.0525 83.7443   3
   0 -10  19 78.3549 115.045   5
   0  10 -19-31.0027 68.8910   2
   0 -10  19-20.4516 140.634   8
   0  10 -20 912.092 403.012   3
   0 -10  20 80.2591 395.827   5
   0 -10  20-83.8080 403.030   8
   0  10 -20 1080.14 410.965   2
   0  10 -21-14.5911 84.0996   3
   0 -10  21 82.1472 122.893   5
   0 -10  21-42.9048 140.129   8
   0  10 -21-48.7934 65.7517   2
   0  10 -22 328.103 255.743   3
   0 -10  22 42.0210 267.197   5
   0 -10  22 21.9513 273.793   8
   0  10 -22 615.807 261.037   2
   0  10 -23 16.5445 82.4532   2
   0  10 -23-45.7489 91.3450   3
   0 -10  23-89.7644 148.808   8
   0 -10  23-21.4722 135.962   5
   0 -10  24-66.8120 154.428   5
   0  10 -24 109.798 101.718   3
   0 -10  24 22.9254 168.288   8
   0  10 -24 33.8048 90.6272   2
   0  10 -25 32.0127 79.5389   3
   0 -10  25-46.8060 160.934   8
   0  10 -25-17.2552 74.7677   2
   0 -10  25-45.4419 125.597   5
   0 -10  26-23.8651 183.084   8
   0  10 -26 114.248 109.948   3
   0  10 -26 105.580 111.748   2
   0 -10  26-23.1684 134.074   5
   0  10 -27 86.0947 97.1061   3
   0  10 -27-17.9308 83.9819   2
   0 -10  27-24.2206 125.226   5
   0 -10  27-24.3172 156.643   8
   0 -10  28 123.748 199.629   8
   0 -10  28-24.6533 160.584   5
   0  10 -28 52.5716 112.920   3
   0  10 -28 18.2505 110.159   2
   0 -10  29-50.3385 178.637   8
   0 -10  29-75.1955 127.232   5
   0  10 -29-17.8196 85.4285   3
   0  10 -29 37.1213 101.401   2
   0 -10  30-52.5177 154.283   5
   0  10 -30 113.116 93.6652   2
   0  10 -30-38.0381 90.5744   3
   0 -10  30 127.876 196.758   8
 -10  -1   0-19.7404 70.8183   4
  10   1   0 13.6458 85.7928   7
  10  -1   0 40.7712 76.4624   7
 -10   1   0-10.8089 72.9299   4
 -10  -1   0 32.3252 306.826   1
  10   1   0 11.9787 54.7245   6
  10  -1   0 13.2666 56.0991   6
  10  -1  -1 108.289 100.319   7
 -10  -1  -1 16.3746 313.388   1
 -10  -1  -1 39.8694 92.9218   4
  10   1   1 55.1397 99.8200   7
  10   1  -1 216.589 114.590   7
 -10  -1   1 19.5682 88.0768   4
  10  -1   1 84.9916 98.8918   7
 -10   1  -1 65.1696 92.0624   4
 -10   1   1 87.9123 94.0758   4
  10   1   1 24.1974 76.4136   6
  10   1  -1 134.740 87.6961   6
  10  -1   1 133.342 87.0036   6
  10  -1  -1-13.8159 76.5720   6
 -10  -1  -2-9.79341 71.6224   4
 -10  -1  -2 49.6985 300.431   1
  10   1   2 28.0867 84.9376   7
  10   1  -2-13.4288 85.4962   7
 -10  -1   2-10.0875 77.7272   4
 -10   1  -2-10.5324 75.5632   4
  10  -1  -2-26.9967 83.8237   7
 -10   1   2-10.9620 71.5395   4
  10   1   2-36.3197 72.2878   6
  10   1  -2 12.1526 55.5386   6
  10  -1   2-12.7079 55.2445   6
  10  -1  -2 13.7790 64.3677   6
  10  -1  -3 13.7589 131.358   6
 -10  -1  -3 69.3587 140.058   4
  10   1   3 85.2765 144.517   7
  10  -1   3 396.063 161.046   7
  10   1  -3 293.416 151.602   7
 -10   1  -3 286.411 148.888   4
 -10  -1   3 100.220 138.075   4
  10  -1  -3 13.4246 139.220   7
 -10  -1  -3 201.018 330.303   1
 -10   1   3 179.642 137.345   4
  10   1   3 220.532 144.111   6
  10  -1   3 243.226 139.630   6
  10   1  -3 229.416 143.957   6
  10  -1  -4-13.7560 49.2093   6
 -10   1  -4 168.551 310.159   1
 -10  -1  -4 9.94531 80.1618   4
  10  -1   4-14.2668 92.8187   7
 -10   1  -4-10.6952 75.0329   4
  10   1  -4-13.4657 83.4332   7
  10  -1  -4-13.4205 79.8907   7
 -10  -1   4 10.3424 70.3476   4
  10   1   4 12.4039 63.9467   6
 -10   1   4-22.4558 56.8023   4
  10  -1   4 38.7295 64.0426   6
  10   1  -4-12.6747 58.9833   6
  10  -1  -5-27.5408 401.188   6
 -10   1  -5 936.471 524.007   1
  10   1  -5 1702.62 434.260   7
 -10   1  -5 561.065 413.405   4
  10  -1   5 791.344 420.836   7
  10  -1  -5 219.668 408.273   7
 -10  -1   5 609.615 409.671   4
  10   1   5 1181.88 420.691   6
  10  -1   5 858.859 416.771   6
 -10   1   5 526.285 410.125   4
  10   1  -5 514.538 411.031   6
  10  -1  -6 13.8020 44.7873   6
  10   1   6 29.9639 83.5469   7
 -10   1  -6 31.4890 75.9611   4
  10  -1   6 43.6202 86.1070   7
  10   1  -6 51.5536 91.1388   7
  10  -1  -6-41.2784 89.2067   7
 -10  -1   6 41.9244 67.5592   4
  10   1   6-12.7541 65.5280   6
  10  -1   6 25.5257 67.9728   6
 -10   1   6-11.4699 60.2267   4
 -10  -1  -6 17.4470 308.406   1
 -10   1  -6-103.534 333.929   1
  10   1  -6 26.3008 56.5230   6
  10   1  -7 196.908 376.993   6
 -10   1  -7 488.923 514.181   1
  10  -1  -7 27.7011 372.041   6
  10   1  -7 1479.11 405.829   7
  10   1   7 799.325 394.165   7
  10  -1  -7 13.8068 379.021   7
 -10   1  -7 774.770 388.510   4
  10  -1   7 785.301 393.293   7
  10   1   7 1177.64 393.997   6
  10  -1   7 1264.98 396.473   6
 -10  -1  -7 531.468 489.285   1
 -10  -1   7 558.019 382.310   4
 -10   1   7 311.565 377.739   4
 -10   1   8-11.5966 43.1297   4
  10   1  -8-13.1211 55.2932   6
  10   1   8 93.6768 84.8836   7
 -10   1  -8 10.4402 74.7401   4
  10  -1   8 15.0012 85.5388   7
 -10   1  -8-158.940 343.802   1
  10   1  -8-12.8547 78.6630   7
  10  -1  -8 27.9633 89.9378   7
  10   1   8-13.2889 69.8153   6
  10  -1   8-12.9302 62.9018   6
 -10  -1   8 10.7265 60.2589   4
 -10  -1  -8-89.9898 297.203   1
  10   1  -9-13.1289 165.449   6
  10   1  -9 371.515 189.757   7
 -10   1  -9 715.938 397.825   1
 -10  -1  -9 164.643 338.792   1
  10   1   9 254.106 187.590   7
 -10   1  -9 253.762 188.179   4
  10  -1   9 307.567 194.538   7
  10  -1  -9 14.0635 179.781   7
  10   1   9 499.616 192.804   6
  10  -1   9 484.647 191.452   6
 -10  -1   9 76.4952 170.393   4
 -10   1 -10 90.6407 362.402   1
  10   1 -10 13.1534 41.2719   6
 -10  -1 -10 260.415 316.436   1
  10   1  10 48.4442 81.6943   7
  10  -1  10-46.7738 90.1994   7
  10   1 -10 12.8339 81.5335   7
  10  -1 -10-14.1589 78.2160   7
  10   1  10 13.7285 75.8385   6
  10  -1  10-13.2782 61.7937   6
 -10   1 -10-10.7162 80.2720   4
 -10  -1  10-21.9529 53.3538   4
 -10  -1  11 11.0137 42.4283   4
   1 -10  11-33.8459 91.1247   5
  -1 -10  11 16.6868 94.3367   5
  10   1  11-16.4234 71.9245   7
 -10   1 -11-10.7723 82.1806   4
  10   1 -11-12.8732 82.5628   7
  10   1  11-14.1912 74.0331   6
  10  -1  11-15.9837 86.1479   7
  10  -1  11-40.3895 85.2366   6
 -10  -1 -12-192.534 295.951   1
   1 -10  12-52.0208 94.3008   5
  -1 -10  12 17.1089 75.9995   5
  -1 -10  12-33.9672 77.3031   8
  10   1  12-33.4729 76.1807   7
 -10   1 -12-10.9320 86.1658   4
  10  -1  12 48.6769 89.7047   7
  10   1 -12-64.6241 88.9169   7
  10   1  12 43.3144 78.5443   6
  10  -1  12 13.6645 77.9651   6
   1  10 -12 26.1152 43.1215   2
   1 -10  13-71.1091 94.9909   5
  -1 -10  13-35.1031 98.5157   5
  -1 -10  13-17.4304 75.3924   8
  10  -1  13-16.4794 89.5624   7
  10   1 -13-26.5655 87.4259   7
  10   1  13-14.6928 79.8549   6
  10  -1  13 41.6332 77.8990   6
 -10  -1 -13 78.3851 304.323   1
   1  10 -13 53.6036 51.5112   2
   1  10 -14 27.5135 47.3245   2
   1 -10  14-36.2699 107.974   5
  -1 -10  14-17.9167 97.3843   5
 -10   1 -14-308.479 344.848   1
  -1 -10  14-17.8933 92.2682   8
  10  -1  14-50.2768 83.1614   7
  10   1  14 14.9561 75.6899   6
  10  -1  14 14.0965 59.3716   6
 -10   1 -15-176.384 323.997   1
   1 -10  15 37.1983 108.736   5
  -1 -10  15-18.1879 103.276   5
  10  -1  15 17.0377 80.8228   7
  10   1  15 30.4467 80.0339   6
  10  -1  15 42.9880 79.4329   6
 -10   1 -16-139.505 302.681   1
  10  -1  16-34.6992 73.9267   7
  10  -1  16 72.8375 93.2540   6
  -1  10 -17 107.489 89.4170   3
  -1  10 -17 14.9790 64.0997   2
   1  10 -17 14.8366 66.8664   2
   1 -10  17-37.9933 104.933   5
  -1 -10  17 19.3568 106.859   8
  10  -1  17-14.9753 82.1944   6
  -1 -10  18 19.8605 127.427   8
  -1  10 -18 68.8697 80.5082   3
   1  10 -18 13.6530 73.8674   3
   1 -10  18 38.9379 114.037   5
  -1  10 -18 15.3601 65.3210   2
   1  10 -18 30.4483 55.2860   2
  -1 -10  18-19.2859 117.751   5
  10  -1  18 15.2348 89.9258   6
  -1  10 -19 550.505 318.620   3
   1  10 -19 540.431 317.759   3
   1 -10  19 59.8350 319.499   5
  -1 -10  19-39.0163 316.666   5
  -1  10 -19 716.343 319.643   2
   1  10 -19 772.097 320.331   2
  -1 -10  19-40.7340 324.973   8
   1 -10  19 41.0946 328.674   8
  10  -1  19 542.408 318.664   6
  -1  10 -20-28.6157 80.3405   3
   1  10 -20 14.2029 80.9869   3
   1 -10  20 100.761 128.048   5
  -1 -10  20-39.9770 127.008   5
  -1  10 -20-15.9491 61.3363   2
   1  10 -20 47.4855 75.3560   2
  10  -1  20-15.7750 87.1776   6
   1 -10  20 63.1435 138.541   8
  -1 -10  20-20.8719 130.992   8
  -1  10 -21 453.976 264.148   3
   1  10 -21 450.919 266.559   3
   1 -10  21-20.6198 265.904   5
  -1 -10  21-20.4681 270.893   5
   1  10 -21 745.764 270.247   2
   1 -10  21 64.6342 278.375   8
  -1 -10  21-64.1311 277.789   8
  -1  10 -21 685.672 275.480   2
  -1  10 -22-29.9353 82.8333   3
   1  10 -22 14.8718 93.4528   3
   1 -10  22-63.2670 130.762   5
  -1 -10  22 41.8866 123.031   5
   1 -10  22-22.0394 153.145   8
  -1 -10  22-21.8807 145.713   8
  -1  10 -22-16.7008 79.6228   2
   1  10 -22 16.5949 66.0486   2
  -1  10 -23 107.075 105.498   3
   1 -10  23-64.6562 147.698   5
  -1  10 -23 116.177 108.374   2
   1 -10  23-22.5248 161.376   8
  -1 -10  23-22.3755 149.294   8
   1  10 -23 99.0070 97.4743   2
   1  10 -23 182.531 117.358   3
  -1 -10  23 21.4076 130.587   5
   1 -10  24-69.0140 170.800   8
  -1 -10  24 114.324 160.410   8
  -1  10 -24 16.9509 82.3931   2
   1  10 -24 16.8628 81.9649   2
  -1 -10  24 22.2099 134.038   5
  -1  10 -24 15.7284 85.4746   3
   1 -10  24-44.6948 148.735   5
   1  10 -24-62.5966 107.571   3
  -1 -10  25 22.6653 131.666   5
   1  10 -25 31.9472 89.0457   3
   1 -10  25-70.4355 161.828   8
  -1 -10  25 23.3475 167.466   8
  -1  10 -25-17.3000 86.6502   2
   1  10 -25 34.4391 91.1893   2
   1 -10  25 91.1722 134.320   5
  -1  10 -25 16.0509 82.0773   3
  -1 -10  26-118.673 137.347   5
   1 -10  26-23.9360 164.563   8
  -1 -10  26 47.6298 163.731   8
  -1  10 -26 98.1765 93.3166   3
   1  10 -26-48.8759 97.0398   3
  -1  10 -26 35.2752 83.9873   2
   1  10 -26-35.1300 95.5085   2
   1 -10  26 23.2301 145.803   5
   1 -10  27-24.2869 154.446   5
  -1 -10  27 48.3465 135.867   5
   1 -10  27 48.7667 187.505   8
  -1 -10  27-24.2697 168.698   8
  -1  10 -27 103.553 116.318   3
   1  10 -27 17.1924 92.1117   3
  -1  10 -27 35.9357 90.8613   2
   1  10 -27 35.8031 90.5516   2
   1 -10  28-49.4121 174.794   5
  -1 -10  28-73.8341 156.079   5
   1 -10  28-74.4330 204.244   8
  -1 -10  28-123.538 191.222   8
  -1  10 -28 52.6811 113.826   3
   1  10 -28-17.5011 102.276   3
  -1  10 -28-54.8505 118.332   2
   1  10 -28-18.2252 115.163   2
   1 -10  29 126.129 175.213   8
  -1 -10  29 150.797 196.358   8
   1 -10  29-50.2249 138.746   5
  -1 -10  29 51.6199 147.125   5
  -1  10 -29-35.7057 88.6016   3
  -1  10 -29-37.1794 90.3928   2
   1  10 -29 37.0757 104.075   2
   1  10 -29-17.8006 93.4886   3
   1 -10  30 128.135 200.466   8
  -1 -10  30-51.0695 168.362   8
   1 -10  30-52.6280 140.968   5
  -1 -10  30-78.6790 152.072   5
  -1  10 -30-18.8858 103.144   2
   1  10 -30 94.1750 101.158   2
  -1  10 -30 19.0432 89.2146   3
   1  10 -30 19.0014 94.8213   3
  10   2   0 1227.10 474.965   7
 -10   2   0 1066.72 467.312   4
  10  -2   0 578.842 462.173   7
 -10  -2   0 471.370 552.146   1
  10   2   0 998.335 467.870   6
 -10  -2   0 259.780 454.514   4
  10  -2   0 339.009 456.345   6
  10  -2  -1 42.3121 50.6399   6
 -10  -2   1-128.650 327.784   1
 -10  -2  -1-362.233 317.633   1
 -10  -2  -1-9.65241 62.9477   4
 -10  -2   1-28.5433 70.7733   4
  10   2   1-13.9588 75.9788   7
  10   2  -1 13.6295 74.1925   7
  10  -2  -1 41.2791 82.0246   7
 -10   2  -1 33.7699 73.3633   4
 -10   2   1 22.9991 60.5277   4
  10   2   1-12.0326 61.0270   6
  10   2  -1 11.7495 58.4474   6
  10  -2   1 14.1630 62.9910   6
  10  -2  -2-14.0997 166.850   6
 -10  -2  -2 450.679 345.436   1
 -10  -2   2 143.128 346.490   1
  10   2   2 343.517 184.349   7
 -10  -2   2 116.264 173.665   4
  10   2  -2 361.421 190.191   7
  10  -2   2 69.6503 179.857   7
  10  -2  -2 112.457 185.563   7
 -10   2  -2 365.355 185.366   4
  10   2   2 304.661 176.466   6
 -10   2   2 310.463 179.601   4
  10   2  -2 399.437 179.767   6
  10  -2   2 156.396 177.967   6
 -10  -2  -3 287.483 298.347   1
  10  -2  -3-14.1136 58.9621   6
 -10  -2   3-31.4114 328.116   1
  10   2  -3 39.7764 76.6599   7
  10   2   3 58.0615 88.3495   7
 -10  -2   3 9.59990 71.1093   4
  10  -2   3 43.5555 95.1514   7
 -10   2  -3 111.250 86.0548   4
  10   2   3 12.3577 68.5468   6
  10   2  -3 34.9121 62.7586   6
 -10   2   3 46.8588 67.2830   4
  10  -2  -3-14.0696 82.2775   7
  10  -2   3-13.6681 57.2853   6
 -10  -2   4-389.082 325.997   1
  10  -2  -4-56.5722 77.3949   6
  10   2   4 14.8883 92.1483   7
  10   2  -4 263.175 109.863   7
 -10  -2   4 128.610 97.4236   4
  10  -2   4 29.2191 103.972   7
 -10   2  -4 201.435 105.701   4
  10  -2  -4-14.0979 95.4009   7
  10   2   4 12.6740 85.4730   6
 -10  -2  -4-549.342 308.213   1
  10   2  -4 178.608 89.0012   6
 -10   2   4 140.903 89.7663   4
  10  -2   4 82.5162 85.5488   6
  10  -2  -5 14.1898 54.3768   6
  10  -2  -5-14.2555 83.5667   7
  10   2  -5-26.1251 88.9279   7
  10   2   5 38.6059 71.2204   6
  10  -2   5 72.4737 94.1702   7
 -10   2  -5 32.5863 71.9445   4
 -10  -2   5-39.2897 72.2182   4
  10  -2   5 65.5925 61.1514   6
  10   2  -5 37.4452 66.9030   6
 -10   2   5 11.8113 52.8318   4
 -10   2   6 142.398 191.085   4
 -10  -2   6 172.236 199.985   4
  10   2  -6 454.289 215.468   7
  10  -2   6 263.088 218.231   7
 -10   2  -6 427.031 214.916   4
  10  -2  -6 28.6359 203.958   7
  10   2   6 169.957 198.025   6
  10  -2   6 449.714 209.357   6
  10   2  -6 372.105 202.978   6
  10   2   7-27.0145 69.1417   6
 -10  -2  -7-18.0160 290.066   1
  10   2   7 46.8879 71.8379   7
  10  -2   7 29.4747 101.849   7
 -10   2  -7 11.0486 85.5622   4
  10   2  -7 39.3428 94.4159   7
  10  -2  -7 14.3968 83.9525   7
 -10  -2   7-20.5821 69.2991   4
  10  -2   7 13.3488 61.6009   6
  10   2  -7 25.8083 56.7938   6
 -10  -2  -8-164.909 330.108   1
  10   2   8 233.506 188.339   6
  10   2   8 158.934 188.095   7
  10  -2   8 327.565 197.533   7
 -10   2  -8 375.918 192.310   4
 -10   2  -8 370.796 407.526   1
  10   2  -8 640.080 207.260   7
  10  -2  -8 14.6233 186.624   7
 -10  -2   8 133.308 182.092   4
  10  -2   8 261.422 189.506   6
  10   2  -8 167.111 182.214   6
  10   2  -9 38.4641 59.7155   6
 -10   2  -9 107.159 371.272   1
 -10  -2  -9-111.869 271.879   1
  10   2   9-27.9443 74.6913   6
  10   2   9-32.3896 66.2936   7
  10  -2   9-15.1689 100.986   7
 -10   2  -9 10.8573 77.7164   4
  10   2  -9 13.0279 85.7736   7
 -10  -2   9-10.4909 59.8425   4
  10  -2   9-13.2154 61.5475   6
  10   2 -10 12.8043 52.5005   6
  10   2  10 32.9604 68.6952   7
 -10   2 -10-10.9840 83.3272   4
  10  -2  10-46.0533 91.0659   7
  10   2 -10-13.0098 99.1831   7
  10   2  10-28.4367 80.8830   6
  10  -2  10-13.3732 66.3262   6
 -10  -2  10-31.9953 61.2944   4
  10   2 -11-12.8037 49.1709   6
   2 -10  11-17.0609 97.4092   5
  -2 -10  11-16.5861 98.9832   5
  10  -2  11 47.1966 117.130   7
 -10   2 -11 44.4838 103.873   4
  10   2 -11 50.1644 95.6271   7
  10   2  11 14.5770 78.5910   6
  10  -2  11-13.5404 74.5228   6
 -10  -2 -11 309.060 265.461   1
 -10  -2  11-10.6675 58.7911   4
   2 -10  12-17.4757 130.155   5
  -2 -10  12-17.0111 122.456   5
  10  -2  12 63.7686 118.426   7
 -10   2 -12 131.404 128.765   4
  10   2 -12 414.325 134.877   7
  10   2  12 192.926 118.140   6
   2 -10  12 17.3548 107.084   8
  10  -2  12 271.602 123.977   6
   2  10 -12 207.775 107.246   2
  -2  10 -12 119.956 98.1975   2
  -2 -10  12 16.8865 104.639   8
 -10  -2  12-10.7048 92.7306   4
   2 -10  13-17.9103 103.651   5
  -2 -10  13-52.1001 89.5746   5
  -2 -10  13-52.0051 76.9664   8
  10  -2  13 114.393 95.9610   7
 -10   2 -13-22.2052 90.2078   4
   2 -10  13 88.9666 93.4555   8
 -10   2 -13 319.460 420.639   1
  10  -2  13 27.5430 74.8893   6
   2  10 -13-13.3319 41.9216   2
  -2  10 -13-13.6635 50.7995   2
   2  10 -14 355.959 146.278   2
  -2  10 -14 350.337 144.862   2
   2 -10  14-36.5291 151.747   5
  -2 -10  14-17.8265 151.341   5
   2 -10  14-18.2473 150.605   8
  10  -2  14 149.229 156.163   7
 -10   2 -14 38.1424 380.614   1
  -2 -10  14-35.6031 144.938   8
 -10   2 -14 45.0423 147.296   4
  10  -2  14 433.081 155.586   6
   2  10 -15 56.2462 54.2305   2
  -2 -10  15-54.3152 107.876   5
 -10   2 -15-19.3650 357.410   1
  10  -2  15-16.8484 83.7084   7
 -10   2 -15-11.4282 93.6136   4
  10  -2  15 14.1799 80.9500   6
  -2  10 -16 58.7847 82.4961   2
 -10   2 -16 373.651 369.870   1
  10  -2  16 17.1120 85.6217   7
 -10   2 -16-11.6035 99.4626   4
   2 -10  16-19.1931 103.469   8
  10  -2  16 158.400 93.9698   6
  -2  10 -17 121.620 101.195   3
  -2  10 -17 30.1328 80.7660   2
   2  10 -17 44.3483 67.7170   2
   2 -10  17-114.678 131.357   5
   2 -10  17 59.0400 111.947   8
  -2 -10  17 77.0985 113.056   8
  10  -2  17-34.8298 78.0204   7
 -10   2 -17 46.7176 98.5389   4
  10  -2  17 14.6247 91.0649   6
  -2  10 -18-41.5444 88.8700   3
   2  10 -18 13.6083 78.6147   3
  -2  10 -18 123.557 85.9718   2
   2  10 -18 75.8610 73.0216   2
   2 -10  18 39.1625 124.274   5
  -2 -10  18-19.2150 132.018   5
  -2 -10  18-39.5739 140.060   8
  10  -2  18-17.7020 74.7723   7
 -10   2 -18 59.3483 107.613   4
  10  -2  18 29.7280 85.4779   6
   2 -10  18-20.1699 127.927   8
  -2  10 -19-28.3741 85.6427   3
   2  10 -19 13.8163 78.7714   3
   2 -10  19-20.0536 130.483   5
  -2 -10  19 38.8861 114.141   5
  -2  10 -19-15.6528 72.8696   2
   2  10 -19 15.3974 61.1398   2
   2 -10  19-41.3289 139.067   8
  -2 -10  19 20.2983 130.530   8
 -10   2 -19-12.0631 105.721   4
  -2  10 -20 359.468 179.334   3
   2  10 -20 325.805 185.000   3
   2 -10  20-40.5205 192.705   5
  -2 -10  20 19.9282 195.448   5
  -2  10 -20 384.625 180.700   2
   2  10 -20 236.775 174.258   2
   2 -10  20 42.3135 195.150   8
  -2 -10  20-41.6167 192.678   8
  -2  10 -21-32.7986 88.1366   2
  -2  10 -21-44.1384 84.3952   3
   2  10 -21-29.0005 84.4264   3
   2 -10  21-82.8973 128.760   5
  -2 -10  21-40.8199 125.191   5
   2  10 -21 32.3457 66.8425   2
   2 -10  21 43.3080 129.255   8
  -2 -10  21 85.2751 151.351   8
   2 -10  22-22.1393 144.540   8
  -2  10 -22-15.0295 92.1185   3
   2  10 -22 89.0506 95.8227   3
   2 -10  22-169.519 140.408   5
  -2 -10  22 41.7805 125.574   5
   2  10 -22 231.836 112.517   2
  -2 -10  22-21.8247 134.175   8
  -2  10 -22 184.484 100.876   2
  -2  10 -23-46.0774 102.305   3
   2 -10  23-43.2865 132.433   5
  -2  10 -23 17.1358 74.2202   2
   2  10 -23-16.4712 80.1634   2
   2 -10  23 67.8796 165.015   8
  -2 -10  23-66.9748 155.101   8
  -2 -10  23 21.3622 139.041   5
   2  10 -23 15.1847 85.3216   3
   2 -10  24-44.8713 141.009   5
  -2 -10  24-22.1662 130.399   5
   2 -10  24 46.2047 160.553   8
   2  10 -24 134.680 98.8239   2
  -2  10 -24 47.3667 93.0462   3
  -2 -10  24-22.8200 152.033   8
   2  10 -24 15.6222 86.7555   3
  -2  10 -25 16.1032 90.9371   3
   2 -10  25-45.7536 126.772   5
  -2 -10  25-45.2546 157.469   5
   2  10 -25 15.9531 81.3320   3
   2 -10  25-70.6929 158.884   8
  -2 -10  25-46.6031 157.120   8
   2  10 -25-17.1960 85.8969   2
   2 -10  26-46.6341 143.667   5
  -2 -10  26 47.3811 145.698   5
   2 -10  26-96.0997 180.435   8
  -2 -10  26 23.7743 153.579   8
  -2  10 -26 65.6474 109.495   3
   2  10 -26 50.5584 111.843   3
   2  10 -26 245.643 107.404   2
  -2 -10  27-72.4364 137.953   5
   2 -10  27-48.9197 163.077   8
  -2 -10  27-24.2337 168.579   8
  -2  10 -27 34.6120 89.7375   3
   2  10 -27 34.3590 92.2925   3
   2  10 -27-35.7610 97.6432   2
   2 -10  27-73.0909 145.353   5
   2 -10  28-124.458 215.413   8
   2 -10  28 74.3606 139.297   5
  -2 -10  28-98.7091 203.500   8
  -2 -10  28 24.5776 148.497   5
  -2  10 -28 17.6044 106.482   3
   2  10 -28-17.4924 96.8923   3
   2  10 -28 91.0730 102.477   2
  -2 -10  29-50.2090 167.106   8
   2 -10  29 25.1890 141.398   5
  -2 -10  29-25.7933 142.509   5
  -2  10 -29-17.8936 98.8832   3
   2  10 -29 37.0623 93.7890   2
   2  10 -29 18.6917 96.4013   3
  -2 -10  30-25.5217 168.798   8
   2 -10  30-105.513 146.677   5
  -2 -10  30-26.2026 154.711   5
   2  10 -30 18.8306 98.5178   2
  -2  10 -30-19.0895 108.444   3
   2  10 -30-37.9871 106.254   3
  10  -3   0 28.9368 50.4430   6
  10   3   0-28.1808 85.4562   7
  10   3   0 11.9960 61.2760   6
 -10   3   0 47.1549 66.7036   4
 -10  -3   0-262.760 306.243   1
  10  -3   1 130.277 289.026   6
  10  -3  -1 28.9552 280.700   6
 -10  -3   1 324.273 417.038   1
  10   3   1 1936.13 331.385   7
  10   3  -1 2195.89 335.703   7
  10  -3   1 42.3605 290.185   7
 -10  -3   1 76.0316 288.115   4
  10  -3  -1 43.2937 288.603   7
  10   3   1 1722.07 319.396   6
 -10  -3  -1-16.6677 403.745   1
  10  -3   2 28.9973 76.9703   6
 -10  -3   2 159.975 315.482   1
  10  -3  -2-14.5047 62.1043   6
  10   3   2 88.0130 90.2231   7
 -10  -3   2 37.8713 85.1861   4
  10   3  -2 109.753 100.613   7
 -10  -3  -2-152.340 293.448   1
  10  -3   2-28.2885 102.229   7
  10  -3  -2 29.1430 95.4001   7
  10   3   2 162.332 87.2841   6
 -10   3  -2 165.326 87.6848   4
  10   3  -2 58.4302 75.3948   6
 -10   3   2 84.2263 73.1354   4
  10  -3  -3-29.0945 139.625   6
  10   3   3 268.212 162.429   7
 -10  -3  -3 85.9935 307.185   1
 -10  -3   3-126.376 343.389   1
 -10  -3   3 46.7852 150.730   4
  10   3  -3 227.714 162.986   7
  10  -3   3 71.2071 167.286   7
  10  -3  -3 14.6131 152.642   7
 -10   3  -3 415.641 165.646   4
  10   3   3 228.306 154.962   6
  10   3  -3 519.574 163.656   6
 -10   3   3 338.758 151.549   4
  10  -3   3 130.846 154.472   6
 -10   3   4 133.648 83.8384   4
 -10  -3  -4 279.725 290.876   1
  10   3   4 121.269 99.2887   7
  10   3  -4 185.404 114.573   7
 -10  -3   4-28.5675 99.3403   4
  10  -3   4 28.5967 112.387   7
  10  -3  -4-14.6713 104.735   7
 -10   3  -4 173.818 109.728   4
  10   3   4 144.116 101.138   6
 -10  -3   4 187.568 330.262   1
  10   3  -4 149.988 97.3690   6
  10  -3   4 14.5948 96.0170   6
 -10  -3   5-15.4623 328.687   1
 -10  -3  -5-17.7800 262.269   1
  10   3   5 15.4136 70.1816   7
  10   3  -5-26.2167 89.2409   7
 -10  -3   5-18.8541 70.0940   4
  10  -3   5 29.8032 92.4071   7
  10  -3  -5 14.8784 79.5833   7
 -10   3  -5 11.4115 82.5111   4
  10   3   5 39.9628 68.7784   6
  10   3  -5-11.7816 54.9575   6
  10  -3   5 14.6674 60.1199   6
 -10  -3   6 964.361 411.518   1
  10   3  -6 476.893 244.800   7
  10  -3   6 134.944 238.435   7
 -10  -3   6 194.159 232.411   4
 -10   3  -6 355.818 240.768   4
  10   3   6 352.289 238.944   6
  10   3  -6 455.312 236.194   6
  10  -3   6 225.857 236.156   6
  10   3  -7 63.9082 97.3810   7
  10  -3   7 14.8731 93.2468   7
 -10  -3   7 19.9831 78.9916   4
 -10   3  -7 69.3419 85.6941   4
  10   3   7 13.8871 60.6273   6
  10   3  -7 85.5751 67.8997   6
  10  -3   7 14.2160 69.3968   6
 -10  -3   7-242.203 337.447   1
  10   3   8 16.2637 74.2288   7
 -10  -3   8 150.175 319.972   1
  10   3  -8-25.3782 91.0154   7
  10  -3   8-44.9839 94.3131   7
 -10  -3   8-29.7689 71.2897   4
  10   3   8 28.2678 71.7972   6
 -10   3  -8 11.6482 85.9526   4
  10  -3   8-14.3310 68.4977   6
  10   3  -8-12.1374 55.5644   6
 -10  -3  -8 299.807 248.116   1
  10  -3   9-15.1159 100.619   7
  10   3  -9 75.7515 90.3431   7
 -10   3  -9-22.6490 84.8439   4
 -10  -3   9-20.1348 69.9395   4
  10   3   9 14.3886 72.8118   6
 -10  -3  -9-324.320 231.049   1
  10  -3   9 13.6949 65.1854   6
 -10  -3   9 14.9106 347.256   1
  10   3  -9-12.6123 48.4941   6
  10   3 -10 12.5508 58.2952   6
  10  -3  10-61.0726 114.986   7
  10   3 -10 12.5631 97.2822   7
 -10   3 -10 68.6125 93.6296   4
 -10  -3  10-51.3809 73.0718   4
  10  -3  10-27.6621 66.8813   6
  10   3 -11-12.5007 130.076   6
  -3 -10  11 49.4915 144.784   5
  10  -3  11 46.6527 158.698   7
 -10   3 -11 323.577 160.302   4
 -10  -3  11-10.2384 132.308   4
  10  -3  11 391.385 154.913   6
   3 -10  12-35.2517 87.9170   5
  -3 -10  12 16.9256 90.8954   5
  10  -3  12 78.6503 110.735   7
 -10   3 -12 112.482 96.4382   4
  10  -3  12 42.4225 84.6770   6
   3  10 -12-12.9244 41.5748   2
  -3  10 -12-13.4398 50.7290   2
   3 -10  13-36.1149 301.341   5
  -3 -10  13-17.2854 301.602   5
 -10   3 -13-149.789 512.128   1
  -3 -10  13-17.2522 295.163   8
  10  -3  13 193.403 309.754   7
   3 -10  13-17.9419 299.046   8
 -10   3 -13 842.311 315.817   4
   3  10 -13 703.435 306.483   2
  -3  10 -13 867.710 310.073   2
  10  -3  13 1248.42 325.002   6
   3  10 -14 68.1728 53.9797   2
   3 -10  14 18.4086 108.136   5
  -3 -10  14-53.2482 107.312   5
  10  -3  14 32.6532 101.600   7
 -10   3 -14 34.5803 88.3559   4
  -3 -10  14-35.4459 76.9238   8
  10  -3  14 28.1064 73.5280   6
  -3 -10  15-254.899 239.989   8
  -3 -10  15-18.0333 234.786   5
 -10   3 -15 513.950 243.628   4
 -10   3 -15-480.357 449.611   1
   3  10 -15 952.609 250.428   2
  10  -3  15 16.7272 232.506   7
  10  -3  15 640.964 248.390   6
  -3  10 -16 29.5927 62.1838   2
   3 -10  16-19.3333 100.684   8
 -10   3 -16 19.4942 371.801   1
  10  -3  16-33.9306 99.1764   7
 -10   3 -16 35.5327 97.2380   4
  10  -3  16 57.7619 81.0332   6
  -3  10 -17 54.4045 95.0048   3
  -3  10 -17 166.820 96.2405   2
   3  10 -17 73.6824 84.6954   2
   3 -10  17 38.4885 118.895   5
  -3 -10  17-19.2105 121.744   8
   3 -10  17-39.6324 136.766   8
 -10   3 -17 36.0374 110.776   4
  10  -3  17 219.786 111.369   6
  10  -3  17 34.4576 103.207   7
  -3  10 -18 13.9342 88.8133   3
   3  10 -18 54.2875 84.3978   3
  -3  10 -18 15.5381 69.3172   2
   3  10 -18-15.1319 73.8995   2
   3 -10  18-19.7094 126.932   5
  -3 -10  18-19.1524 126.250   5
  -3 -10  18 78.8873 137.157   8
 -10   3 -18-35.5458 105.391   4
   3 -10  18 40.6063 161.310   8
  -3  10 -19-99.8886 87.6963   3
   3  10 -19-27.5681 76.8022   3
  -3  10 -19-15.7428 66.1675   2
   3 -10  19-79.6607 122.147   5
   3  10 -19-15.3589 71.5465   2
  -3 -10  19-19.3900 125.093   5
   3 -10  19-62.3802 141.606   8
  -3 -10  19 141.668 133.459   8
  -3  10 -20 72.2886 82.0468   3
   3  10 -20 70.6703 87.3450   3
   3 -10  20-81.5181 132.378   5
  -3  10 -20 32.2312 77.3145   2
  -3 -10  20-19.8806 123.033   5
   3  10 -20 47.2617 68.9254   2
   3 -10  20-21.2871 134.889   8
  -3 -10  20-20.7536 149.665   8
  -3  10 -21 59.1574 96.6729   3
   3  10 -21 28.9452 85.4629   3
   3 -10  21 20.8402 119.146   5
  -3 -10  21-20.3662 118.193   5
  -3  10 -21 16.4860 82.3168   2
   3  10 -21 32.2928 82.2190   2
   3 -10  21-87.1007 136.957   8
  -3 -10  21-42.5387 130.420   8
   3  10 -22 132.283 92.5756   2
  -3  10 -22 33.7103 93.8161   2
  -3  10 -22 60.4097 98.0260   3
   3 -10  22 63.8896 143.202   5
   3  10 -22 133.395 116.951   3
  -3 -10  22 62.5445 140.580   5
   3 -10  22 22.2625 147.227   8
  -3 -10  22-21.7839 149.224   8
  -3  10 -23 189.376 116.395   2
   3  10 -23 50.7617 94.3589   2
  -3  10 -23 30.8600 97.4520   3
   3 -10  23 21.7519 137.813   5
  -3 -10  23 21.6581 142.216   5
   3  10 -23 15.2687 103.456   3
   3 -10  23 90.9611 160.398   8
  -3 -10  23-89.1442 173.606   8
  -3  10 -24-15.8566 84.7262   3
  -3 -10  24-44.2682 148.988   5
  -3  10 -24 34.1745 79.0202   2
  -3 -10  24 45.5737 169.137   8
   3  10 -24 67.2808 83.0747   2
   3 -10  24-116.057 170.687   8
   3 -10  24 45.0827 139.650   5
   3  10 -24 124.884 103.974   3
   3 -10  25 22.9786 206.420   5
  -3 -10  25 22.6011 209.949   5
  -3  10 -25 129.350 188.411   3
   3 -10  25 23.6767 224.180   8
  -3 -10  25-23.2745 221.147   8
   3  10 -25 239.108 203.678   3
  -3  10 -25 540.330 208.140   2
   3  10 -25 584.159 205.546   2
   3 -10  26-93.6599 151.049   5
  -3 -10  26 47.3381 131.273   5
   3 -10  26 72.3751 160.925   8
  -3 -10  26 94.9967 165.343   8
  -3  10 -26-49.4209 93.2898   3
  -3  10 -26 88.8003 95.2472   2
   3  10 -26 117.909 107.615   3
   3  10 -26 52.5985 83.9247   2
   3 -10  27-97.8363 230.296   5
  -3 -10  27-96.5034 227.513   5
   3 -10  27-98.2571 246.943   8
  -3 -10  27-48.4363 239.054   8
  -3  10 -27 225.765 201.945   3
  -3  10 -27 651.016 224.999   2
   3  10 -27 983.399 228.004   2
   3  10 -27 34.3449 186.206   3
   3 -10  28-74.6347 133.969   5
   3 -10  28-124.913 192.721   8
  -3 -10  28-24.6637 177.246   8
  -3 -10  28-24.5636 134.527   5
  -3  10 -28 36.7836 92.7569   2
  -3  10 -28-35.3243 106.462   3
   3  10 -28-18.2101 95.3574   2
   3  10 -28-17.4897 91.7034   3
   3 -10  29 25.3882 199.519   8
  -3 -10  29-100.386 194.570   8
   3 -10  29-50.5316 169.784   5
  -3 -10  29 180.466 181.455   5
  -3  10 -29 186.914 140.441   2
   3  10 -29 277.962 153.595   2
  -3  10 -29 233.318 152.657   3
   3  10 -29 56.0785 144.073   3
  -3 -10  30-76.5323 166.067   8
   3 -10  30-26.4630 168.209   5
  -3 -10  30-104.785 151.653   5
   3  10 -30 94.1725 102.506   2
  -3  10 -30 19.1352 91.2228   3
   3  10 -30 18.9994 90.5781   3
  10  -4   0-14.8913 450.549   6
 -10  -4   0-16.7240 531.636   1
 -10   4   0 2932.05 491.040   4
  10  -4   0-29.9160 455.193   7
  10   4   0 2749.23 488.920   6
  10  -4   1-14.8697 167.058   6
  10  -4  -1-14.9291 164.474   6
 -10  -4  -1 221.001 325.275   1
  10   4  -1 370.652 188.412   7
 -10  -4   1-16.4602 327.372   1
  10  -4   1 44.4590 177.668   7
  10   4   1 394.712 188.440   6
  10   4  -1 327.668 183.983   6
  10   4   1 324.117 185.121   7
 -10   4  -1 554.488 186.312   4
 -10   4   1 297.731 179.624   4
  10  -4   2 14.8636 518.445   6
 -10  -4  -2-207.456 579.525   1
  10   4   2 1422.83 537.533   7
  10   4  -2 1306.01 538.774   7
 -10   4  -2 1564.00 536.185   4
 -10   4   2 1070.94 528.928   4
 -10  -4   2 226.889 604.337   1
  10  -4   2 88.8906 522.777   7
  10   4   2 932.054 530.235   6
  10   4  -2 827.998 527.661   6
  10  -4   3-14.8737 128.489   6
 -10  -4  -3-17.5859 288.552   1
  10   4   3 517.962 164.631   7
  10   4  -3 373.752 157.964   7
  10  -4   3 43.5213 152.515   7
  10   4   3 329.168 154.310   6
 -10  -4   3 303.400 333.769   1
  10   4  -3 338.146 151.871   6
 -10  -4   3-46.8606 142.784   4
 -10   4  -3 302.699 149.718   4
  10  -4   4-14.9007 91.6532   6
 -10  -4  -4-143.171 258.442   1
  10   4   4 77.6255 95.8786   7
  10   4  -4 175.591 115.346   7
 -10  -4   4-9.32784 102.094   4
  10  -4   4 14.5357 116.739   7
  10   4   4 161.930 108.052   6
  10   4  -4 218.633 103.975   6
 -10   4  -4 194.027 107.857   4
 -10  -4   4 125.954 344.786   1
  10  -4   5 44.8288 330.424   6
 -10  -4  -5 145.730 393.251   1
 -10  -4   5-46.6564 449.662   1
  10   4   5 663.650 345.095   7
 -10   4  -5 1264.50 352.947   4
  10   4  -5 826.693 346.799   7
 -10  -4   5 55.2675 330.942   4
  10  -4   5 117.089 335.825   7
  10   4  -5 1113.01 347.817   6
  10   4   5 466.935 339.282   6
 -10  -4   6-30.7053 315.868   1
  10   4  -6-13.1700 77.3471   7
 -10  -4   6-18.7267 71.4043   4
  10  -4   6-44.0854 103.127   7
  10   4   6-13.9796 66.5688   6
 -10   4  -6 35.7042 77.4739   4
  10   4  -6 22.6709 61.6547   6
 -10  -4  -6 278.188 227.612   1
  10  -4   6 45.0039 66.6123   6
 -10  -4   7 318.527 369.248   1
  10   4  -7 527.536 216.966   7
 -10  -4   7 38.4807 203.132   4
  10  -4   7 76.5774 211.678   7
 -10   4  -7 573.997 219.432   4
  10   4  -7 462.512 210.140   6
  10  -4   7 120.606 199.538   6
  10   4  -8 12.7276 80.3388   7
  10  -4   8 30.8175 107.022   7
 -10  -4   8-9.52234 79.9634   4
 -10   4  -8-12.0279 80.6308   4
  10   4  -8 68.6484 67.9458   6
  10  -4   8 15.1654 73.7730   6
  10   4  -9 189.077 152.968   7
  10  -4   9 30.5663 153.255   7
 -10  -4   9 29.3633 136.311   4
 -10   4  -9 332.214 153.417   4
 -10  -4   9-133.770 369.916   1
  10   4  -9 203.406 135.536   6
  10  -4   9 219.111 138.464   6
 -10   4 -10-290.552 493.324   1
  10   4 -10 549.662 255.407   7
  10  -4  10 107.825 251.302   7
 -10   4 -10 514.108 260.102   4
  10  -4  10 412.251 252.385   6
  10   4 -10 173.559 242.241   6
  10  -4  11 46.5737 166.994   7
  -4 -10  11 16.4159 159.000   5
 -10   4 -11 409.943 168.599   4
  10  -4  11 296.997 164.007   6
   4 -10  12 71.1578 320.307   5
  -4 -10  12-16.8483 320.834   5
 -10   4 -12 1447.41 546.570   1
 -10   4 -12 1496.79 348.734   4
  10  -4  12 266.457 326.473   7
   4  10 -12 450.462 315.422   2
  -4  10 -12 393.231 313.799   2
  10  -4  12 779.685 334.682   6
   4 -10  13-54.3780 135.615   5
  -4 -10  13 51.6384 145.357   5
  -4 -10  13 17.1778 118.807   8
   4 -10  13-36.2081 125.665   8
  10  -4  13 239.346 160.209   7
 -10   4 -13 308.138 152.805   4
 -10   4 -13-356.407 437.529   1
  10  -4  13 315.636 142.672   6
   4  10 -13 224.772 125.666   2
  -4  10 -13 208.396 121.694   2
  -4 -10  14 17.6533 366.346   8
   4 -10  14 18.5671 370.499   5
  -4 -10  14-53.0445 368.468   5
   4  10 -14 1059.86 379.398   2
  10  -4  14 274.313 390.020   7
 -10   4 -14 1317.56 392.113   4
  10  -4  14 1523.20 404.481   6
 -10   4 -14 1345.62 571.379   1
   4  10 -15 237.429 119.791   2
 -10   4 -15 210.711 431.201   1
  -4 -10  15-53.9061 142.650   5
  -4 -10  15 36.2851 127.929   8
  10  -4  15 16.5241 139.070   7
 -10   4 -15 193.876 146.468   4
  10  -4  15 220.171 129.029   6
  -4  10 -16 492.033 273.962   2
   4  10 -16 513.624 273.606   3
   4 -10  16-19.2795 273.501   5
   4 -10  16 19.4883 269.178   8
  10  -4  16-16.9078 264.501   7
 -10   4 -16 686.744 283.328   4
 -10   4 -16 407.533 503.636   1
  10  -4  16 772.601 280.851   6
  -4  10 -17 13.6991 80.6080   3
  -4  10 -17-15.2766 69.6874   2
   4 -10  17-38.7740 113.935   5
   4 -10  17-19.9679 117.341   8
 -10   4 -17 12.4194 103.248   4
  -4 -10  17-19.1571 118.832   8
  -4  10 -18 42.0881 88.3141   3
   4  10 -18-27.0952 77.5347   3
  -4  10 -18 46.9410 79.4708   2
   4  10 -18 30.2013 63.9530   2
   4 -10  18-99.2664 121.627   5
  -4 -10  18 75.4480 131.186   5
  -4 -10  18 39.3488 123.655   8
   4 -10  18-61.3568 140.761   8
  -4  10 -19 114.913 119.611   3
   4  10 -19 96.3323 98.6302   3
  -4  10 -19 112.145 100.062   2
   4  10 -19 260.654 115.916   2
   4 -10  19-40.1090 133.435   5
  -4 -10  19-19.3514 131.221   5
   4 -10  19 62.8167 152.871   8
  -4 -10  19-40.3866 138.570   8
  -4  10 -20 29.0901 82.9590   3
   4  10 -20 56.4648 81.7255   3
  -4  10 -20-16.2144 64.4260   2
   4 -10  20-20.5104 118.697   5
   4  10 -20-15.7293 69.8629   2
  -4 -10  20-59.5410 121.425   5
   4 -10  20-64.2892 129.366   8
  -4 -10  20-62.1565 125.077   8
  -4  10 -21 312.360 154.995   3
   4 -10  21 41.9353 154.036   5
   4  10 -21 130.104 144.453   3
  -4  10 -21 132.689 136.567   2
   4  10 -21 419.292 144.311   2
  -4 -10  21-20.3358 158.250   5
   4 -10  21-43.8279 164.951   8
  -4 -10  21-42.4824 167.459   8
  -4  10 -22 15.1884 92.3867   3
   4 -10  22 21.4263 124.491   5
  -4  10 -22 16.9466 72.2633   2
   4  10 -22-44.4282 82.6193   3
  -4 -10  22 41.6460 121.017   5
   4  10 -22 16.5199 82.7612   2
   4 -10  22 67.1767 149.479   8
  -4 -10  22 108.764 146.831   8
  -4  10 -23 62.0311 135.843   3
  -4 -10  23-64.9196 159.972   5
  -4  10 -23 225.036 145.795   2
   4  10 -23 167.869 135.641   3
   4 -10  23 45.7416 179.200   8
  -4 -10  23-44.5307 196.817   8
   4  10 -23 439.665 153.401   2
   4 -10  23 65.6118 169.594   5
   4 -10  24-22.6590 156.910   5
  -4  10 -24 127.467 132.999   3
  -4 -10  24 132.696 167.821   5
   4  10 -24 78.0208 129.656   3
   4  10 -24 302.661 131.928   2
   4 -10  24 23.3396 187.855   8
  -4 -10  24 45.5359 174.340   8
  -4  10 -24 158.974 132.150   2
   4 -10  25-46.1962 157.041   5
  -4 -10  25 46.3948 148.918   5
   4 -10  25-23.7922 180.283   8
  -4 -10  25 116.312 173.950   8
   4  10 -25 257.659 126.179   2
   4  10 -25 95.6482 117.306   3
  -4  10 -25 64.9857 118.617   3
  -4  10 -25 175.097 122.928   2
  -4 -10  26 47.3270 284.214   5
   4 -10  26 48.4874 300.507   8
  -4 -10  26 47.4862 298.691   8
  -4  10 -26 347.518 284.030   3
  -4  10 -26 552.919 287.737   2
   4  10 -26 736.549 289.259   2
   4  10 -26 522.244 282.160   3
   4 -10  26 94.0932 287.671   5
   4 -10  27 196.591 287.765   5
   4 -10  27 468.751 329.158   8
  -4 -10  27 96.8763 288.435   8
  -4 -10  27 48.2531 257.327   5
  -4  10 -27 363.137 254.423   2
  -4  10 -27 278.961 231.309   3
   4  10 -27 536.574 250.231   2
   4  10 -27 137.434 223.145   3
   4 -10  28 50.1870 236.394   8
   4 -10  28 149.883 206.555   5
  -4 -10  28 24.6709 224.741   8
  -4 -10  28 50.6992 217.069   5
  -4  10 -28 221.534 192.329   2
   4  10 -28 510.179 203.634   2
  -4  10 -28 407.849 200.130   3
   4  10 -28 18.3843 173.782   3
   4 -10  29 152.967 175.824   8
  -4 -10  29 125.550 185.360   8
   4 -10  29-25.3725 151.732   5
  -4 -10  29 51.5898 156.276   5
  -4  10 -29 93.7806 110.775   2
   4  10 -29-55.6382 104.885   2
  -4  10 -29 18.0082 93.9367   3
   4  10 -29 74.8392 105.740   3
  -4 -10  30 255.265 202.330   8
  -4 -10  30-78.6348 163.920   5
   4  10 -30 18.8547 92.2993   2
   4  10 -30 76.0729 103.843   3
 -10   5   0 344.967 259.755   4
 -10  -5   0 119.900 352.685   1
  10   5   0 653.529 271.680   7
  10  -5   0 15.4503 261.825   7
  10   5   0 461.460 267.510   6
 -10  -5  -1-470.651 550.096   1
 -10  -5   1 67.3411 547.643   1
  10   5   1 891.712 500.152   7
  10   5  -1 932.875 501.497   7
 -10   5  -1 1069.73 501.709   4
  10  -5   1 46.2137 489.476   7
  10   5   1 886.923 500.091   6
  10   5  -1 919.750 500.076   6
  10  -5   2 15.3059 253.242   6
 -10  -5   2 148.973 373.030   1
  10   5  -2 544.721 270.572   7
  10  -5   2 15.3724 264.065   7
  10   5   2 548.248 272.821   6
  10   5  -2 621.704 271.740   6
 -10  -5  -2-70.9792 340.907   1
 -10   5  -2 711.498 272.987   4
  10  -5   3-15.2882 173.609   6
  10   5  -3 408.998 193.477   7
 -10  -5   3-390.660 328.890   1
  10  -5   3 30.4713 190.509   7
  10   5   3 340.280 193.190   6
  10   5  -3 347.824 194.662   6
 -10  -5  -3-36.1334 273.402   1
 -10   5  -3 468.381 190.262   4
  10  -5   4-15.2863 323.031   6
 -10  -5   4-80.0848 422.569   1
  10   5  -4 916.019 347.865   7
  10  -5   4 15.2353 332.763   7
  10   5  -4 945.941 342.176   6
 -10   5  -4 911.210 340.706   4
  10  -5   5 30.6005 60.0581   6
  10   5  -5 13.6517 68.8242   7
 -10  -5   5-9.24919 75.5529   4
  10  -5   5 29.8441 88.4412   7
  10   5  -5 11.4985 59.4498   6
 -10   5  -5 25.3283 67.6081   4
  10  -5   6 45.9902 327.516   6
 -10   5  -6 1408.68 354.397   4
  10   5  -6 995.204 351.585   7
 -10  -5   6 9.19541 331.191   4
 -10  -5   6 155.231 431.939   1
  10  -5   6 59.8084 336.230   7
  10   5  -6 1257.88 348.891   6
  10  -5   7 30.7498 82.0261   6
  10   5  -7 66.2828 100.784   7
 -10  -5   7 37.3125 96.5362   4
 -10  -5   7-30.5876 305.010   1
  10  -5   7 30.1150 110.296   7
 -10   5  -7 62.5025 95.3048   4
  10   5  -7 225.742 94.2401   6
  10  -5   8 108.049 312.275   6
  10   5  -8 1006.49 334.113   7
 -10  -5   8 18.4077 313.516   4
  10  -5   8 60.4758 319.056   7
  10   5  -8 1057.64 329.163   6
 -10  -5   8 437.087 488.452   1
 -10   5  -8 853.248 330.408   4
  10   5  -9 12.7606 80.8498   7
  10  -5   9-15.7563 95.7456   7
 -10   5  -9 25.2103 84.6375   4
  10   5  -9 56.6722 64.5913   6
  10  -5   9-15.5112 68.0084   6
  -5 -10  10-15.9319 155.373   5
  10  -5  10 47.5465 176.773   7
  10  -5  10 78.0007 155.349   6
  -5 -10  11 32.6877 134.189   5
  10  -5  11 47.1428 153.515   7
 -10   5 -11 435.523 153.845   4
  10  -5  11 94.2412 132.228   6
  -5  10 -12 136.918 120.907   2
   5 -10  12 17.9649 140.977   5
  -5 -10  12 50.0817 144.562   5
  10  -5  12 63.3551 150.520   7
 -10   5 -12-74.6157 426.465   1
 -10   5 -12 451.233 159.764   4
  10  -5  12 205.728 143.752   6
   5 -10  13 54.8972 207.106   5
  -5 -10  13-17.1507 203.889   5
   5 -10  13-18.2805 193.077   8
 -10   5 -13 188.623 469.874   1
  10  -5  13-15.9520 200.078   7
   5  10 -13 382.131 195.805   2
  10  -5  13 478.721 211.657   6
  -5 -10  14-17.4358 165.659   5
  10  -5  14 97.3360 169.075   7
 -10   5 -14 312.330 166.989   4
  -5 -10  14 52.7788 151.881   8
  10  -5  14 246.475 156.882   6
 -10   5 -14 514.303 453.831   1
   5  10 -14 284.494 149.232   2
   5  10 -15 487.509 205.164   2
  -5  10 -15 235.476 202.552   2
   5  10 -15 323.973 202.925   3
  -5 -10  15-17.9186 209.731   5
  -5 -10  15 18.0900 197.600   8
 -10   5 -15-115.309 475.748   1
   5 -10  15 38.3709 207.534   8
  10  -5  15 32.7756 212.956   7
 -10   5 -15 567.564 218.635   4
  10  -5  15 466.638 212.861   6
  -5  10 -16 90.4662 111.266   2
  -5  10 -16 310.012 133.688   3
   5  10 -16 192.137 115.411   3
   5 -10  16-58.3321 163.496   5
  -5 -10  16-54.2478 152.549   5
   5 -10  16-39.3182 127.130   8
  -5  10 -17 46.1921 69.7524   2
  -5  10 -17 41.4194 83.3838   3
   5 -10  17-39.0987 112.305   5
   5 -10  17-20.1322 150.133   8
  -5  10 -18 56.5377 110.227   3
  -5  10 -18 189.189 116.332   2
   5  10 -18 165.845 109.946   2
   5  10 -18 227.582 122.740   3
   5 -10  18 20.0093 126.133   5
  -5 -10  18-37.6484 139.567   5
   5 -10  18-20.6181 136.777   8
  -5 -10  18-19.6382 134.710   8
   5 -10  19-21.1017 122.532   8
  -5  10 -19-14.3173 83.4975   3
  -5  10 -19-16.1349 72.3651   2
   5  10 -19-15.4840 66.0266   2
   5  10 -19-13.7470 83.6318   3
   5 -10  19-20.2034 130.333   5
  -5 -10  19-57.9724 117.097   5
  -5 -10  19 40.3349 123.795   8
  -5  10 -20 278.317 167.381   3
  -5  10 -20 342.943 163.368   2
   5  10 -20 377.277 166.926   2
   5  10 -20 140.948 164.741   3
   5 -10  20-20.6633 175.780   5
  -5 -10  20 39.6428 180.087   5
   5 -10  20 21.5851 175.683   8
  -5 -10  20-41.3821 178.272   8
  -5  10 -21 74.8680 100.516   3
  -5  10 -21 33.3878 73.3764   2
   5  10 -21 32.2386 76.1497   2
   5 -10  21 42.2375 113.594   5
   5  10 -21-43.3625 82.1755   3
  -5 -10  21-40.6325 123.307   5
  -5 -10  21 42.4408 137.072   8
   5 -10  21 44.1311 135.588   8
  -5  10 -22 290.342 234.149   3
  -5  10 -22 630.984 251.842   2
   5 -10  22 64.6977 247.349   5
   5  10 -22 445.985 232.464   2
  -5 -10  22-42.2697 241.293   5
   5 -10  22 157.808 268.273   8
  -5 -10  22 86.9541 264.317   8
   5  10 -22 340.535 239.771   3
  -5  10 -23 15.6024 96.2792   3
   5 -10  23 44.0254 129.839   5
   5  10 -23 16.9101 77.9422   2
   5  10 -23 106.836 95.4277   3
   5 -10  23 46.0307 146.772   8
  -5 -10  23-22.2584 162.785   8
  -5  10 -23-34.8253 90.6768   2
  -5 -10  23-43.2669 134.650   5
   5 -10  24-45.6014 188.947   5
  -5  10 -24 301.968 179.307   2
  -5  10 -24 368.455 180.207   3
   5  10 -24 484.352 186.499   2
  -5 -10  24-66.3490 208.470   5
   5 -10  24-23.4782 208.999   8
  -5 -10  24-22.7677 205.645   8
   5  10 -24 202.934 173.043   3
   5 -10  25 23.2287 166.396   5
  -5  10 -25 217.255 148.204   2
  -5  10 -25 81.6614 146.543   3
   5 -10  25 47.8683 198.371   8
   5  10 -25 395.310 161.996   2
  -5 -10  25-116.349 205.265   8
   5  10 -25 280.754 164.472   3
  -5 -10  25 23.1931 180.017   5
   5 -10  26 23.6480 198.630   5
   5 -10  26 97.4959 225.622   8
  -5  10 -26 197.193 164.127   2
  -5 -10  26 23.7577 204.699   8
  -5 -10  26 47.3459 202.879   5
   5  10 -26 263.233 163.562   2
  -5  10 -26 199.579 160.786   3
   5  10 -26 269.813 162.573   3
   5 -10  27 98.8012 234.696   5
   5 -10  27-74.4109 259.606   8
  -5 -10  27-48.4563 248.363   8
  -5  10 -27 565.519 224.471   2
  -5 -10  27 48.2862 223.594   5
   5  10 -27 483.381 222.878   2
  -5  10 -27 122.670 212.051   3
   5  10 -27 378.301 216.280   3
   5 -10  28-25.2133 196.944   8
  -5 -10  28 74.0605 185.866   8
   5 -10  28 75.3021 181.487   5
  -5  10 -28 166.893 144.692   2
  -5 -10  28-25.3743 175.876   5
   5  10 -28 310.136 150.033   2
  -5  10 -28 53.4384 129.888   3
   5  10 -28 239.237 157.327   3
   5 -10  29-51.2201 184.354   8
  -5 -10  29-50.2533 170.301   8
   5 -10  29-52.5929 148.986   5
  -5  10 -29 75.3510 102.688   2
  -5 -10  29-77.4366 161.223   5
   5  10 -29 185.741 104.607   2
  -5  10 -29-18.0832 93.7233   3
   5  10 -29 18.7334 103.819   3
  -5 -10  30-102.200 171.927   8
  -5 -10  30-104.942 142.568   5
   5  10 -30 37.7680 105.984   2
   5  10 -30 57.1279 98.1708   3
  10   6   0 292.043 221.473   6
  10   6   1 473.275 408.333   6
  10   6  -1 685.963 411.799   6
  10  -6   2 15.8805 108.599   7
  10   6  -2 114.414 90.9173   6
 -10  -6   2 51.0062 240.954   1
 -10   6  -3 1059.88 422.204   4
  10  -6   3-15.8394 412.096   7
  10   6  -3 886.558 420.342   6
 -10  -6   3-333.938 474.034   1
 -10  -6   4-32.8002 241.895   1
  10   6  -4 42.6402 56.4321   7
  10  -6   4-47.0721 88.0786   7
  10   6  -4-12.0685 65.6040   6
 -10   6  -4 26.1202 53.4517   4
 -10  -6   5 32.2239 401.484   1
  10  -6   5-15.7333 306.832   6
  10   6  -5 684.388 327.668   7
  10  -6   5 31.3593 317.280   7
  10   6  -5 1008.04 327.335   6
 -10   6  -5 769.834 324.192   4
  10  -6   6 15.7358 154.741   6
 -10  -6   6-15.8325 300.160   1
  10   6  -6 205.934 169.335   7
  10  -6   6 15.3434 172.841   7
  10   6  -6 530.539 179.101   6
 -10   6  -6 404.484 175.240   4
  10  -6   7 15.7537 216.081   6
 -10  -6   7-46.6849 344.396   1
  10   6  -7 606.336 237.964   7
 -10  -6   7 9.20960 223.094   4
  10  -6   7-46.0877 235.813   7
  10   6  -7 816.832 236.478   6
 -10   6  -7 846.988 243.180   4
  10  -6   8-15.7873 131.917   6
  10   6  -8 185.538 142.703   7
  10  -6   8-15.4576 159.662   7
  10   6  -8 435.035 151.759   6
 -10   6  -8 221.891 148.945   4
  10  -6   9 15.8318 237.762   6
  10  -6   9 31.0064 253.309   7
  10  -6  10 15.8951 67.4412   6
  -6 -10  10 79.3152 85.1935   5
 -10   6 -10 12.9098 83.9753   4
  10  -6  11 15.9700 81.4829   6
   6 -10  11-35.4906 116.067   5
  -6 -10  11-16.2799 103.490   5
  10  -6  11-48.6614 120.565   7
  10  -6  12-16.0587 67.6977   6
   6 -10  12 54.4716 105.641   5
  -6 -10  12-16.6310 100.160   5
  10  -6  12 32.1342 112.776   7
 -10   6 -12 169.450 98.1788   4
  10  -6  13 96.9751 110.236   6
   6 -10  13-55.4516 130.458   5
  -6 -10  13-17.0920 132.735   5
  10  -6  13-16.1687 141.891   7
   6  10 -13 105.112 98.2111   2
 -10   6 -13-171.167 453.804   1
  -6 -10  14-17.3836 123.517   5
  10  -6  14-48.8164 138.637   7
  -6 -10  14-35.0801 92.2585   8
 -10   6 -14 422.616 131.570   4
   6  10 -14 121.598 84.8137   2
 -10   6 -14-76.6849 444.634   1
  10  -6  14 32.5527 86.5662   6
  -6  10 -15 89.1307 150.060   2
   6  10 -15 497.489 168.263   3
   6 -10  15-38.7480 172.444   8
  -6 -10  15-52.6594 182.811   5
  -6 -10  15-36.0834 165.317   8
   6  10 -15 403.033 153.819   2
  -6  10 -16-30.4227 77.8671   2
  -6  10 -16 68.0091 84.3054   3
   6  10 -16 89.5364 87.2714   3
   6 -10  16-39.2434 127.619   5
  -6 -10  16 54.1325 107.641   5
   6 -10  16-39.6792 134.877   8
  -6  10 -17 388.285 179.463   2
  -6  10 -17 222.771 179.335   3
   6 -10  17-19.7245 186.247   5
   6 -10  17 81.2690 190.574   8
  -6  10 -18-15.8952 78.7223   2
   6  10 -18 75.3018 74.7443   2
  -6  10 -18 28.5044 95.0049   3
   6  10 -18 13.3741 85.2702   3
   6 -10  18 20.1793 124.338   5
  -6 -10  18 18.8027 114.476   5
   6 -10  18-20.7940 121.241   8
  -6 -10  18 19.6112 116.098   8
  -6  10 -19 260.192 160.999   2
   6  10 -19 340.417 163.921   2
  -6  10 -19 173.146 160.828   3
   6  10 -19 384.695 176.820   3
   6 -10  19 40.7431 164.495   5
  -6 -10  19-38.6084 173.113   5
   6 -10  19 21.2780 170.156   8
  -6 -10  19 20.1424 168.550   8
  -6  10 -20 166.335 115.782   2
   6  10 -20 317.646 122.438   2
  -6  10 -20 88.5498 127.000   3
   6 -10  20-20.8260 138.878   5
   6  10 -20 84.5540 121.857   3
  -6 -10  20-19.8054 145.295   5
  -6 -10  20-20.6789 149.894   8
   6 -10  20 108.779 151.078   8
  -6  10 -21 386.752 186.562   2
   6  10 -21 531.984 182.390   2
  -6  10 -21 120.555 176.101   3
   6 -10  21-42.5569 182.216   5
   6  10 -21 332.429 184.260   3
  -6 -10  21-60.9390 195.013   5
  -6 -10  21 63.6178 196.004   8
   6 -10  21-22.2329 200.872   8
  -6  10 -22-17.1700 82.1412   2
   6  10 -22 181.736 96.2938   2
  -6  10 -22 15.3868 96.6075   3
   6 -10  22-21.7231 123.867   5
  -6 -10  22-21.1337 127.792   5
   6 -10  22 45.4163 155.860   8
  -6 -10  22-21.7420 151.040   8
   6  10 -22 119.325 99.6095   3
  -6  10 -23 438.236 185.463   2
   6  10 -23 389.146 190.320   2
  -6 -10  23 151.441 199.221   5
   6 -10  23-23.1733 195.905   8
  -6 -10  23-44.5283 197.250   8
   6  10 -23 335.995 189.604   3
  -6  10 -23 141.352 178.937   3
   6 -10  23-22.1667 184.132   5
   6  10 -24 17.3136 78.8660   2
   6 -10  24 45.9022 122.720   5
  -6  10 -24-16.1216 96.0914   3
  -6 -10  24 22.7191 139.034   5
   6 -10  24-23.6327 146.506   8
  -6 -10  24-91.1018 158.249   8
   6  10 -24-16.1758 81.9753   3
  -6  10 -24 71.4864 86.9993   2
  -6  10 -25 273.202 160.149   2
   6  10 -25 230.075 146.474   2
   6 -10  25 48.1774 205.241   8
  -6 -10  25 23.2793 184.982   8
  -6  10 -25 197.155 157.579   3
  -6 -10  25 23.2155 169.668   5
   6  10 -25 115.755 146.659   3
   6 -10  25 116.895 163.960   5
  -6  10 -26 519.209 214.087   2
   6  10 -26 316.362 214.841   2
  -6 -10  26 95.0982 253.300   8
  -6 -10  26-47.3937 235.745   5
  -6  10 -26 190.518 192.630   3
   6  10 -26 67.5271 178.882   3
   6 -10  26 73.2838 234.360   5
   6 -10  26 269.775 282.978   8
  -6  10 -27 91.6839 150.599   2
   6 -10  27-99.7895 198.645   8
   6 -10  27 74.5342 158.867   5
  -6 -10  27 48.5055 189.933   8
   6  10 -27 394.590 147.617   2
  -6 -10  27 99.7358 190.703   5
  -6  10 -27 158.500 147.149   3
   6  10 -27 108.561 137.063   3
   6 -10  28-25.3534 190.869   8
  -6 -10  28 271.911 208.210   8
  -6  10 -28 74.5660 126.412   2
   6 -10  28-25.2414 163.573   5
   6  10 -28 182.776 120.871   2
  -6 -10  28 76.2030 171.928   5
  -6  10 -28 35.7937 120.717   3
   6  10 -28 239.715 138.250   3
  -6 -10  29-100.665 196.353   8
   6 -10  29-79.2834 144.550   5
   6  10 -29 316.345 125.026   2
  -6 -10  29-25.8536 165.420   5
  -6  10 -29 133.633 124.803   3
   6  10 -29 18.7698 103.195   3
  -6 -10  30-25.5977 178.116   8
   6  10 -30-18.9238 101.409   2
  -6 -10  30-53.4990 150.335   5
   6  10 -30-59.9456 97.0188   3
  10   7  -2 277.273 211.934   6
  10   7  -3-12.8616 69.2946   6
  10   7  -4 504.803 366.061   6
  10  -7   5 16.3046 295.317   7
  10   7  -5 755.326 302.238   6
  10  -7   6-16.1534 216.527   7
  10   7  -6 466.216 213.357   6
 -10   7  -7 993.689 439.342   4
  10  -7   7-32.2949 433.572   7
  10   7  -7 846.955 436.735   6
  10  -7   8 94.8351 221.996   7
 -10   7  -8 443.153 214.982   4
  10  -7   9 16.2332 101.203   6
  10  -7   9 15.8282 140.470   7
 -10   7  -9 363.022 125.831   4
  10  -7  10-16.2652 79.0509   6
  -7 -10  10-15.7896 100.053   5
  10  -7  10-31.8499 121.933   7
  10  -7  11-16.3133 56.2544   6
   7 -10  11-35.8981 94.3428   5
  -7 -10  11-48.3844 83.2722   5
  10  -7  11 47.9185 112.151   7
 -10   7 -11 26.9444 62.8613   4
  10  -7  12-16.3749 59.8778   6
   7 -10  12-36.7171 105.367   5
  -7 -10  12-16.5745 98.0746   5
  10  -7  12-49.8860 113.784   7
 -10   7 -12 202.813 89.8443   4
  10  -7  13 16.4463 57.9462   6
  -7 -10  13-16.8543 111.652   5
  10  -7  13-16.4494 112.610   7
 -10   7 -13 81.4649 76.0797   4
   7  10 -14 229.173 152.305   3
  -7 -10  14 242.711 196.728   5
   7  10 -14 107.843 135.107   2
   7  10 -15-12.4116 77.5325   3
   7 -10  15-58.0929 120.385   5
  -7 -10  15 17.5123 115.673   5
  -7 -10  15 17.9976 89.8249   8
   7 -10  15-39.1445 126.233   8
   7  10 -15-13.8735 54.2163   2
  -7  10 -15-14.9994 65.6143   2
  -7  10 -16 15.3575 82.9540   2
  -7  10 -16 137.286 122.262   3
   7  10 -16 319.286 114.472   3
   7 -10  16-19.4585 127.684   5
  -7 -10  16-54.0232 131.745   5
   7 -10  16-40.0720 119.584   8
  -7  10 -17 78.5939 68.0294   2
  -7  10 -17-14.0516 80.1294   3
   7 -10  17-59.7401 115.232   5
   7 -10  17-41.0248 109.626   8
  -7  10 -18 208.495 117.833   2
   7  10 -18 195.730 109.408   2
  -7  10 -18 129.413 123.485   3
   7 -10  18-20.3660 145.599   5
  -7 -10  18-18.7794 142.138   5
   7 -10  18 20.9870 133.601   8
  -7 -10  18 39.1834 127.409   8
  -7  10 -19 426.480 205.414   2
   7  10 -19 510.487 202.692   2
  -7  10 -19 334.719 204.089   3
   7 -10  19-61.6512 211.984   5
   7  10 -19 343.146 208.941   3
  -7 -10  19-19.2948 199.966   5
   7 -10  19-21.4653 205.929   8
  -7 -10  19 40.2619 197.643   8
  -7  10 -20 100.594 101.852   2
   7  10 -20 206.501 106.261   2
  -7  10 -20 89.2691 111.235   3
   7 -10  20 21.0014 125.733   5
   7  10 -20 70.4819 109.244   3
   7 -10  20-21.9448 139.338   8
  -7 -10  20-82.6799 144.411   8
  -7 -10  20 59.4120 130.461   5
  -7  10 -21 445.422 162.828   2
  -7  10 -21 167.062 155.514   3
   7 -10  21 21.4566 157.596   5
  -7 -10  21-20.6308 156.779   5
   7  10 -21 262.069 157.926   3
  -7 -10  21-42.4245 167.485   8
   7 -10  21-44.8389 180.552   8
  -7  10 -22 121.129 100.115   2
  -7  10 -22 155.031 108.465   3
   7 -10  22-43.7907 136.313   5
  -7 -10  22-63.4301 130.485   5
   7 -10  22 45.7841 138.158   8
  -7 -10  22 21.7462 142.194   8
  -7  10 -23 264.802 108.138   2
   7 -10  23-90.7115 134.793   5
  -7  10 -23 63.6967 106.961   3
  -7 -10  23-88.9153 144.564   5
   7 -10  23-46.7090 149.776   8
  -7 -10  23-22.2767 146.538   8
  -7  10 -24 341.970 133.598   2
   7 -10  24-46.2269 152.983   5
  -7  10 -24 48.7052 131.174   3
  -7 -10  24 22.8022 154.800   8
   7 -10  24 23.8111 158.194   8
  -7  10 -25 91.6617 131.227   2
  -7  10 -25-16.5326 98.5082   3
   7 -10  25-121.303 218.005   8
   7 -10  25 23.5347 144.001   5
  -7  10 -26 298.551 133.728   2
   7 -10  26 49.1684 161.101   5
   7 -10  26-24.6895 177.531   8
  -7  10 -26 34.8484 131.818   3
  -7  10 -27-18.9789 88.1863   2
   7 -10  27 75.3121 180.524   8
   7 -10  27 24.9976 155.948   5
  -7  10 -27 53.1485 89.7485   3
  -7  10 -28 57.8383 100.733   2
   7 -10  28 102.026 182.468   8
   7 -10  28-25.3908 161.302   5
  -7  10 -28 17.9962 85.6094   3
   7 -10  29 106.353 149.250   5
  -7  10 -29-38.3848 98.9818   3
  10   8  -4 302.339 230.659   6
  10   8  -5 153.468 135.742   6
  10  -8   7-66.6463 109.437   7
  10  -8   8 49.9333 116.070   7
  10  -8   9-48.8432 115.811   7
  10  -8  10 32.5808 107.157   7
 -10   8 -11 152.288 78.6143   4
   8 -10  11 54.4939 115.156   5
  10  -8  11-16.3780 118.743   7
 -10   8 -12-13.8679 55.0044   4
   8 -10  12 73.8950 116.719   5
  10  -8  12 16.4106 119.313   7
  -8  10 -14-14.8078 51.9196   2
   8 -10  15 98.9345 97.6320   8
  -8  10 -15 94.8487 100.447   3
   8 -10  15-58.7142 112.879   5
  -8  10 -15 30.3189 61.3835   2
  -8  10 -16 69.3292 88.4055   3
   8 -10  16-19.6607 117.277   5
   8 -10  16 20.2495 96.6415   8
  -8  10 -16-31.0264 53.8415   2
  -8  10 -17 47.6109 66.6310   2
  -8  10 -17 141.855 101.628   3
   8 -10  17-60.3451 123.112   5
   8 -10  17-20.7206 119.658   8
  -8  10 -18 81.1965 114.411   2
  -8  10 -18 387.738 148.195   3
   8 -10  18-20.2978 145.380   5
   8 -10  18-42.3872 143.310   8
  -8  10 -19-33.1032 70.9728   2
  -8  10 -19-44.0502 87.2417   3
   8 -10  19 20.7465 113.550   5
   8 -10  19 21.6704 124.248   8
  -8  10 -20 473.662 265.421   2
  -8  10 -20 630.160 270.827   3
   8 -10  20-21.1997 265.404   5
   8 -10  20-22.1438 272.511   8
  -8  10 -21-17.2773 66.9105   2
  -8  10 -21 45.9344 94.0150   3
   8 -10  21-108.222 136.071   5
   8 -10  21-22.6166 131.105   8
  -8  10 -22 405.532 175.826   2
  -8  10 -22 234.383 179.074   3
   8 -10  22-46.1745 193.020   8
   8 -10  22 22.0808 183.646   5
  -8  10 -23 35.5788 82.3615   2
   8 -10  23 137.223 157.328   5
  -8  10 -23 16.0505 86.0235   3
   8 -10  23-23.5476 147.783   8
  -8  10 -24-18.1324 112.562   2
   8 -10  24-23.2970 130.937   5
   8 -10  24-48.0043 178.340   8
  -8  10 -24 16.3512 96.2262   3
  -8  10 -25-55.3928 98.6703   2
   8 -10  25-23.7232 133.158   5
   8 -10  25 24.4420 157.169   8
  -8  10 -25 49.9513 88.9813   3
  -8  10 -26 37.5786 90.7011   2
   8 -10  26-74.6018 169.832   8
   8 -10  26 74.2861 135.428   5
  -8  10 -26 17.5446 88.3671   3
  -8  10 -27 95.4794 101.028   2
   8 -10  27-25.2791 158.263   8
   8 -10  27-50.3453 138.663   5
  -8  10 -27 35.6613 87.8243   3
   8 -10  28-102.694 177.276   8
   8 -10  28 105.494 151.255   5
  -8  10 -28-18.1084 89.6136   3
  -8  10 -28 96.9889 99.5684   2
  10  -9   9-34.3342 106.307   7
  10  -9  10-33.5709 122.329   7
   9 -10  11-36.7797 112.408   5
   9 -10  12 112.189 137.094   5
  -9  10 -15 13.6940 85.7140   3
   9 -10  15 19.4386 111.442   5
  -9  10 -15 30.6444 53.1793   2
 -10   9 -15 59.1595 61.2114   2
  -9  10 -16 14.0095 89.0550   3
   9 -10  16-39.7598 120.016   5
   9 -10  16-20.4706 83.7983   8
  -9  10 -16 15.6752 56.1616   2
 -10   9 -16 15.1799 58.4140   2
 -10   9 -17 15.5704 59.1441   2
  -9  10 -17 71.6569 94.2705   3
   9 -10  17-20.3249 120.946   5
   9 -10  17 41.8937 99.4862   8
  -9  10 -17 16.0347 58.5892   2
   9 -10  18 85.6770 188.452   8
  -9  10 -18 196.802 164.497   2
 -10   9 -18 318.355 187.631   2
  -9  10 -18 188.561 176.884   3
   9 -10  18 82.0154 184.297   5
  -9  10 -19 67.0409 96.9698   2
 -10   9 -19 163.098 112.062   2
  -9  10 -19 222.353 128.836   3
   9 -10  19-41.9138 145.363   5
   9 -10  19-21.8904 135.578   8
  -9  10 -20-17.0748 83.7571   2
 -10   9 -20-16.7019 74.9622   2
  -9  10 -20-15.1345 90.7989   3
   9 -10  20-42.8082 108.870   5
   9 -10  20 22.3678 122.075   8
  -9  10 -21 104.580 103.960   2
 -10   9 -21 51.2669 102.670   2
  -9  10 -21 185.397 121.398   3
   9 -10  21 21.8474 145.991   5
   9 -10  21 22.8337 135.276   8
   9 -10  22 22.6359 135.428   5
  -9  10 -22 17.7877 71.8805   2
 -10   9 -22 17.2849 88.4872   2
  -9  10 -22 47.6125 87.3030   3
   9 -10  22-46.5940 139.344   8
  -9  10 -23 18.1326 112.137   2
 -10   9 -23 105.931 112.697   2
   9 -10  23 138.406 160.349   5
   9 -10  23-47.5116 186.689   8
  -9  10 -23 129.467 116.194   3
  -9  10 -24 18.4724 88.1208   2
 -10   9 -24-36.0412 84.0973   2
   9 -10  24-70.4770 136.053   5
   9 -10  24 48.4173 150.128   8
  -9  10 -24 65.9299 85.2066   3
  -9  10 -25 18.6038 80.1401   2
 -10   9 -25 110.244 94.5448   2
  -9  10 -25-17.3759 97.7072   3
   9 -10  25 49.2810 164.096   8
   9 -10  25 24.5454 140.029   5
  -9  10 -26-37.8442 90.0720   2
   9 -10  26-50.1262 168.671   8
   9 -10  26 49.9162 144.409   5
  -9  10 -26 35.3472 97.6641   3
  -9  10 -27-19.2313 87.6656   2
   9 -10  27 50.9463 161.950   8
   9 -10  27 25.3581 135.633   5
  -9  10 -27-35.9161 92.7961   3
   9 -10  28-79.6683 146.588   5
  -9  10 -28 114.883 98.2683   3
 -10  10 -14-13.5383 85.4689   3
 -10  10 -15-69.2362 100.234   3
 -10  10 -16 14.1639 93.2239   3
 -10  10 -16-15.8491 52.1696   2
 -10  10 -17-28.6704 96.5967   3
 -10  10 -17-16.2056 57.7097   2
 -10  10 -18 58.6198 95.1805   3
 -10  10 -18-16.5716 65.0774   2
 -10  10 -19-16.9313 51.6049   2
 -10  10 -19-14.9650 82.0780   3
 -10  10 -20 34.5918 80.4334   2
 -10  10 -20 137.560 118.484   3
 -10  10 -21 35.1889 69.7304   2
 -10  10 -22 161.521 162.829   2
 -10  10 -23-18.2956 82.1642   2
 -10  10 -24 74.5377 100.971   2
 -10  10 -25-18.9675 87.2358   2
 -10  10 -26 96.4091 115.148   2
  11   0   0 60.1506 100.083   7
 -11   0   0-22.5740 79.9721   4
  11   0   0-13.6079 55.6663   6
  11   0   1 333.059 174.090   7
  11   0  -1 258.081 176.898   7
 -11   0  -1 193.110 161.162   4
 -11   0   1 163.065 156.842   4
  11   0   1 178.057 149.713   6
 -11   0  -1 339.916 373.083   1
  11   0  -1 57.1465 144.710   6
  11   0   2 15.2388 85.7818   7
 -11   0  -2-34.3286 81.3457   4
  11   0  -2-15.1086 100.773   7
 -11   0   2 23.1914 81.6181   4
 -11   0  -2 90.1793 350.258   1
  11   0   2-13.8006 68.7797   6
  11   0  -2-28.4407 64.9913   6
 -11   0  -3 555.206 496.575   4
  11   0  -3 1038.58 510.434   7
 -11   0   3 860.812 501.420   4
  11   0   3 984.614 502.174   6
  11   0  -3 370.295 492.821   6
 -11   0  -4 22.4093 82.4937   4
  11   0  -4-28.9532 96.3924   7
 -11   0   4 82.3482 83.4020   4
  11   0   4-13.6129 74.0313   6
  11   0  -4-29.5464 67.2296   6
  11   0  -5 590.019 1269.58   6
  11   0   5 3536.48 1289.59   7
 -11   0  -5 1550.80 1273.43   4
 -11   0   5 1903.47 1275.79   4
  11   0   5 3726.33 1286.46   6
 -11   0  -5 1489.18 1319.86   1
  11   0  -6-14.7433 56.7520   6
 -11   0  -6-22.2290 81.1029   4
  11   0   6 15.9601 86.7956   7
  11   0  -6-14.4447 87.2387   7
  11   0   6 27.5119 74.8284   6
 -11   0   6 60.2209 73.7391   4
  11   0  -7 14.7522 716.187   6
 -11   0  -7 361.478 811.084   1
  11   0   7 2483.40 749.394   7
  11   0  -7 1770.67 740.608   7
 -11   0   7 1263.54 727.642   4
 -11   0  -7 651.997 725.105   4
  11   0   7 3130.80 747.631   6
  11   0  -8-14.7739 54.8541   6
 -11   0  -8-34.1266 98.6368   4
  11   0   8-16.5385 123.446   7
  11   0  -8 43.2474 91.6988   7
  11   0   8-70.4196 90.7788   6
 -11   0   8-24.5760 65.5374   4
  11   0  -9 44.4432 285.923   6
  11   0   9 1390.37 337.353   7
 -11   0  -9-11.4163 293.326   4
  11   0  -9 419.176 307.511   7
  11   0   9 1611.17 329.460   6
 -11   0  -9-1208.39 511.442   1
 -11   0   9 296.480 291.094   4
 -11   0  10 24.8007 45.3337   4
 -11   0 -10-46.2645 92.9877   4
  11   0  10 51.4703 92.1417   7
 -11   0 -10-59.2663 374.065   1
  11   0 -10 29.6492 98.0098   7
  11   0  10 28.8941 82.8692   6
 -11   0 -11 560.955 507.545   1
  11   0  11 556.629 343.270   7
  11   0 -11-14.8920 333.313   7
  11   0  11 849.466 340.294   6
 -11   0 -12 40.6516 364.812   1
  11   0  12 35.3233 100.159   7
  11   0 -12 14.9744 100.022   7
  11   0  12 44.5639 82.5368   6
   0 -11  13-37.3659 101.537   5
 -11   0 -13-226.865 358.527   1
  11   0  13 17.9228 77.5241   7
  11   0 -13-30.1354 100.294   7
  11   0  13 45.2186 79.1454   6
 -11   0 -14-20.9381 342.494   1
  11   0  14-18.2200 78.9688   7
  11   0 -14-30.3616 91.0709   7
  11   0  14-30.9251 88.7993   6
   0 -11  15 19.4070 161.216   8
  11   0  15 74.0046 160.372   7
  11   0  15 298.277 173.181   6
   0  11 -15 313.263 162.929   2
   0  11 -16 30.5137 58.0816   2
   0 -11  16 19.6475 106.838   5
   0 -11  16 59.5569 104.256   8
  11   0  16 15.9449 84.5683   6
   0  11 -17 717.930 245.738   2
   0 -11  17-20.0868 249.209   5
   0 -11  17 20.3055 246.795   8
   0  11 -18-42.8008 87.3967   3
   0  11 -18 15.9105 52.5884   2
   0 -11  18 80.6561 134.293   5
   0 -11  18 41.5304 125.415   8
   0  11 -19 1196.07 527.624   3
   0 -11  19 20.6036 516.158   5
   0 -11  19-21.2260 516.522   8
   0  11 -19 1724.35 535.154   2
   0  11 -20-149.620 112.807   2
   0 -11  20-41.5433 154.041   5
   0 -11  20-86.7604 161.834   8
   0  11 -21 1551.63 725.127   3
   0 -11  21-42.4203 714.781   5
   0 -11  21 88.6235 716.893   8
   0  11 -22-15.3767 87.6546   3
   0  11 -22-17.1437 90.9920   2
   0 -11  22-21.6427 128.864   5
   0 -11  22-113.078 153.712   8
   0  11 -23 979.484 357.890   2
   0  11 -23 595.615 353.588   3
   0 -11  23-22.0698 357.741   5
   0 -11  23 23.0662 358.329   8
   0  11 -24 17.8288 81.7437   2
   0  11 -24 47.9291 90.2847   3
   0 -11  24 22.4963 120.657   5
   0 -11  24-70.5370 160.273   8
   0  11 -25 199.796 126.598   2
   0 -11  25 23.2602 156.844   5
   0  11 -25 131.047 127.520   3
   0 -11  25-23.9525 170.630   8
   0  11 -26-18.4862 89.9100   2
   0  11 -26-33.3520 98.2541   3
   0 -11  26 48.7714 168.653   8
   0 -11  26-71.0162 132.084   5
   0  11 -27 18.8023 100.527   2
   0 -11  27-24.0694 158.448   5
   0 -11  27-24.8021 180.864   8
   0  11 -27 16.9596 95.2570   3
   0  11 -28 95.5543 112.934   2
   0 -11  28 150.592 167.368   5
   0 -11  28 25.1994 175.277   8
   0  11 -28 17.8412 115.102   3
   0  11 -29 94.3337 112.964   2
   0 -11  29-25.4759 161.088   5
   0  11 -29 108.677 119.386   3
 -11  -1   0 70.8788 346.698   1
  11   1   0 89.7637 107.737   7
 -11  -1   0 43.2801 95.1217   4
  11  -1   0 77.0957 108.300   7
 -11   1   0 70.9529 94.2269   4
  11   1   0 78.7816 80.9077   6
  11  -1   0 43.5394 85.5398   6
 -11  -1  -1 71.6976 351.651   1
 -11  -1  -1 54.5550 90.2597   4
  11   1   1 60.3655 95.9512   7
  11   1  -1 29.6898 106.517   7
 -11  -1   1 33.4744 88.5137   4
  11  -1   1 123.942 111.592   7
  11  -1  -1 103.708 98.9682   7
 -11   1  -1 142.527 100.274   4
 -11   1   1 36.0771 96.2885   4
  11   1   1 52.9732 76.8138   6
  11   1  -1 40.3308 86.3430   6
  11  -1   1 14.5809 86.2788   6
  11  -1  -1 15.1170 75.0560   6
 -11  -1   1 246.030 366.648   1
 -11  -1  -2 54.3112 359.028   1
 -11  -1  -2 110.111 120.299   4
  11   1   2 76.7424 130.981   7
  11   1  -2 236.148 138.475   7
 -11  -1   2-418.652 373.286   1
 -11  -1   2 188.451 123.691   4
  11  -1  -2 132.979 126.407   7
 -11   1  -2 131.358 117.606   4
 -11   1   2 155.961 114.215   4
  11   1   2 80.2063 109.791   6
  11   1  -2 146.885 111.328   6
  11  -1   2 131.959 115.331   6
  11  -1  -2 15.0789 101.539   6
  11  -1  -3-15.0554 60.2981   6
 -11  -1  -3 10.8097 76.2696   4
  11   1   3 15.5068 88.7523   7
  11   1  -3 44.0161 90.1007   7
 -11  -1  -3 109.638 343.122   1
 -11   1  -3 46.3327 80.0333   4
  11  -1  -3 14.7503 98.5061   7
 -11  -1   3 11.4365 85.2980   4
 -11   1   3 12.2858 76.5541   4
  11   1   3-40.0971 77.7479   6
  11  -1   3 13.9773 64.0657   6
  11   1  -3 28.0340 68.6120   6
  11  -1  -4 45.1413 571.139   6
  11   1  -4 2105.16 600.772   7
 -11   1  -4 1073.31 589.309   4
 -11  -1  -4 316.866 576.837   4
  11  -1   4 1089.46 591.855   7
 -11   1  -4 1121.73 683.932   1
  11  -1  -4 411.145 581.122   7
 -11  -1   4 751.380 580.450   4
  11   1   4 1445.83 589.437   6
  11  -1   4 1577.17 592.399   6
 -11   1   4 1093.08 582.719   4
  11   1  -4 823.042 581.012   6
 -11  -1  -5-10.9544 84.0930   4
  11  -1  -5 15.0548 67.6588   6
 -11   1  -5 352.498 371.342   1
  11  -1   5-31.3572 98.8720   7
 -11   1  -5 22.6423 97.0692   4
  11   1  -5 118.143 99.9964   7
  11  -1  -5-29.3801 92.8610   7
 -11  -1   5 34.7274 81.6706   4
  11   1   5 95.6976 71.5689   6
 -11   1   5 37.5247 74.6662   4
  11  -1   5 42.5972 76.7830   6
  11   1  -5-14.5282 65.4700   6
  11  -1  -6 15.0786 864.578   6
 -11   1  -6 1164.07 950.960   1
  11   1   6 2681.52 892.972   7
  11  -1   6 3133.08 896.390   7
  11   1  -6 5197.43 911.708   7
 -11  -1   6 1720.52 876.498   4
 -11   1   6 1491.17 875.568   4
 -11  -1  -6 66.5229 867.171   4
  11  -1  -6 294.228 869.406   7
  11   1   6 3320.26 892.601   6
  11  -1   6 3291.27 891.016   6
 -11   1  -6 2592.83 883.067   4
 -11  -1  -6-624.325 933.569   1
  11   1  -6 680.967 871.107   6
  11   1  -7 28.9233 57.8106   6
  11  -1  -7-15.1177 52.4197   6
  11   1   7 49.9195 87.6333   7
  11  -1   7 16.1021 98.7248   7
 -11   1  -7 11.5332 82.0107   4
  11   1  -7 44.0949 99.1488   7
  11  -1  -7-30.1471 91.2329   7
 -11  -1  -7 191.709 351.814   1
  11   1   7 14.0125 78.9494   6
 -11  -1   7 23.6432 67.7330   4
  11  -1   7-14.0253 77.7865   6
 -11   1   7-12.5952 53.4695   4
 -11   1  -7 227.662 376.520   1
  11   1  -8 101.173 553.758   6
  11   1   8 1315.44 580.152   7
  11   1  -8 2265.96 583.939   7
  11  -1   8 1090.51 576.935   7
 -11   1  -8-172.412 713.200   1
 -11  -1  -8 855.123 671.387   1
  11  -1  -8 15.1244 556.648   7
  11   1   8 1675.81 575.914   6
  11  -1   8 2352.91 584.334   6
 -11   1  -8 862.330 568.174   4
 -11  -1   8 602.694 559.820   4
 -11   1   8 252.831 554.611   4
  11   1  -9-14.4572 56.2997   6
 -11  -1  -9-59.1389 359.154   1
  11   1   9-17.1024 88.6410   7
  11  -1   9-66.6375 129.415   7
  11   1  -9-14.1650 100.779   7
  11  -1  -9-15.1942 93.3756   7
  11   1   9-29.1096 84.6963   6
 -11   1  -9 34.3618 89.2247   4
  11  -1   9 28.3760 70.9739   6
 -11  -1   9 12.0327 68.1484   4
  11   1 -10-14.4767 220.397   6
 -11   1 -10-19.5977 456.986   1
 -11  -1 -10-780.012 437.249   1
  11   1  10 416.845 247.657   7
 -11   1 -10 220.189 234.834   4
  11  -1  10 522.694 255.895   7
  11   1 -10 680.792 254.370   7
  11  -1 -10-15.3970 231.504   7
  11   1  10 915.393 255.352   6
  11  -1  10 775.346 251.685   6
 -11  -1  10 36.2393 221.479   4
 -11   1 -11-35.1946 86.1194   4
 -11  -1 -11 284.222 366.037   1
  11   1  11 17.6275 70.6735   7
  11  -1  11 51.2225 99.2859   7
  11   1 -11-42.4818 97.8536   7
  11  -1 -11 61.9806 104.750   7
  11  -1  11 29.0791 76.9897   6
 -11   1 -11 516.138 425.741   1
  11   1  11 44.9496 92.1860   6
 -11  -1  11-12.1117 49.1047   4
 -11  -1 -12 61.8279 333.139   1
  11   1  12-17.9226 91.5794   7
  11  -1  12 34.9676 108.270   7
 -11   1 -12 95.0546 109.573   4
 -11   1 -12 341.965 406.451   1
  11   1 -12 142.093 113.275   7
  11   1  12 91.2549 91.5849   6
  11  -1  12 73.6458 96.5168   6
 -11  -1 -13 376.755 319.935   1
  -1 -11  13-55.7408 109.762   5
 -11   1 -13 244.765 379.879   1
  11  -1  13-53.1717 95.5050   7
 -11   1 -13 11.9358 98.4359   4
  11   1  13-72.7915 75.4683   7
  11   1 -13 14.2682 90.3861   7
  11   1  13-30.8872 80.5770   6
  11  -1  13 14.9299 76.5411   6
  11  -1  14 17.9904 96.0234   7
 -11   1 -14 36.2983 102.068   4
  11   1  14 31.8893 90.1454   6
  11  -1  14 30.2695 85.9238   6
   1 -11  15 19.5333 104.406   5
 -11   1 -15-83.9654 384.031   1
  -1 -11  15-135.191 87.8582   8
  11  -1  15 36.5093 86.9095   7
 -11   1 -15 36.8125 108.932   4
  11   1  15 48.5905 92.3607   6
  11  -1  15 46.0574 96.3806   6
   1  11 -15 14.8475 46.6785   2
  -1  11 -15-14.9956 51.6244   2
   1  11 -16 151.940 107.259   2
  -1  11 -16 199.358 105.542   2
   1 -11  16-59.2617 136.269   5
  -1 -11  16 58.6800 135.385   5
  -1 -11  16 79.0427 126.044   8
   1 -11  16-19.9612 131.376   8
  11  -1  16 111.331 121.451   7
  11  -1  16 249.240 133.203   6
   1  11 -17 77.7234 65.7540   2
  -1  11 -17-15.6798 54.2415   2
   1  11 -17 41.7000 84.4199   3
   1 -11  17 40.3797 121.347   5
  -1 -11  17-60.0104 121.875   5
   1 -11  17 81.6386 157.740   8
  11  -1  17 47.4352 96.8795   6
  -1 -11  17-20.2164 123.148   8
   1 -11  18 41.7315 295.859   8
  -1  11 -18 623.343 296.731   2
  -1  11 -18 702.226 299.906   3
   1  11 -18 887.871 299.232   2
   1  11 -18 582.921 303.091   3
   1 -11  18-101.309 294.451   5
  -1 -11  18-60.2463 294.039   5
  -1 -11  18-82.7205 299.667   8
  -1  11 -19 43.9308 106.485   3
   1  11 -19-276.197 120.625   3
  -1  11 -19-32.6667 91.1456   2
   1  11 -19-32.4236 89.3019   2
   1 -11  19-41.3954 132.874   5
  -1 -11  19-205.306 142.581   5
   1 -11  19-21.3234 134.491   8
  -1 -11  19-42.2904 130.237   8
   1  11 -20 1088.26 561.555   3
  -1  11 -20 957.375 558.642   3
   1 -11  20 63.4100 551.874   5
  -1 -11  20 124.195 551.286   5
   1 -11  20-65.3509 554.873   8
  -1  11 -20 2269.31 576.701   2
   1  11 -20 2137.73 572.651   2
  -1 -11  20-21.6137 552.528   8
  -1  11 -21-60.4612 82.2993   3
   1  11 -21-15.0216 89.5838   3
  -1  11 -21-17.0358 62.9683   2
   1  11 -21 16.9268 66.9455   2
   1 -11  21-21.2896 131.168   5
  -1 -11  21-42.2842 138.459   5
   1 -11  21-88.9582 158.369   8
  -1 -11  21 66.2521 128.738   8
  -1  11 -22 987.120 435.180   3
  -1  11 -22 1272.63 441.218   2
   1  11 -22 674.803 430.871   3
   1 -11  22-21.7176 429.581   5
  -1 -11  22 107.896 434.091   5
   1 -11  22-22.6945 435.026   8
  -1 -11  22 45.0969 435.264   8
   1  11 -22 1128.41 441.497   2
  -1  11 -23-17.5410 80.3254   2
  -1  11 -23 31.4357 96.6066   3
   1  11 -23-34.8960 79.9054   2
   1  11 -23-15.6371 84.0945   3
   1 -11  23-66.4401 137.554   5
  -1 -11  23-44.0173 129.537   5
   1 -11  23 69.4438 147.366   8
  -1 -11  23-23.0041 141.019   8
  -1  11 -24 214.514 106.548   2
   1  11 -24 195.699 119.897   2
  -1  11 -24 64.0673 103.403   3
   1  11 -24-15.9427 101.775   3
   1 -11  24-67.6854 143.673   5
  -1 -11  24 44.8798 146.383   5
   1 -11  24-47.1791 162.020   8
  -1 -11  24-117.276 174.077   8
  -1  11 -25 18.2067 85.3532   2
   1  11 -25 36.2585 84.9952   2
   1 -11  25 23.3294 143.056   5
  -1  11 -25-48.9357 97.6501   3
  -1 -11  25 46.4162 136.613   5
   1 -11  25 24.0253 165.467   8
  -1 -11  25-23.9006 155.838   8
   1  11 -25 49.0515 87.9666   3
   1  11 -26 36.9092 81.1213   2
  -1 -11  26-47.2484 147.093   5
  -1  11 -26 16.7101 96.3396   3
   1  11 -26 16.6491 88.6058   3
   1 -11  26 97.8154 168.717   8
  -1 -11  26 170.316 173.003   8
   1 -11  26-94.9214 162.061   5
  -1  11 -26 18.5320 85.5004   2
  -1  11 -27-18.8445 111.454   2
   1 -11  27-24.1226 153.857   5
  -1 -11  27 48.0367 141.642   5
   1 -11  27-24.8568 186.693   8
  -1 -11  27 24.7496 177.598   8
  -1  11 -27-67.9609 111.382   3
   1  11 -27 16.9363 100.348   3
   1  11 -27-37.5497 106.258   2
  -1  11 -28 19.1423 97.5581   2
   1  11 -28 19.0875 102.663   2
   1 -11  28 25.1572 143.867   5
  -1 -11  28-25.0577 147.552   5
   1 -11  28-25.2580 181.092   8
  -1 -11  28-150.965 180.399   8
  -1  11 -28 17.8759 101.020   3
   1  11 -28 106.925 100.713   3
  -1  11 -29-56.6801 101.079   2
   1  11 -29 94.2317 100.828   2
   1 -11  29-25.6395 154.821   8
  -1 -11  29 102.207 184.632   8
   1 -11  29 127.647 152.062   5
  -1 -11  29-101.762 163.661   5
  -1  11 -29 18.1444 91.9397   3
   1  11 -29-18.0962 95.1466   3
 -11  -2   0 52.6825 76.9814   4
  11   2   0 45.2991 98.8591   7
 -11  -2   0 35.5991 369.519   1
  11  -2   0-15.0974 97.7036   7
 -11   2   0 61.2514 80.4998   4
  11   2   0 13.0148 66.3800   6
  11  -2   0 46.2249 70.7934   6
 -11  -2   1 264.644 364.528   1
  11  -2  -1-15.3832 94.0828   6
 -11  -2  -1-10.6447 101.073   4
  11   2   1 30.5180 109.478   7
 -11  -2   1 42.9524 103.807   4
  11   2  -1 164.484 107.032   7
  11  -2  -1 105.081 131.454   7
 -11   2  -1 270.175 114.455   4
 -11   2   1 150.523 99.6158   4
  11   2   1 78.9070 94.6557   6
  11   2  -1 143.284 96.8003   6
  11  -2   1 108.157 101.502   6
  11  -2  -2-15.3722 67.2911   6
 -11  -2  -2-36.4112 350.866   1
 -11  -2  -2-21.5226 86.0472   4
  11   2   2 15.6154 86.8866   7
  11   2  -2 29.4194 106.757   7
 -11  -2   2 10.6473 76.8847   4
  11  -2  -2-14.9995 98.1402   7
 -11   2  -2 36.9702 80.8492   4
  11   2   2-13.2994 71.8169   6
 -11   2   2 100.300 74.3238   4
  11   2  -2 51.6431 66.1410   6
  11  -2   2 15.5072 67.8677   6
  11  -2  -3-15.3771 55.7768   6
 -11  -2  -3-128.830 332.531   1
 -11  -2  -3 32.3734 84.8474   4
  11   2   3 63.2100 87.6313   7
  11   2  -3 14.5920 93.4074   7
 -11  -2   3 87.8042 94.0804   4
  11  -2   3 79.1684 103.290   7
  11  -2  -3 15.0029 92.3421   7
 -11   2  -3 109.181 85.7867   4
  11   2   3 13.4524 70.7399   6
 -11  -2   3 51.9876 350.191   1
 -11   2   3 12.7660 72.1312   4
  11   2  -3 26.4274 70.8473   6
  11  -2   3 14.9032 73.2160   6
  11  -2  -4-15.3977 67.1118   6
  11   2   4 80.0097 92.3448   7
 -11  -2   4-171.569 381.033   1
  11   2  -4 115.906 103.770   7
  11  -2   4 15.9237 110.466   7
 -11  -2   4 21.8021 88.2416   4
 -11   2  -4 97.5710 102.705   4
  11  -2  -4 15.3538 95.5387   7
  11   2   4 54.4822 80.0042   6
 -11  -2  -4-205.054 332.031   1
  11   2  -4 118.086 87.0085   6
 -11   2   4 89.4964 81.3569   4
  11  -2   4 59.9457 82.3160   6
  11  -2  -5 15.4333 555.535   6
  11   2  -5 1643.30 581.808   7
 -11   2  -5 1755.06 579.882   4
  11   2   5 950.413 572.053   7
  11  -2   5 931.447 574.974   7
 -11  -2   5 562.184 563.487   4
  11  -2  -5 46.1677 561.156   7
  11   2   5 1338.47 573.584   6
  11  -2   5 1478.23 577.358   6
  11   2  -5 1101.57 569.579   6
 -11  -2   5 903.034 664.095   1
 -11   2   5 796.520 564.418   4
  11  -2   6 15.9061 104.232   7
  11   2  -6 86.0227 101.582   7
 -11   2  -6 23.8300 83.5020   4
  11  -2  -6-15.4396 96.5469   7
 -11  -2   6 33.5673 80.2692   4
  11   2   6 84.8252 71.5987   6
  11  -2   6 28.7854 69.9324   6
  11   2  -6-13.6997 72.1659   6
 -11   2   6 38.6780 53.4683   4
 -11   2   7 323.783 512.975   4
 -11   2  -7-1212.45 688.232   1
 -11  -2  -7-446.918 624.076   1
  11   2  -7 1684.38 541.062   7
  11  -2   7 1009.33 530.624   7
  11   2   7 876.941 527.939   7
 -11   2  -7 1417.20 534.261   4
  11  -2  -7 15.6283 513.788   7
  11  -2   7 1407.55 530.015   6
 -11  -2   7 454.866 517.327   4
  11   2   7 1132.62 528.117   6
  11   2  -7 484.841 517.932   6
  11   2   8 51.3335 97.0227   7
  11  -2   8 80.8376 129.781   7
 -11   2  -8 72.6958 125.089   4
  11   2  -8 72.2255 106.621   7
  11  -2  -8-31.4156 100.884   7
  11   2   8 43.6367 92.6518   6
 -11  -2   8 79.3609 99.4528   4
  11  -2   8 204.987 97.5556   6
 -11  -2  -8-394.389 337.745   1
  11   2  -8 14.2131 84.2029   6
  11   2  -9 42.5438 290.122   6
 -11  -2  -9 60.0495 414.378   1
  11   2   9 243.132 302.968   7
  11  -2   9 509.958 316.527   7
 -11   2  -9 765.301 310.563   4
  11   2  -9 1138.52 324.904   7
  11   2   9 501.941 307.198   6
 -11  -2   9-23.2108 291.293   4
  11  -2   9 730.827 309.150   6
 -11   2  -9-522.953 521.051   1
  11   2 -10 42.4937 60.0197   6
  11   2  10-35.3216 78.6631   7
  11  -2  10-49.8778 110.868   7
 -11   2 -10-332.384 434.248   1
 -11   2 -10 11.8959 96.1303   4
  11   2 -10-28.7867 104.190   7
  11   2  10 60.9359 78.8377   6
  11  -2  10-14.4801 77.6711   6
 -11  -2  10 11.7996 64.4905   4
 -11  -2 -11-144.515 303.118   1
  11   2 -11-42.4750 54.4081   6
 -11   2 -11-36.0797 93.9554   4
 -11   2 -11 217.584 424.552   1
  11   2  11-35.8718 73.3733   7
  11  -2  11-17.0135 98.4274   7
  11   2 -11 14.3908 95.7801   7
  11   2  11 30.9425 73.6174   6
  11  -2  11 43.9304 69.6789   6
 -11  -2  11 11.7979 56.1398   4
 -11   2 -12 199.929 403.881   1
  11   2 -12-14.1716 49.0036   6
  11  -2  12 51.6419 120.925   7
 -11   2 -12 97.3144 100.447   4
  11   2 -12 41.6580 98.6542   7
  11   2  12 15.7175 81.8625   6
  11  -2  12 59.2576 86.8051   6
 -11  -2 -12-335.536 282.564   1
  -2 -11  13-18.4916 98.9852   5
  11  -2  13 17.6173 107.918   7
 -11   2 -13-35.9079 93.7035   4
  11   2  13-15.9673 81.0065   6
 -11   2 -13 303.739 400.339   1
  11  -2  13 89.9856 88.2398   6
  11  -2  14 17.8438 103.236   7
 -11   2 -14-12.1195 102.036   4
 -11   2 -14 82.0709 416.689   1
   2 -11  14 19.2159 76.2690   8
  11  -2  14 15.0335 76.0631   6
  -2  11 -14-14.7582 43.9432   2
  -2 -11  15 19.2330 85.5474   8
   2 -11  15-19.6556 105.188   5
 -11   2 -15 332.731 417.815   1
  11  -2  15-36.1693 93.4250   7
 -11   2 -15-36.8340 103.538   4
   2 -11  15-39.2855 101.442   8
  11  -2  15 76.1827 83.0153   6
   2  11 -15 14.7931 41.9438   2
  -2  11 -15 30.1716 56.3229   2
   2  11 -16 45.4176 52.2249   2
  -2  11 -16 15.4229 57.4295   2
   2 -11  16-59.6154 123.206   5
  -2 -11  16-58.4517 128.305   5
  -2 -11  16 39.3658 101.571   8
   2 -11  16-20.0816 116.262   8
  11  -2  16-55.0616 101.486   7
 -11   2 -16 37.3347 99.6467   4
  11  -2  16 30.8932 89.4732   6
   2  11 -17 154.933 88.4587   2
  -2  11 -17 157.643 85.2907   2
   2  11 -17 166.264 108.153   3
   2 -11  17-60.9129 129.731   5
  -2 -11  17-19.9317 132.237   5
  -2 -11  17 20.1430 120.865   8
   2 -11  17-41.0535 154.204   8
 -11   2 -17 12.6165 125.026   4
  11  -2  17 15.6626 96.8920   6
  -2  11 -18 48.1939 63.9304   2
   2  11 -18 15.8072 58.8726   2
  -2  11 -18 28.8060 93.8250   3
   2  11 -18-14.1761 84.5222   3
   2 -11  18-40.7415 119.662   5
  -2 -11  18 20.0161 115.893   5
   2 -11  18 20.9794 110.242   8
 -11   2 -18-76.7754 119.862   4
  -2 -11  18 20.6112 113.956   8
  11  -2  18 15.8907 90.6923   6
  -2  11 -19 397.236 241.681   3
  -2  11 -19 771.359 250.283   2
   2  11 -19 452.649 235.937   2
   2  11 -19 318.969 240.840   3
   2 -11  19 83.2121 239.903   5
  -2 -11  19 20.4693 244.146   5
   2 -11  19 42.8649 240.650   8
  -2 -11  19 42.1622 243.354   8
  -2  11 -20-15.0251 85.6923   3
   2  11 -20 16.5296 65.6742   2
   2  11 -20-29.3439 88.6004   3
   2 -11  20-21.2383 131.628   5
  -2 -11  20-20.6405 137.409   5
   2 -11  20 43.7777 128.517   8
  -2 -11  20 21.5546 121.014   8
  -2  11 -21 470.628 233.134   3
   2  11 -21 658.729 236.758   2
   2  11 -21 629.617 239.803   3
   2 -11  21 21.3860 234.801   5
  -2 -11  21-147.618 245.711   5
   2 -11  21-44.6932 235.875   8
  -2 -11  21 22.0246 232.817   8
  -2  11 -22-61.9501 102.503   3
   2  11 -22 187.719 110.874   2
   2  11 -22 61.2375 101.417   3
   2 -11  22-21.8099 131.203   5
  -2 -11  22 64.6012 144.602   5
   2 -11  22 91.1912 154.430   8
  -2 -11  22 22.4907 149.119   8
   2  11 -23 330.988 132.077   2
  -2  11 -23 94.6430 121.665   3
   2  11 -23 140.483 119.872   3
   2 -11  23-111.175 153.302   5
  -2 -11  23-21.9645 148.716   5
   2 -11  23 23.2398 156.953   8
  -2 -11  23 68.8735 169.829   8
   2  11 -24 17.7654 78.9565   2
  -2  11 -24 96.4498 98.4195   3
   2 -11  24-45.2916 129.148   5
   2  11 -24 15.9165 86.6130   3
   2 -11  24-47.3688 154.156   8
  -2 -11  24-93.6585 162.678   8
  -2 -11  24-44.7885 133.388   5
   2  11 -25 18.1082 79.2375   2
   2 -11  25 23.4104 145.551   5
  -2  11 -25-49.0855 94.0317   3
   2  11 -25 16.3329 91.0276   3
   2 -11  25-48.2321 147.987   8
  -2 -11  25-47.7313 162.778   8
  -2 -11  25-69.5233 145.917   5
   2  11 -26-18.4375 90.6342   2
   2 -11  26-119.034 164.541   5
  -2 -11  26 47.1751 152.666   5
  -2  11 -26-67.0507 94.2017   3
  -2 -11  26-97.1937 177.918   8
   2  11 -26-16.6299 100.541   3
   2  11 -27-18.7624 98.6204   2
   2 -11  27-24.1944 140.052   5
  -2 -11  27 24.6304 150.717   5
  -2 -11  27-24.7257 175.256   8
  -2  11 -27 17.0339 95.7245   3
   2  11 -27-16.9207 95.0898   3
   2 -11  28 151.358 171.584   5
  -2 -11  28-50.2611 178.058   8
  -2 -11  28 25.0306 126.629   5
  -2  11 -28 35.8352 92.3713   3
   2  11 -28-71.2514 103.050   3
   2  11 -28-19.0772 100.154   2
   2  11 -29 18.8427 93.9137   2
  -2 -11  29 178.690 184.604   8
   2 -11  29-102.375 158.837   5
  -2 -11  29-50.8310 136.095   5
  -2  11 -29 36.3654 99.2249   3
   2  11 -29 18.0925 84.6831   3
 -11  -3   0 71.7635 514.122   1
  11  -3   0 47.1731 393.834   6
  11   3   0 1539.78 427.455   7
 -11   3   0 1691.46 419.260   4
 -11  -3   0 31.5759 397.045   4
  11   3   0 852.031 410.030   6
  11  -3   1 15.7389 52.3785   6
  11  -3  -1 15.7254 56.7955   6
 -11  -3   1 248.541 345.689   1
 -11  -3   1-10.5003 81.7418   4
  11   3   1 77.9319 90.5086   7
  11   3  -1 45.6647 95.8335   7
  11  -3   1-15.3571 102.509   7
  11  -3  -1-15.6792 94.9466   7
  11   3   1-13.2679 64.9619   6
  11   3  -1 25.9283 67.2915   6
 -11  -3  -1-90.8332 340.164   1
 -11   3  -1 51.2900 84.7490   4
 -11   3   1-26.0865 70.1267   4
  11  -3   2 47.3041 144.246   6
  11  -3  -2 15.7407 137.261   6
 -11  -3   2 526.561 372.306   1
  11   3   2 287.205 163.329   7
 -11  -3   2-10.3905 147.721   4
  11   3  -2 511.951 174.533   7
  11  -3   2 92.6865 159.883   7
 -11  -3  -2 18.4042 347.984   1
  11  -3  -2 47.0823 154.653   7
  11   3   2 188.107 153.908   6
 -11   3  -2 488.090 168.097   4
  11   3  -2 359.101 158.570   6
 -11   3   2 365.676 156.934   4
  11  -3  -3-15.7740 89.1935   6
 -11  -3   3-260.516 374.853   1
  11   3   3 129.349 105.911   7
 -11  -3  -3-93.2765 321.760   1
  11   3  -3 162.013 114.315   7
 -11  -3   3-21.1715 104.519   4
  11  -3   3 46.4794 119.222   7
  11  -3  -3-31.4502 114.218   7
 -11   3  -3 188.384 118.310   4
  11   3   3 192.668 113.648   6
  11   3  -3 141.104 100.168   6
 -11   3   3 288.621 102.255   4
  11  -3   3 15.8126 93.3310   6
 -11  -3  -4-56.7598 318.924   1
  11   3   4 49.1832 84.8521   7
  11   3  -4 116.738 101.130   7
 -11  -3   4 10.4894 87.3241   4
  11  -3   4-32.2559 115.705   7
  11  -3  -4-31.7920 105.034   7
 -11  -3   4-499.438 368.457   1
 -11   3  -4 151.247 99.8397   4
  11   3   4 13.9522 77.1422   6
  11   3  -4 76.2582 72.0894   6
  11  -3   4 15.8734 72.7878   6
 -11   3   4 13.1608 57.5636   4
 -11   3   5 158.583 136.112   4
 -11  -3   5 153.582 411.533   1
 -11  -3  -5-499.032 341.277   1
  11   3   5 332.923 165.506   7
  11   3  -5 274.861 167.220   7
 -11  -3   5 140.528 152.313   4
  11  -3   5-16.2062 170.441   7
  11  -3  -5 31.9122 152.787   7
 -11   3  -5 227.904 163.472   4
  11   3   5 325.512 153.117   6
  11   3  -5 195.063 144.562   6
  11  -3   5 63.7906 156.000   6
 -11  -3   6-135.412 467.151   1
  11   3   6 202.704 201.294   7
  11   3  -6 498.769 215.969   7
  11  -3   6 81.4932 208.035   7
 -11  -3   6 53.6469 197.659   4
 -11   3  -6 411.708 210.413   4
  11   3   6 204.336 201.188   6
  11   3  -6 425.833 199.022   6
  11  -3   6 214.780 204.146   6
  11   3  -7 339.660 194.500   7
  11  -3   7 258.556 205.475   7
 -11  -3   7 132.736 184.015   4
 -11   3  -7 288.757 199.353   4
  11   3   7 133.340 178.294   6
  11   3  -7 270.640 180.327   6
  11  -3   7 185.278 189.630   6
 -11  -3   8-49.9524 404.870   1
  11   3   8 174.381 117.822   7
  11   3  -8 323.572 154.748   7
  11  -3   8 179.090 141.575   7
 -11   3  -8 177.012 128.216   4
 -11  -3   8-87.9951 121.403   4
  11   3   8 120.352 123.452   6
  11  -3   8 139.983 111.689   6
  11   3  -8 140.632 112.442   6
 -11   3  -9-309.951 427.322   1
  11  -3   9 49.1856 115.999   7
  11   3  -9 70.0458 93.7952   7
 -11   3  -9 12.2828 91.4405   4
 -11  -3   9 55.8594 80.6882   4
  11   3   9-15.2788 83.2147   6
 -11  -3   9 347.695 365.406   1
  11  -3   9 31.3601 80.8763   6
 -11  -3  -9-224.388 299.640   1
  11   3  -9 41.9808 67.3681   6
  11   3 -10 13.9384 57.0220   6
 -11   3 -10-78.4091 437.910   1
 -11  -3  10 65.8979 370.568   1
  11  -3  10-115.805 122.830   7
  11   3 -10-13.9528 98.8623   7
 -11   3 -10 24.7804 94.4255   4
  11   3  10 15.6338 79.0934   6
 -11  -3  10 11.4103 77.6133   4
 -11  -3 -10 20.7241 266.505   1
  11  -3  10 14.9844 72.8346   6
  11   3 -11-27.7853 72.2420   6
  11  -3  11 84.1568 117.000   7
  11   3 -11 111.249 119.050   7
 -11   3 -11 87.5581 100.218   4
 -11   3 -11 158.384 444.317   1
  11  -3  11 45.3857 83.9731   6
 -11   3 -12 259.793 461.869   1
  11  -3  12 102.036 195.621   7
 -11   3 -12 277.922 195.099   4
  11  -3  12 305.675 191.006   6
  -3 -11  13-18.4169 107.640   5
 -11   3 -13-323.449 453.864   1
  11  -3  13 34.8008 112.078   7
 -11   3 -13 76.6116 102.686   4
  11  -3  13 108.169 98.4786   6
  11  -3  14 70.4103 204.613   7
 -11   3 -14 186.434 198.093   4
  11  -3  14 560.499 205.653   6
  -3  11 -14 178.357 184.777   2
 -11   3 -14-142.996 451.271   1
   3 -11  15-19.7936 116.302   5
   3 -11  15-19.7820 81.0972   8
  11  -3  15 36.0176 107.336   7
 -11   3 -15 25.1516 103.025   4
  -3 -11  15 19.1593 83.0279   8
  11  -3  15 61.3287 80.6683   6
   3  11 -15 14.7437 44.2047   2
  -3  11 -15-30.3752 52.4684   2
   3  11 -16 30.1869 79.6977   2
  -3  11 -16 46.5678 76.6353   2
   3 -11  16 141.529 160.168   8
   3 -11  16 120.035 138.765   5
  -3 -11  16 19.4196 125.216   5
  -3 -11  16 137.317 134.999   8
  11  -3  16 18.2378 115.962   7
 -11   3 -16 38.1889 122.784   4
  11  -3  16 46.5754 100.721   6
   3  11 -17-15.4514 53.9515   2
  -3  11 -17 15.8621 57.5354   2
   3  11 -17 41.4579 82.8134   3
   3 -11  17 20.4355 120.325   5
  -3 -11  17 19.8757 111.956   5
  -3 -11  17 80.3269 105.856   8
  11  -3  17-18.4949 100.955   7
 -11   3 -17-12.8948 105.151   4
   3 -11  17 20.6597 112.672   8
  11  -3  17 15.7267 81.6333   6
  -3  11 -18-16.1550 62.2896   2
   3  11 -18 15.7695 60.8133   2
  -3  11 -18 28.9711 87.5711   3
   3  11 -18-28.2814 86.6372   3
   3 -11  18-61.4871 115.145   5
  -3 -11  18-39.9253 150.924   5
   3 -11  18 63.3278 130.893   8
  -3 -11  18-41.1019 111.796   8
 -11   3 -18 26.1299 103.014   4
  11  -3  18-31.8737 92.3404   6
  -3  11 -19 33.0065 61.2797   2
   3  11 -19 32.2689 55.4693   2
  -3  11 -19-44.3787 92.8334   3
   3  11 -19 14.4666 82.4626   3
   3 -11  19-62.7745 139.272   5
  -3 -11  19 20.4164 124.874   5
  -3 -11  19-42.0606 116.180   8
   3 -11  19-21.5593 104.797   8
  -3  11 -20 117.952 106.654   2
   3  11 -20 330.050 123.204   2
  -3  11 -20 256.756 137.345   3
   3  11 -20 14.6438 114.152   3
   3 -11  20-21.0780 144.686   5
  -3 -11  20 41.2025 145.274   5
   3 -11  20-22.0112 147.658   8
  -3 -11  20 21.5045 142.043   8
  -3  11 -21 34.3853 87.2055   2
   3  11 -21 50.5959 69.2791   2
  -3  11 -21-15.2560 102.852   3
   3  11 -21 14.9664 99.8085   3
   3 -11  21-42.9972 135.048   5
  -3 -11  21 21.0455 143.286   5
   3 -11  21-44.9311 147.983   8
  -3 -11  21-21.9852 132.830   8
  -3  11 -22 35.0707 90.6989   2
   3  11 -22 17.2304 89.3076   2
  -3  11 -22 15.5595 88.7299   3
   3  11 -22 91.6576 111.569   3
   3 -11  22 175.353 132.342   5
  -3 -11  22 42.9924 131.669   5
   3 -11  22-22.9122 155.615   8
  -3 -11  22 22.4564 139.028   8
  -3  11 -23 212.206 107.975   2
   3  11 -23 139.238 97.9285   2
  -3  11 -23 95.0557 103.139   3
   3 -11  23 89.3620 147.959   5
   3  11 -23-15.5968 100.771   3
  -3 -11  23-43.8760 137.255   5
   3 -11  23 23.3574 144.882   8
  -3 -11  23 22.9234 158.031   8
  -3  11 -24 36.0228 76.7163   2
   3  11 -24 17.7540 75.6458   2
  -3  11 -24 16.1350 87.0004   3
   3 -11  24 45.4953 137.781   5
  -3 -11  24-22.7227 139.465   5
   3 -11  24-23.7903 147.868   8
  -3 -11  24-23.3860 143.507   8
   3  11 -24 31.8155 90.0469   3
  -3  11 -25 36.6711 81.7862   2
   3  11 -25 18.1018 78.7323   2
   3 -11  25-47.0182 136.262   5
  -3  11 -25-16.4244 89.6468   3
   3  11 -25 16.3284 102.801   3
   3 -11  25 96.8724 154.082   8
  -3 -11  25 23.8387 155.319   8
  -3 -11  25-23.1486 138.055   5
  -3  11 -26 167.822 128.072   2
  -3 -11  26 94.2985 165.936   5
  -3  11 -26 84.0831 116.209   3
   3 -11  26-172.406 236.875   8
  -3 -11  26-121.405 204.531   8
   3  11 -26 33.2545 107.807   3
   3 -11  26 95.6061 155.888   5
   3  11 -26 165.920 122.811   2
  -3  11 -27 75.8092 95.7539   2
   3  11 -27-18.7625 91.1020   2
   3 -11  27-24.2852 149.633   5
  -3 -11  27 123.073 151.633   5
   3 -11  27 75.0972 186.738   8
  -3 -11  27 49.4203 163.631   8
  -3  11 -27-17.0910 89.9609   3
   3  11 -27 35.0458 95.3663   3
  -3  11 -28 211.752 143.287   2
   3 -11  28-25.3145 163.667   5
   3 -11  28-25.4245 191.024   8
  -3 -11  28-25.1205 195.728   8
  -3 -11  28 100.102 176.928   5
  -3  11 -28 287.573 160.203   3
   3  11 -28 53.4376 133.654   3
   3  11 -28 267.052 153.417   2
   3  11 -29-19.3788 94.4324   2
  -3 -11  29-25.5236 186.208   8
  -3 -11  29 25.4073 163.504   5
  -3  11 -29 36.4692 99.3203   3
   3  11 -29 18.0966 91.7986   3
  11  -4   0 32.2246 79.4240   6
 -11  -4   0-91.0257 336.743   1
  11   4   0 63.0818 100.321   7
  11  -4   0 16.0618 113.519   7
  11   4   0 132.813 97.0583   6
 -11   4   0 93.4991 77.3782   4
  11  -4   1-16.1006 498.950   6
  11  -4  -1 16.1377 498.450   6
 -11  -4  -1-36.9167 590.634   1
  11   4  -1 1587.66 526.884   7
 -11   4  -1 1801.52 524.392   4
 -11   4   1 1166.83 514.276   4
  11   4   1 1152.18 519.699   7
 -11  -4   1-305.371 605.724   1
  11  -4   1-48.1547 506.498   7
  11   4   1 1483.17 519.388   6
  11   4  -1 1350.31 518.553   6
  11  -4   2 16.1048 73.2539   6
 -11  -4  -2-37.4460 313.439   1
  11   4   2 162.286 100.476   7
 -11  -4   2-10.4035 88.2052   4
  11   4  -2 76.8574 89.5888   7
  11  -4   2 78.5518 112.694   7
  11  -4  -2-32.5082 113.947   7
 -11  -4   2 177.341 351.516   1
  11   4   2 68.9927 77.2446   6
  11   4  -2 38.8415 73.5280   6
 -11   4  -2 93.4133 88.1314   4
 -11   4   2 67.2423 70.8511   4
 -11   4   3 229.462 97.7956   4
  11  -4   3 80.6198 101.744   6
 -11  -4  -3-18.9987 329.886   1
  11   4   3 49.3941 101.615   7
 -11  -4   3 20.7441 110.157   4
  11   4  -3 255.428 123.152   7
  11  -4   3-15.7312 126.203   7
  11  -4  -3-32.6182 117.837   7
  11   4   3 128.062 109.981   6
  11   4  -3 140.758 103.371   6
 -11   4  -3 118.141 104.058   4
 -11  -4   3-35.0346 390.804   1
  11  -4   4 64.6276 183.193   6
 -11  -4  -4-96.4257 406.351   1
  11   4   4 368.200 201.967   7
  11   4  -4 460.544 203.802   7
 -11  -4   4-10.2590 188.312   4
  11  -4   4 31.6542 195.084   7
  11   4   4 389.865 200.555   6
 -11   4  -4 486.587 200.850   4
  11   4  -4 404.906 195.532   6
 -11  -4   4-51.9289 425.928   1
  11  -4   5 113.435 115.777   6
 -11  -4  -5 215.399 359.433   1
 -11  -4   5 102.833 450.416   1
  11   4   5 101.952 119.170   7
  11   4  -5 235.142 140.126   7
 -11  -4   5 146.214 123.567   4
  11  -4   5 15.8773 132.477   7
  11   4   5 43.9784 105.368   6
 -11   4  -5 158.252 129.189   4
  11   4  -5 75.8876 107.388   6
 -11  -4   6-169.619 407.849   1
  11   4  -6 261.867 165.084   7
 -11  -4   6-10.3446 147.333   4
  11  -4   6-33.0572 171.273   7
  11   4   6 372.142 165.568   6
 -11   4  -6 322.717 163.346   4
  11   4  -6 300.503 151.762   6
 -11  -4  -6-39.7726 327.401   1
  11  -4   6 81.3420 146.005   6
 -11  -4   7-134.359 386.184   1
  11   4  -7 113.946 100.506   7
 -11  -4   7-63.9053 87.6721   4
  11  -4   7-33.2205 110.752   7
  11   4   7 15.2301 80.5060   6
 -11   4  -7 64.8428 89.9852   4
  11   4  -7 76.7952 72.9066   6
 -11  -4  -7 20.1998 261.908   1
  11  -4   7 16.3454 74.6742   6
 -11  -4   8 16.6372 388.082   1
  11   4  -8 367.157 160.878   7
  11  -4   8-50.1176 170.920   7
 -11  -4   8 10.9592 143.550   4
 -11   4  -8 430.295 168.314   4
  11   4  -8 294.788 150.291   6
  11  -4   8 65.7492 144.059   6
  11   4  -9-42.0237 91.2043   7
  11  -4   9 49.6861 110.287   7
 -11  -4   9-32.6254 82.9542   4
 -11   4  -9 13.1192 81.3645   4
 -11  -4   9 16.5207 365.059   1
  11   4  -9 26.5930 67.3615   6
  11  -4   9 16.5442 83.7725   6
 -11   4 -10 137.676 427.683   1
  11   4 -10 166.880 123.983   7
  11  -4  10 83.4143 128.420   7
 -11   4 -10 194.217 118.817   4
  11  -4  10 63.7672 98.5624   6
  11   4 -10 13.8006 93.9986   6
  11  -4  11 33.6032 272.605   7
 -11   4 -11 782.910 283.174   4
 -11   4 -11 337.977 497.275   1
  11  -4  11 337.414 272.086   6
  -4 -11  12 17.9395 109.224   5
 -11   4 -12-200.644 451.633   1
  11  -4  12-33.9015 134.350   7
 -11   4 -12 157.906 116.004   4
  11  -4  12 178.327 118.005   6
  -4 -11  13 36.7040 235.339   5
  11  -4  13 34.4771 239.569   7
 -11   4 -13 222.581 509.827   1
 -11   4 -13 889.761 261.807   4
  11  -4  13 392.693 241.421   6
   4 -11  14-19.5339 91.1687   5
 -11   4 -14-184.054 463.135   1
  11  -4  14-34.8302 116.447   7
 -11   4 -14 77.5654 106.215   4
  -4  11 -14 59.9066 67.9644   2
  11  -4  14 46.9593 78.8200   6
   4 -11  15-79.7893 176.997   5
  11  -4  15 17.8127 156.922   7
 -11   4 -15 365.783 154.405   4
   4 -11  15-39.8736 186.621   8
  11  -4  15 363.873 156.885   6
  -4  11 -15 168.285 133.085   2
   4 -11  16 20.1514 116.169   5
  -4 -11  16-19.3701 115.421   5
  -4 -11  16-58.6842 121.189   8
   4 -11  16-142.597 166.273   8
  11  -4  16 18.0141 112.621   7
 -11   4 -16 132.059 120.625   4
 -11   4 -16-125.333 521.630   1
  11  -4  16 191.947 107.600   6
   4  11 -16 75.3055 81.4813   2
  -4  11 -16 109.420 82.4321   2
   4  11 -17 61.6938 75.8635   2
  -4  11 -17 47.9061 76.5380   2
  -4  11 -17 57.0996 87.5084   3
   4 -11  17 41.1658 120.829   5
  -4 -11  17-19.4666 125.533   5
  -4 -11  17 120.189 125.885   8
 -11   4 -17 26.7160 114.599   4
   4 -11  17-41.6215 118.547   8
   4  11 -18 47.3683 66.8036   2
  -4  11 -18 32.6196 68.9831   2
  -4  11 -18 29.1579 91.7289   3
   4  11 -18 14.1185 81.9552   3
   4 -11  18-41.2646 108.527   5
  -4 -11  18-19.9243 126.755   5
  -4 -11  18-20.5102 107.888   8
   4 -11  18-63.7679 117.612   8
  -4  11 -19 33.2079 68.1674   2
   4  11 -19 16.1129 60.0936   2
  -4  11 -19-44.6562 92.4097   3
   4  11 -19 43.3459 81.2973   3
   4 -11  19-21.0635 118.358   5
  -4 -11  19 20.1179 119.898   5
  -4 -11  19-20.9911 117.952   8
   4 -11  19 21.7031 114.086   8
  -4  11 -20 50.8398 75.4880   2
   4  11 -20 49.4463 69.8085   2
  -4  11 -20 106.345 95.8526   3
   4  11 -20-29.2606 96.8874   3
   4 -11  20 42.4095 118.524   5
  -4 -11  20-61.6980 136.551   5
  -4 -11  20-42.9521 120.005   8
   4 -11  20 22.1514 127.540   8
  -4  11 -21 17.2920 80.3746   2
   4  11 -21 67.4124 72.8806   2
  -4  11 -21-15.3388 90.2960   3
   4  11 -21-14.9574 85.5932   3
   4 -11  21 21.6290 133.333   5
  -4 -11  21-21.0250 131.337   5
   4 -11  21 22.6009 146.277   8
  -4 -11  21 175.625 147.061   8
  -4  11 -22 105.783 93.6136   2
   4  11 -22 292.800 112.002   2
  -4  11 -22 46.9148 104.590   3
   4  11 -22 15.2689 95.6369   3
   4 -11  22-110.232 153.499   5
  -4 -11  22-42.9552 142.109   5
   4 -11  22 46.0909 147.979   8
  -4 -11  22 44.8693 144.426   8
  -4  11 -23 17.7700 91.9869   2
   4  11 -23-17.3951 75.6860   2
  -4  11 -23 79.6156 95.1521   3
   4 -11  23 67.3893 128.296   5
   4  11 -23-15.5897 89.2407   3
  -4 -11  23-21.9191 132.542   5
   4 -11  23-23.4785 151.191   8
  -4 -11  23-22.9032 152.659   8
  -4  11 -24 144.752 102.557   2
   4  11 -24 35.4976 102.525   2
  -4  11 -24-16.2128 103.331   3
   4 -11  24-45.7340 140.140   5
  -4 -11  24 45.4199 153.170   5
   4  11 -24 160.166 105.969   3
   4 -11  24 47.8321 151.561   8
  -4 -11  24 70.1171 158.936   8
   4 -11  25 23.6182 181.459   5
  -4  11 -25 184.152 171.269   2
   4  11 -25 416.339 179.438   2
  -4  11 -25 149.518 172.597   3
  -4 -11  25-23.1418 185.650   5
   4 -11  25 194.645 217.265   8
  -4 -11  25 23.8309 206.614   8
   4  11 -25 391.913 183.338   3
  -4  11 -26 18.7292 135.797   2
   4  11 -26 239.722 134.308   2
   4 -11  26-96.0606 189.672   5
  -4  11 -26 168.898 146.990   3
  -4 -11  26-23.5737 163.259   5
   4 -11  26 148.473 223.436   8
  -4 -11  26 121.375 200.307   8
   4  11 -26 149.694 134.604   3
  -4  11 -27 228.302 178.104   2
   4  11 -27 375.435 190.362   2
   4 -11  27 73.1812 192.490   5
   4 -11  27 100.581 213.675   8
  -4 -11  27 123.577 208.680   8
  -4 -11  27 73.8603 202.413   5
  -4  11 -27 154.443 173.779   3
   4  11 -27 280.533 179.469   3
  -4  11 -28 19.3183 90.7656   2
   4 -11  28-76.2405 161.101   5
   4 -11  28 76.5699 192.548   8
  -4 -11  28-175.925 176.037   8
  -4 -11  28 25.0287 148.681   5
  -4  11 -28 54.1061 106.818   3
   4  11 -28-17.8274 97.9607   3
   4  11 -28 229.072 112.782   2
   4  11 -29 290.968 136.091   2
  -4 -11  29 127.686 192.642   8
  -4 -11  29 26.2262 156.774   5
   4  11 -29 18.1130 112.946   3
 -11   5   0 412.739 245.896   4
 -11  -5   0 18.5677 390.621   1
  11   5   0 611.014 261.413   7
  11  -5   0-16.6414 239.414   7
  11   5   0 560.586 254.845   6
  11  -5   1-16.5311 150.596   6
 -11  -5  -1 226.147 351.230   1
 -11  -5   1 329.340 381.734   1
  11   5   1 261.483 171.568   7
  11   5  -1 602.318 193.605   7
  11  -5   1 16.4761 174.371   7
  11   5   1 183.344 161.353   6
  11   5  -1 202.168 163.378   6
 -11   5  -1 288.278 163.669   4
 -11  -5  -2 19.1333 420.674   1
  11  -5   2-16.5101 317.806   6
 -11  -5   2 90.1956 454.924   1
  11   5   2 796.332 341.280   7
  11   5  -2 625.250 340.009   7
  11  -5   2-65.8320 328.097   7
  11   5   2 701.509 336.723   6
  11   5  -2 788.887 338.962   6
 -11   5  -2 767.612 335.924   4
  11  -5   3 16.5056 142.931   6
 -11  -5   3 35.5834 357.962   1
  11   5  -3 185.012 158.640   7
  11  -5   3 16.4533 165.340   7
  11   5   3 363.396 166.164   6
  11   5  -3 324.294 166.271   6
 -11   5  -3 259.719 157.912   4
 -11  -5  -3-77.7156 305.587   1
  11  -5   4-16.5127 49.3591   6
 -11  -5   4-105.313 353.499   1
  11   5  -4 45.5972 79.9235   7
 -11  -5   4-20.5919 87.9908   4
  11  -5   4 16.1086 99.9114   7
  11   5   4 14.8708 72.4225   6
  11   5  -4 12.8014 70.8613   6
 -11  -5  -4-39.4664 261.977   1
 -11   5  -4 13.6741 63.7955   4
  11  -5   5-16.5384 108.006   6
 -11  -5   5-34.6461 353.787   1
 -11  -5   5 10.2586 122.653   4
  11  -5   5 16.1334 136.590   7
  11   5  -5 303.458 126.182   6
 -11   5  -5 314.867 139.045   4
  11   5  -5 210.082 139.362   7
  11  -5   6 33.1517 80.6908   6
  11   5  -6 59.2926 98.4882   7
 -11  -5   6-50.6856 101.878   4
 -11  -5   6 102.632 354.118   1
  11  -5   6 146.115 139.070   7
  11   5  -6 151.445 96.2618   6
 -11   5  -6 175.256 99.8603   4
  11  -5   7 33.2515 245.662   6
  11   5  -7 615.333 271.058   7
 -11  -5   7-10.3111 250.054   4
  11  -5   7 48.8641 259.258   7
 -11  -5   7 168.991 428.519   1
 -11   5  -7 851.845 271.516   4
  11   5  -7 985.468 268.255   6
  11  -5   8-33.3859 70.4342   6
  11   5  -8 57.3257 88.1955   7
 -11  -5   8 21.1901 82.5675   4
  11  -5   8 33.9196 107.811   7
 -11  -5   8-116.896 374.927   1
 -11   5  -8 67.8555 91.9571   4
  11   5  -8 25.4593 71.2966   6
  11  -5   9 33.5504 143.888   6
  11   5  -9 255.281 164.566   7
  11  -5   9 34.0909 170.735   7
 -11   5  -9 449.929 174.500   4
  11   5  -9 188.900 151.207   6
  11  -5  10-16.8816 125.912   7
 -11   5 -10 160.401 102.201   4
  11  -5  10 16.8672 90.9310   6
  11  -5  11-16.9903 162.980   7
 -11   5 -11-280.104 446.624   1
 -11   5 -11 349.750 157.204   4
  11  -5  11 152.796 146.409   6
  -5 -11  12-35.7641 198.527   5
 -11   5 -12 443.522 483.679   1
  11  -5  12 51.2969 206.913   7
 -11   5 -12 758.543 219.582   4
  11  -5  12 273.572 200.554   6
  -5 -11  13 18.2045 103.969   5
  11  -5  13-34.4696 118.798   7
 -11   5 -13 163.758 110.012   4
  11  -5  13-34.4632 80.6754   6
   5 -11  14-59.1080 188.202   5
  -5 -11  14-18.6359 160.703   5
  11  -5  14 157.590 164.254   7
 -11   5 -14 756.861 175.917   4
  -5  11 -14 15.1023 124.143   2
 -11   5 -14-328.929 531.496   1
  11  -5  14 364.962 158.050   6
   5 -11  15-60.3401 159.153   5
   5 -11  15-60.3233 136.202   8
  11  -5  15-17.6753 142.749   7
 -11   5 -15 340.125 135.154   4
  -5  11 -15 30.8499 84.5670   2
  11  -5  15 218.061 110.471   6
  -5 -11  16-19.5235 84.4355   8
  -5 -11  16-19.3299 106.781   5
 -11   5 -16 13.7333 106.420   4
   5 -11  16 20.5402 103.914   8
   5  11 -16 15.0333 49.4738   2
  -5  11 -16-15.7532 46.8944   2
   5  11 -17 15.4005 57.6183   2
  -5  11 -17-16.0861 63.5750   2
  -5  11 -17 143.805 101.730   3
   5  11 -17 82.6413 93.9593   3
   5 -11  17 62.2205 120.560   5
  -5 -11  17 77.7497 133.119   5
  -5 -11  17 19.9999 100.205   8
   5 -11  17-20.9753 106.673   8
   5  11 -18-15.7717 56.6936   2
  -5  11 -18 16.4269 63.3668   2
  -5  11 -18 88.0939 87.5792   3
   5  11 -18-56.4164 81.7842   3
   5 -11  18-62.3726 109.293   5
  -5 -11  18 19.8925 121.790   5
  -5 -11  18 40.9523 109.543   8
   5 -11  18 64.2458 104.238   8
  -5  11 -19 33.4324 88.6480   2
   5  11 -19 177.062 97.4603   2
  -5  11 -19 179.817 115.796   3
   5  11 -19-14.2911 114.950   3
   5 -11  19 21.2121 135.285   5
  -5 -11  19-40.1853 125.971   5
  -5 -11  19 41.9269 133.905   8
   5 -11  19 131.175 124.623   8
  -5  11 -20 34.1166 72.7876   2
   5  11 -20 49.4239 72.2387   2
  -5  11 -20 15.1349 90.8823   3
   5  11 -20-29.2435 85.4256   3
   5 -11  20 64.0679 124.122   5
  -5 -11  20 41.1024 122.918   5
  -5 -11  20-64.3650 124.692   8
   5 -11  20 44.6150 121.808   8
  -5  11 -21 243.586 124.692   2
   5  11 -21 252.701 121.746   2
  -5  11 -21 46.2979 111.204   3
   5  11 -21 29.8829 112.769   3
   5 -11  21-43.5383 143.944   5
  -5 -11  21-42.0306 154.674   5
   5 -11  21 22.7502 163.868   8
  -5 -11  21 65.8149 141.543   8
  -5  11 -22 17.7368 66.6462   2
   5  11 -22-17.2227 73.2254   2
  -5  11 -22 94.3771 95.4856   3
   5 -11  22 44.3673 144.693   5
   5  11 -22-167.962 93.9544   3
  -5 -11  22 21.4708 128.228   5
   5 -11  22-46.3779 147.675   8
  -5 -11  22 67.2637 130.119   8
  -5  11 -23 180.648 127.727   2
   5  11 -23 211.064 124.734   2
  -5  11 -23 48.0350 126.368   3
   5 -11  23 22.5965 158.847   5
  -5 -11  23 21.9186 155.540   5
   5  11 -23 233.927 140.892   3
   5 -11  23 189.000 173.685   8
  -5 -11  23-45.8039 163.535   8
  -5  11 -24 90.9558 96.7625   2
   5  11 -24 35.5163 82.3186   2
  -5  11 -24 65.1944 105.012   3
   5 -11  24 22.9972 144.469   5
  -5 -11  24-45.4223 146.235   5
   5  11 -24 16.0235 90.2776   3
   5 -11  24-24.0523 170.414   8
  -5 -11  24 23.3728 152.161   8
  -5  11 -25 18.5097 131.506   2
   5  11 -25 126.789 111.394   2
   5 -11  25-118.772 198.572   5
  -5 -11  25-23.1497 149.019   5
  -5  11 -25 217.036 121.754   3
   5 -11  25-24.4708 202.948   8
  -5 -11  25-71.5110 181.622   8
   5  11 -25 49.0197 92.0037   3
  -5  11 -26 301.025 172.865   2
   5  11 -26 166.108 152.414   2
   5 -11  26 24.1375 183.244   5
   5 -11  26-24.8734 212.542   8
  -5  11 -26 288.474 173.865   3
  -5 -11  26 97.1505 187.057   8
  -5 -11  26-24.2084 198.659   5
   5  11 -26 224.091 155.975   3
  -5  11 -27 19.1115 100.951   2
   5  11 -27 93.9673 102.733   2
   5 -11  27 122.572 156.133   5
   5 -11  27-25.2668 177.609   8
  -5 -11  27-49.4588 164.963   8
  -5 -11  27-24.6364 142.960   5
  -5  11 -27 17.2368 94.3285   3
   5  11 -27-52.6490 87.7689   3
   5 -11  28-25.6406 183.550   8
  -5 -11  28 25.1468 180.430   8
   5 -11  28 76.5939 160.429   5
  -5 -11  28-50.1047 167.379   5
  -5  11 -28 181.116 141.656   3
   5  11 -28 17.8484 109.885   3
   5  11 -28 267.632 137.949   2
  -5 -11  29 25.5587 165.744   8
  -5 -11  29-78.7915 155.541   5
   5  11 -29 19.0495 94.6886   3
   5  11 -29 155.410 105.533   2
  11   6   0 497.714 346.332   6
 -11  -6   0 19.0168 423.354   1
  11   6   1 231.083 200.919   6
  11   6  -1 294.055 202.568   6
 -11  -6   1 74.9090 331.926   1
 -11   6  -2 183.198 148.791   4
  11   6  -2 175.810 154.331   7
  11  -6   2-17.0553 167.374   7
  11   6  -2 352.823 162.000   6
 -11  -6   2-92.2051 322.975   1
 -11   6  -3-14.0651 58.0296   4
 -11  -6   3-36.3263 288.988   1
  11   6  -3 15.7485 58.9481   7
  11  -6   3 16.8962 106.290   7
  11   6  -3 26.7360 79.9351   6
  11  -6   4-16.9384 116.156   6
 -11  -6   4-17.8983 320.386   1
  11   6  -4 139.666 133.850   7
  11  -6   4 168.831 155.375   7
  11   6  -4 247.615 140.977   6
 -11   6  -4 323.191 141.659   4
  11  -6   5-16.9403 72.1235   6
 -11  -6   5 17.6381 326.300   1
  11   6  -5 76.3402 87.7933   7
  11  -6   5 66.0890 111.054   7
  11   6  -5 166.999 95.6921   6
 -11   6  -5 70.2452 87.8116   4
  11  -6   6-16.9550 88.2353   6
 -11  -6   6 34.7633 305.906   1
  11   6  -6 135.493 107.929   7
 -11  -6   6-71.9998 112.988   4
  11  -6   6 16.5355 126.454   7
  11   6  -6 228.093 111.286   6
 -11   6  -6 462.866 124.927   4
  11  -6   7 16.9796 78.9232   6
 -11  -6   7 17.1386 296.386   1
  11   6  -7 44.5485 87.2665   7
 -11  -6   7-10.1456 93.5981   4
  11  -6   7-82.8196 127.615   7
  11   6  -7 224.911 98.2653   6
 -11   6  -7 168.543 94.6706   4
  11  -6   8-17.0217 117.914   6
  11  -6   8 16.6739 145.167   7
  11  -6   9-17.0787 56.3093   6
  11  -6   9-16.7282 113.836   7
 -11   6  -9 28.2386 84.1241   4
  11  -6  10 17.1468 80.1919   6
  11  -6  10-34.8419 132.755   7
 -11   6 -10 236.813 109.646   4
  11  -6  11-17.2293 70.5733   6
  11  -6  11-17.5051 119.121   7
 -11   6 -11 41.9800 78.6200   4
  11  -6  12 86.6213 101.533   6
  -6 -11  12 35.6610 125.236   5
  11  -6  12 17.3374 126.254   7
 -11   6 -12 225.054 123.311   4
  11  -6  13-34.8674 101.986   6
  -6 -11  13 90.7932 136.578   5
  11  -6  13 17.4511 117.120   7
 -11   6 -13 212.287 106.671   4
  11  -6  14 35.1049 103.833   6
   6 -11  14 19.8847 136.052   5
  -6 -11  14 37.1920 139.382   5
  11  -6  14-52.6547 142.059   7
 -11   6 -14 165.841 523.844   1
 -11   6 -14 427.394 143.149   4
   6 -11  15-60.8892 116.343   5
 -11   6 -15 83.9686 94.9868   4
  -6  11 -15 15.5616 39.8057   2
   6 -11  16-20.4939 112.815   5
   6 -11  16-20.7193 98.0867   8
  -6 -11  16 58.4736 96.4343   8
   6  11 -16 90.1000 58.5842   2
  -6  11 -16-15.8855 57.4918   2
  -6  11 -17-28.9986 88.7788   3
   6  11 -17 13.7614 84.2713   3
   6 -11  17 41.8340 119.290   5
  -6 -11  17 38.8174 123.373   5
  -6 -11  17-19.9687 95.1087   8
   6 -11  17-21.1551 107.107   8
   6  11 -17 15.3852 48.4560   2
  -6  11 -17 16.2163 53.5291   2
   6  11 -18 94.5896 85.7112   2
  -6  11 -18 148.999 96.6561   2
  -6  11 -18 118.368 117.495   3
   6  11 -18 155.067 109.946   3
   6 -11  18-41.9186 135.569   5
  -6 -11  18-19.6163 141.294   5
   6 -11  18 64.7837 124.946   8
  -6 -11  18-20.4572 124.993   8
   6  11 -19 112.999 86.4823   2
  -6  11 -19 50.6748 78.2430   2
  -6  11 -19 75.4818 103.503   3
   6  11 -19 99.9976 97.4851   3
   6 -11  19-64.1427 138.079   5
  -6 -11  19-20.0774 127.061   5
  -6 -11  19-20.9519 122.041   8
   6 -11  19-44.0676 111.964   8
  -6  11 -20 103.093 92.4076   2
   6  11 -20 181.238 102.125   2
  -6  11 -20 152.412 117.504   3
   6  11 -20 14.6245 102.795   3
   6 -11  20-21.5171 141.137   5
  -6 -11  20-82.1702 141.448   5
  -6 -11  20 21.4404 128.941   8
   6 -11  20 22.4793 150.131   8
  -6  11 -21 70.0624 88.1296   2
   6  11 -21 168.539 104.768   2
  -6  11 -21 77.6835 100.537   3
   6 -11  21 65.7815 148.008   5
   6  11 -21 14.9456 104.038   3
  -6 -11  21-42.0283 142.427   5
   6 -11  21-22.9160 130.459   8
  -6 -11  21 131.612 144.824   8
  -6  11 -22 124.936 97.0442   2
   6  11 -22 34.4631 88.0845   2
  -6  11 -22 142.367 112.030   3
   6 -11  22-22.3426 146.182   5
   6  11 -22 106.950 112.008   3
  -6 -11  22 64.4140 150.422   5
   6 -11  22-46.7027 155.603   8
  -6 -11  22-22.4265 132.487   8
  -6  11 -23 72.7136 80.5615   2
   6  11 -23 52.8101 78.1366   2
  -6  11 -23-16.1112 89.3029   3
   6 -11  23 45.4834 124.830   5
  -6 -11  23 89.0950 139.124   5
   6  11 -23-15.7168 95.2013   3
   6 -11  23 47.5682 152.117   8
  -6 -11  23-45.8174 148.346   8
  -6  11 -24 129.521 89.8096   2
   6  11 -24 17.9720 87.7698   2
  -6  11 -24 16.3958 96.6259   3
   6 -11  24 23.1436 145.502   5
  -6 -11  24-22.7258 144.848   5
   6 -11  24 72.6152 169.612   8
  -6 -11  24-70.1603 169.061   8
   6  11 -24 208.566 120.766   3
  -6  11 -25-67.1400 115.288   3
  -6  11 -25-37.2347 117.916   2
   6  11 -25 72.5566 110.637   2
   6 -11  25-23.8914 166.698   5
   6 -11  25-147.720 210.735   8
  -6 -11  25-95.4375 201.501   8
  -6 -11  25 115.860 148.078   5
   6  11 -25-16.3616 102.635   3
  -6  11 -26 56.7567 99.1449   2
   6  11 -26 92.4453 91.6989   2
   6 -11  26 24.2705 136.544   5
   6 -11  26-125.095 168.511   8
  -6 -11  26-24.3180 149.021   8
  -6  11 -26 34.1126 108.800   3
  -6 -11  26-24.2394 140.552   5
   6  11 -26 103.595 113.991   3
  -6  11 -27 192.066 145.157   2
   6  11 -27 169.393 131.849   2
   6 -11  27 24.6407 166.110   5
   6 -11  27 50.8174 180.809   8
  -6 -11  27 99.0403 183.914   8
  -6 -11  27 123.334 180.075   5
  -6  11 -27 86.6070 133.806   3
   6  11 -27 140.622 131.562   3
   6  11 -28 95.7522 107.051   2
  -6 -11  28-25.1845 170.346   8
   6 -11  28 25.6568 157.565   5
  -6 -11  28-77.6585 156.725   5
  -6  11 -28 181.965 128.394   3
   6  11 -28 89.4393 109.224   3
   6  11 -29 58.3968 94.8218   2
  -6 -11  29-51.2085 168.921   8
  -6 -11  29 52.6091 145.666   5
   6  11 -29 57.2694 104.066   3
  11   7  -1 258.755 205.449   6
  11   7  -2-14.1469 84.7844   6
  11   7  -3 125.303 121.702   6
  11  -7   4-35.0012 111.655   7
  11   7  -4 148.305 93.0480   6
  11  -7   5 69.3757 142.268   7
  11   7  -5 172.537 126.591   6
 -11   7  -6 446.952 335.510   4
  11  -7   6 156.011 343.760   7
  11   7  -6 749.607 343.198   6
 -11  -7   6-17.7636 410.206   1
 -11   7  -7 245.150 133.447   4
  11  -7   7 50.9113 155.372   7
  11  -7   8 34.8412 79.7341   6
  11  -7   8-101.932 122.668   7
  11  -7   9-17.4520 88.9724   6
  11  -7   9 34.1796 126.907   7
 -11   7  -9 317.981 118.252   4
  11  -7  10 17.4955 76.0006   6
  11  -7  10 68.5449 126.726   7
 -11   7 -10 159.377 96.8273   4
  11  -7  11-35.1064 71.9743   6
  11  -7  11 71.3191 126.349   7
 -11   7 -11 101.505 80.1645   4
  11  -7  12 52.8759 101.125   6
  -7 -11  12-17.6883 130.651   5
  11  -7  12 89.5259 150.072   7
 -11   7 -12 43.6740 86.1540   4
  11  -7  13-17.7045 82.5905   6
   7 -11  13 78.7269 116.682   5
  -7 -11  13 54.3447 121.914   5
  11  -7  13-17.7157 150.281   7
 -11   7 -13 87.7263 85.9306   4
   7 -11  14-20.0828 123.541   5
  -7 -11  14-18.3563 97.2798   5
   7 -11  15 81.0785 123.744   5
  -7  11 -15 47.1072 72.1300   2
   7 -11  16-20.6870 121.635   5
   7 -11  16-20.9153 90.7343   8
   7  11 -16-15.0039 45.2286   2
  -7  11 -16 64.1248 50.8040   2
  -7  11 -17 102.347 100.745   3
   7  11 -17 41.2640 98.6937   3
   7 -11  17 20.7248 112.806   5
  -7 -11  17 116.359 135.617   5
   7 -11  17-42.6997 105.617   8
  -7 -11  17 59.8522 116.132   8
   7  11 -17 92.2701 78.4579   2
  -7  11 -17 49.0809 69.9588   2
  -7  11 -18 164.112 136.211   3
   7  11 -18 181.374 117.635   3
   7 -11  18-21.1404 142.704   5
  -7 -11  18-19.6061 142.001   5
   7 -11  18 65.3612 134.249   8
  -7 -11  18 20.4474 125.284   8
   7  11 -18 220.667 109.590   2
  -7  11 -18 66.7789 104.376   2
  -7  11 -19 17.0325 75.5087   2
  -7  11 -19 76.0904 108.313   3
   7 -11  19-43.1229 128.756   5
  -7 -11  19 40.1549 134.240   5
  -7 -11  19 83.7762 131.913   8
   7 -11  19 22.2239 134.401   8
  -7  11 -20 138.914 100.441   2
  -7  11 -20 153.600 116.990   3
   7 -11  20-65.0610 146.695   5
  -7 -11  20-41.1068 145.612   5
  -7 -11  20 42.8811 142.038   8
   7 -11  20 22.6633 121.303   8
  -7  11 -21 105.894 89.4437   2
  -7  11 -21 31.3075 93.7950   3
   7 -11  21-66.3134 133.843   5
  -7 -11  21-21.9457 117.844   8
   7 -11  21 277.169 165.206   8
  -7  11 -22 233.730 131.094   2
  -7  11 -22 143.404 136.263   3
   7 -11  22 112.536 155.806   5
   7 -11  22-94.1202 162.470   8
  -7 -11  22 89.7760 166.287   8
  -7  11 -23 109.811 82.2175   2
  -7  11 -23-16.2196 91.9348   3
   7 -11  23-22.9103 136.987   5
   7 -11  23-71.8581 143.166   8
  -7  11 -24 242.070 162.197   2
   7 -11  24 47.3304 175.184   5
  -7  11 -24 66.0083 149.262   3
   7 -11  24 121.852 212.017   8
  -7  11 -25 170.415 105.956   2
   7 -11  25 24.0570 149.659   5
   7 -11  25 123.909 185.457   8
  -7  11 -25 33.7909 117.140   3
  -7  11 -26 38.0604 81.6752   2
   7 -11  26 24.4331 138.052   5
   7 -11  26-50.3546 158.786   8
  -7  11 -26 34.3229 91.4961   3
  -7  11 -27 96.5762 100.717   2
   7 -11  27-25.5591 158.501   8
   7 -11  27 101.804 145.245   5
  -7  11 -27 18.0363 101.470   3
  11   8  -3 100.284 106.338   6
  11   8  -4 14.0910 77.1948   6
  11   8  -5 531.575 385.844   6
  11  -8   7 17.8205 103.833   7
  11  -8   8-122.034 156.599   7
  11  -8   9-139.552 167.179   7
 -11   8 -10 74.1343 137.193   4
  11  -8  10 385.810 225.723   7
 -11   8 -11 14.8551 61.7709   4
  11  -8  11 17.5748 135.518   7
  11  -8  12 18.2699 136.010   7
 -11   8 -12 89.3319 72.3402   4
   8 -11  13 19.8973 101.602   5
   8 -11  14-20.2934 105.562   5
   8 -11  15 102.408 139.653   5
  -8  11 -16 57.8598 91.0964   3
   8 -11  16-20.8893 117.495   5
  -8  11 -16-16.1840 48.7912   2
  -8  11 -17-29.5153 89.2362   3
   8 -11  17-62.7646 136.228   5
   8 -11  17 43.1173 102.731   8
  -8  11 -17 16.5116 59.3283   2
  -8  11 -18 15.0521 95.2319   3
   8 -11  18 128.047 135.283   5
   8 -11  18 65.9676 114.857   8
  -8  11 -18 16.8445 64.5671   2
  -8  11 -19 274.831 130.649   2
  -8  11 -19 167.118 135.146   3
   8 -11  19-64.4130 149.442   5
   8 -11  19-44.8588 138.868   8
  -8  11 -20-17.5156 57.7763   2
  -8  11 -20 15.4886 92.2890   3
   8 -11  20-43.7634 124.778   5
   8 -11  20 22.8610 117.924   8
  -8  11 -21 517.532 194.962   2
  -8  11 -21 189.370 193.073   3
   8 -11  21 44.5737 206.447   5
   8 -11  21-23.2927 194.631   8
  -8  11 -22-18.1218 74.1751   2
  -8  11 -22-16.0553 88.7264   3
   8 -11  22 45.3878 125.387   5
   8 -11  22 71.1685 137.264   8
  -8  11 -23 55.3274 112.726   2
  -8  11 -23 114.376 111.828   3
   8 -11  23-46.1755 156.702   5
   8 -11  23 72.4507 184.779   8
  -8  11 -24-18.7550 72.5323   2
   8 -11  24 71.5283 143.382   5
  -8  11 -24 83.6712 98.9225   3
   8 -11  24-24.5603 149.609   8
  -8  11 -25 19.0608 86.7179   2
   8 -11  25 24.2237 133.848   5
   8 -11  25 49.9227 146.546   8
  -8  11 -25-34.0063 86.0751   3
  -8  11 -26 19.3605 90.0967   2
   8 -11  26-50.7082 157.093   8
   8 -11  26-24.5967 140.188   5
  -8  11 -26 17.2706 90.6705   3
   8 -11  27 25.7323 159.980   8
   8 -11  27-25.6197 157.244   5
  -8  11 -27 36.2992 97.8637   3
   9 -11  14-40.5949 115.608   5
   9 -11  15-41.3958 121.413   5
  -9  11 -16-29.2191 88.8989   3
   9 -11  16-20.7291 129.751   5
  -9  11 -17-59.6062 112.726   3
   9 -11  17-42.2845 120.586   5
  -9  11 -17-50.0212 75.6282   2
  -9  11 -18 75.9941 117.105   3
   9 -11  18 129.306 145.990   5
   9 -11  18 66.6326 127.033   8
  -9  11 -18 68.0221 76.6350   2
  -9  11 -19 61.3315 100.909   3
   9 -11  19-43.3534 130.819   5
   9 -11  19-45.2891 110.065   8
  -9  11 -19-17.3368 62.0206   2
  -9  11 -20 88.3272 99.9425   2
  -9  11 -20 234.361 134.495   3
   9 -11  20-22.0859 139.703   5
   9 -11  20-23.0806 137.239   8
  -9  11 -21 53.9972 72.2475   2
  -9  11 -21-47.7073 93.9674   3
   9 -11  21-89.9713 130.574   5
   9 -11  21-23.5110 119.433   8
  -9  11 -22 18.3217 99.5740   2
  -9  11 -22 145.732 121.556   3
   9 -11  22 68.6848 145.673   5
   9 -11  22 47.8539 149.564   8
  -9  11 -23 55.7601 80.0934   2
   9 -11  23 46.5625 142.740   5
   9 -11  23 194.820 160.424   8
  -9  11 -23-65.8844 114.827   3
  -9  11 -24 37.7936 76.3066   2
   9 -11  24-48.0749 139.773   5
   9 -11  24 173.363 150.126   8
  -9  11 -24-16.8611 91.1828   3
  -9  11 -25-19.2008 88.0387   2
   9 -11  25-75.4770 153.448   8
   9 -11  25 24.4164 147.033   5
  -9  11 -25-51.3989 101.572   3
  -9  11 -26-19.4936 72.3655   2
   9 -11  26 25.5436 141.103   8
   9 -11  26-25.4410 169.322   5
  -9  11 -26 17.3947 86.2901   3
   9 -11  27 77.4105 146.612   5
  -9  11 -27 36.5398 106.598   3
 -10  11 -15 28.9532 81.1936   3
 -10  11 -16 29.5317 100.388   3
 -10  11 -17-30.1013 85.7238   3
 -10  11 -18-75.9540 113.691   3
 -10  11 -18-17.1782 63.3931   2
 -10  11 -19 15.4842 94.1454   3
 -10  11 -19 17.5091 58.7413   2
 -10  11 -20-15.7751 102.847   3
 -10  11 -20 35.6743 66.5502   2
 -10  11 -21 128.384 108.679   3
 -10  11 -21-18.1597 73.8569   2
 -10  11 -22-18.4866 67.2283   2
 -10  11 -22-16.3329 88.0990   3
 -10  11 -23-18.8056 75.7636   2
 -10  11 -24-38.2185 82.5468   2
 -10  11 -25-19.3560 82.5750   2
 -10  11 -26-58.9414 98.2460   2
  12   0   0 571.274 305.012   7
 -12   0   0 266.877 294.602   4
  12   0   0 358.617 291.427   6
 -12   0  -1-310.461 586.457   1
  12   0   1-65.6734 142.013   7
  12   0  -1-48.7199 124.812   7
 -12   0  -1 24.6355 126.421   4
 -12   0   1 37.9453 107.958   4
  12   0   1 29.7057 94.3659   6
  12   0  -1 15.5148 84.3198   6
  12   0   2 1254.75 665.901   7
 -12   0  -2 1487.58 659.342   4
  12   0  -2 968.751 650.770   7
 -12   0   2 919.782 645.187   4
  12   0   2 657.761 644.531   6
  12   0  -2 571.646 640.968   6
  12   0   3 266.116 195.556   7
 -12   0  -3 474.396 178.668   4
  12   0  -3-49.0966 122.424   7
 -12   0   3-38.4535 112.276   4
  12   0   3 75.3009 115.906   6
  12   0  -3 32.1967 102.617   6
  12   0  -4 2203.74 886.878   7
 -12   0   4 1573.22 874.828   4
 -12   0  -4 653.960 872.944   4
  12   0   4 1883.36 879.908   6
  12   0  -4 546.035 868.656   6
  12   0  -5 16.0363 70.9391   6
  12   0   5-17.0431 99.7200   7
 -12   0  -5 12.2139 98.8310   4
  12   0  -5 125.748 110.181   7
 -12   0   5-26.1988 93.1029   4
  12   0   5 29.6859 83.3400   6
  12   0  -6 160.266 811.582   6
 -12   0  -6-121.574 903.841   1
 -12   0   6 1427.06 823.709   4
 -12   0  -6 1121.72 821.120   4
  12   0  -7-16.0320 57.3734   6
  12   0   7-17.5860 107.568   7
 -12   0  -7-24.1970 109.368   4
  12   0  -7-15.7091 107.993   7
  12   0   7-14.9771 78.6457   6
 -12   0   7 39.9938 71.2457   4
 -12   0  -8-537.413 500.597   1
  12   0  -8 16.0490 286.162   6
 -12   0  -8 293.394 301.334   4
  12   0  -8 1069.53 327.979   7
 -12   0   8 787.734 305.503   4
  12   0  -9 16.0809 58.7024   6
 -12   0  -9 12.3584 99.5438   4
  12   0   9 35.9472 106.144   7
  12   0  -9 47.0911 105.124   7
  12   0   9-30.6052 86.6773   6
 -12   0   9 67.0556 70.1213   4
 -12   0  10 94.1740 311.067   4
 -12   0 -10 112.502 322.287   4
  12   0  10 1102.79 346.536   7
  12   0 -10 188.889 328.037   7
  12   0  10 1253.99 345.175   6
 -12   0 -11-37.6062 104.347   4
  12   0 -11-15.7991 106.599   7
  12   0  11 15.6613 84.0389   6
  12   0 -12-15.8710 95.1174   7
  12   0 -13-16.3053 110.301   7
  12   0  14 77.4163 105.662   7
  12   0 -14 49.2090 118.867   7
   0 -12  15 20.3633 121.833   5
  12   0  15 19.6480 85.8433   7
   0  12 -15 15.6404 50.5665   2
   0 -12  16 20.7611 199.255   5
  12   0  16 150.468 199.822   6
   0  12 -16 654.053 203.346   2
   0 -12  16-41.5042 197.090   8
 -12   0 -16 137.312 404.877   1
   0 -12  17-20.9421 123.609   5
   0 -12  17-21.1677 103.705   8
  12   0  17 152.604 103.153   6
   0  12 -17-16.2684 55.0916   2
   0  12 -18 993.629 397.821   3
   0 -12  18 21.3490 386.011   5
   0 -12  18 43.1737 381.637   8
   0  12 -18 1310.65 399.689   2
  12   0  18 173.782 383.777   6
   0  12 -19-16.9175 71.9544   2
   0  12 -19-60.4845 106.848   3
   0 -12  19-21.3646 128.697   5
   0 -12  19 22.0123 108.789   8
  12   0  19-35.2548 92.9862   6
   0  12 -20 1155.93 580.494   3
   0 -12  20-21.7680 565.157   5
   0 -12  20 22.4362 566.315   8
   0  12 -21 17.5194 87.7343   2
   0  12 -21 62.8172 96.7948   3
   0 -12  21-43.7681 142.881   5
   0 -12  21-22.8559 132.768   8
   0  12 -22 918.043 492.115   3
   0 -12  22-44.5561 481.581   5
   0 -12  22 23.2822 481.369   8
   0  12 -23 18.1621 89.3397   2
   0  12 -23 96.6706 106.470   3
   0 -12  23 158.694 146.156   5
   0 -12  23 23.7021 140.829   8
   0  12 -24 739.226 250.664   2
   0  12 -24 327.489 240.069   3
   0 -12  24-46.1273 245.210   5
   0 -12  24-48.2193 256.485   8
   0  12 -25-56.3658 89.7445   2
   0  12 -25 49.9402 101.140   3
   0 -12  25-93.7656 176.750   5
   0 -12  25-73.5362 192.557   8
   0  12 -26 94.4037 104.904   2
   0 -12  26 96.6957 170.709   5
   0  12 -26 16.9148 110.601   3
   0 -12  26 24.9083 172.114   8
   0  12 -27 57.5278 90.5327   2
   0 -12  27 24.5352 143.217   5
   0 -12  27-25.2861 165.502   8
   0  12 -27 69.1569 104.695   3
   0  12 -28 97.2509 99.3120   2
   0 -12  28-49.7755 160.269   5
   0  12 -28 52.6043 106.234   3
  12   1   0 113.697 211.746   7
 -12  -1   0 244.109 203.887   4
  12  -1   0 83.5673 212.431   7
 -12   1   0 575.425 221.232   4
  12   1   0 279.433 198.760   6
  12  -1   0 131.543 191.810   6
  12   1   1 1260.11 410.452   7
 -12  -1  -1 1088.44 393.559   4
 -12   1  -1 1145.19 396.122   4
  12   1  -1 242.020 376.210   7
  12  -1   1 369.291 384.572   7
 -12  -1   1 703.398 385.699   4
  12  -1  -1 183.214 371.390   7
 -12   1   1 365.033 369.599   4
  12   1   1 789.810 378.237   6
  12   1  -1 394.535 368.278   6
  12  -1   1 363.262 372.800   6
  12  -1  -1 65.5549 359.095   6
 -12  -1  -2 775.074 304.058   4
  12   1  -2 289.023 290.613   7
  12  -1  -2 224.322 282.526   7
 -12  -1   2 325.618 284.493   4
  12   1   2 709.373 309.972   6
 -12   1   2 182.106 274.271   4
  12   1  -2 199.409 273.045   6
  12  -1   2 222.224 280.678   6
  12  -1  -2 98.0891 271.355   6
  12  -1  -3 179.530 462.434   6
  12   1  -3 1421.82 494.351   7
  12   1   3 872.104 485.721   7
 -12  -1  -3 180.402 469.193   4
 -12  -1  -3-138.314 684.992   1
  12  -1  -3 575.879 475.499   7
 -12   1  -3 1165.46 483.200   4
 -12  -1   3 572.820 470.664   4
 -12   1   3 745.927 470.383   4
  12   1   3 847.093 476.255   6
  12  -1   3 606.697 471.439   6
  12   1  -3 717.355 471.583   6
  12  -1  -4-48.9304 80.5314   6
 -12  -1  -4-70.7925 125.738   4
  12   1   4-50.7965 121.882   7
  12  -1   4 33.6173 125.533   7
  12   1  -4-47.7222 121.080   7
 -12   1  -4-75.6725 138.185   4
  12  -1  -4 15.9836 100.094   7
 -12  -1   4-12.4035 95.3658   4
  12   1   4-29.1795 111.381   6
 -12   1   4-13.3131 86.2622   4
  12  -1   4-30.4424 93.1273   6
  12   1  -4-15.1963 79.8294   6
  12  -1  -5 32.6258 657.311   6
  12  -1   5 1591.71 683.490   7
  12   1  -5 3348.32 700.243   7
 -12   1  -5 1536.93 673.736   4
 -12  -1  -5 131.060 660.215   4
  12  -1  -5 509.527 666.933   7
  12   1   5 2048.38 681.692   6
  12  -1   5 1778.56 679.382   6
 -12  -1   5 971.601 667.631   4
 -12   1  -5 923.822 786.916   1
 -12   1   5 1002.98 668.830   4
  12   1  -5 712.534 667.341   6
  12  -1  -6-32.6616 60.8330   6
 -12   1  -6-445.603 422.992   1
 -12  -1  -6-12.0387 100.058   4
  12   1   6-17.4924 99.8236   7
  12  -1   6 17.0708 104.526   7
 -12   1  -6 89.6090 97.6857   4
  12   1  -6 16.0584 99.6241   7
  12  -1  -6-31.8730 114.128   7
 -12  -1   6-12.5889 79.1539   4
  12   1   6 29.7871 71.0443   6
  12  -1   6 30.9115 75.2910   6
 -12   1   6 40.7149 63.3568   4
  12   1  -6-15.7964 75.3303   6
  12   1  -7 488.870 753.425   6
  12  -1  -7-16.3625 747.741   6
  12   1   7 2681.90 783.184   7
  12  -1   7 2671.99 786.498   7
  12   1  -7 4568.71 805.455   7
 -12   1  -7 2100.10 768.690   4
  12  -1  -7 287.394 757.452   7
  12  -1   7 4034.71 789.760   6
 -12  -1  -7 185.340 856.883   1
 -12   1   7 1458.65 761.605   4
 -12  -1   7 1237.74 759.449   4
 -12   1  -7 1839.54 888.342   1
 -12  -1  -7 108.577 751.793   4
  12   1  -8-15.7621 62.7396   6
  12   1   8-18.0905 91.6464   7
 -12  -1  -8-36.6083 90.7286   4
 -12   1  -8 206.133 426.083   1
  12  -1   8 70.0685 124.208   7
 -12   1  -8-12.5411 96.5005   4
 -12  -1  -8 20.8393 384.617   1
  12   1  -8 32.0330 113.585   7
  12  -1  -8-32.0222 101.830   7
  12   1   8-30.4631 75.7139   6
 -12  -1   8 12.8859 72.4826   4
  12  -1   8-15.2539 83.0333   6
 -12   1   8 13.6742 57.7615   4
 -12   1   9 137.260 471.413   4
  12   1  -9-31.5282 470.126   6
 -12   1  -9 354.064 628.665   1
  12   1  -9 1760.96 506.772   7
  12  -1   9 1324.84 505.426   7
 -12   1  -9 557.174 484.398   4
  12  -1  -9 65.6848 478.270   7
  12   1   9 1741.98 501.278   6
  12  -1   9 2295.44 509.096   6
 -12  -1   9 262.436 476.001   4
  12   1   9 1446.62 505.195   7
  12   1 -10 15.7809 52.5153   6
 -12   1 -10 21.0245 411.483   1
  12  -1  10-18.0939 109.477   7
 -12   1 -10-12.4360 115.350   4
  12   1 -10 46.3873 109.836   7
  12  -1 -10 32.9863 98.4933   7
  12   1  10 62.4357 90.6387   6
  12  -1  10-15.5682 87.7253   6
 -12  -1  10-13.1391 57.3590   4
  12   1 -11-15.8067 118.515   6
 -12   1 -11 75.4306 144.866   4
  12   1 -11 294.358 168.378   7
  12  -1 -11 16.5784 149.775   7
  12   1  11 379.462 152.964   6
  12  -1  11 467.363 158.734   6
 -12  -1  11 13.1953 118.671   4
 -12  -1  12 13.2363 49.4442   4
 -12   1 -12 25.4236 101.046   4
  12   1 -12-77.6568 118.489   7
  12  -1 -12 116.748 121.722   7
  12  -1  12-15.7558 81.4127   6
 -12  -1 -13-222.375 363.819   1
  12   1  13-38.6826 86.2976   7
  12   1 -13-15.5285 104.378   7
   1 -12  15 102.326 122.278   5
  -1 -12  15-202.730 130.922   5
  12  -1  15 19.4341 113.811   7
  12   1  15 16.8711 104.198   6
   1  12 -15 124.611 80.4394   2
  -1  12 -15 172.861 82.4029   2
 -12   1 -16-45.2808 410.085   1
   1 -12  16-20.8595 123.046   5
  -1 -12  16-41.3485 121.964   5
  -1 -12  16 103.322 109.174   8
   1 -12  16 20.8553 99.9837   8
  12  -1  16 39.4431 86.1617   7
  12   1  16-17.1138 90.6750   6
   1  12 -16 31.7808 43.4689   2
  -1  12 -16 16.0232 46.5990   2
 -12   1 -17 344.142 408.598   1
   1 -12  17-21.0359 208.322   5
  -1 -12  17-62.5794 218.875   5
  -1 -12  17-42.1672 207.403   8
   1 -12  17-21.2634 203.563   8
  12  -1  17 39.9735 198.644   7
 -12   1 -17 40.2324 207.516   4
  12  -1  17 402.700 224.947   6
   1  12 -17 907.920 222.067   2
  -1  12 -17 751.463 215.495   2
   1  12 -18-16.5384 59.4208   2
  -1  12 -18 49.9782 52.5611   2
  -1  12 -18-14.8908 81.1094   3
   1  12 -18-14.7850 83.1642   3
   1 -12  18-21.4390 112.689   5
  -1 -12  18-85.0825 123.178   5
  -1 -12  18-43.0134 104.680   8
 -12   1 -18-13.5887 101.042   4
  12  -1  18-17.0093 81.1223   6
 -12   1 -18-23.2631 336.892   1
   1 -12  18 43.3680 103.324   8
  -1  12 -19 622.182 338.822   3
   1  12 -19 723.602 344.072   3
   1 -12  19-21.4546 334.433   5
  -1 -12  19 42.5835 336.123   5
  -1 -12  19 21.9362 332.517   8
   1 -12  19-44.2001 335.672   8
 -12   1 -19-41.3206 331.970   4
   1  12 -19 1264.86 352.150   2
  -1  12 -19 1748.85 364.129   2
  12  -1  19 258.656 342.030   6
   1  12 -20-17.1986 59.8060   2
  -1  12 -20 34.6127 64.8868   2
  -1  12 -20 15.4672 95.0335   3
   1  12 -20 76.8427 93.1938   3
   1 -12  20-21.8551 117.122   5
  -1 -12  20-21.7054 127.726   5
  -1 -12  20-44.7291 119.836   8
   1 -12  20-22.5197 126.717   8
  12  -1  20 52.4605 88.9318   6
  -1  12 -21 1071.12 438.922   3
   1  12 -21 728.661 429.383   3
   1 -12  21-87.8646 425.870   5
  -1 -12  21 65.4621 422.813   5
  -1 -12  21-22.7888 427.569   8
   1 -12  21-22.9422 426.679   8
  -1  12 -21 1318.06 439.400   2
   1  12 -21 1520.08 443.762   2
  -1  12 -22 17.8978 79.4426   2
   1  12 -22-17.8030 63.7232   2
  -1  12 -22 15.8771 93.2179   3
   1  12 -22-15.7911 94.0279   3
   1 -12  22-44.7123 140.299   5
  -1 -12  22-44.4469 130.461   5
   1 -12  22 23.3575 135.144   8
  -1 -12  22 46.4395 128.285   8
  -1  12 -23 765.035 322.613   2
   1  12 -23 870.139 323.766   2
  -1  12 -23 662.260 314.322   3
   1  12 -23 450.178 311.614   3
   1 -12  23 68.2334 317.699   5
  -1 -12  23-22.6139 310.922   5
   1 -12  23-47.5420 313.629   8
  -1 -12  23 23.6428 313.323   8
  -1  12 -24 18.5242 78.2250   2
   1  12 -24-73.7788 91.7130   2
  -1  12 -24 32.8352 103.208   3
   1  12 -24-16.3439 96.1362   3
   1 -12  24-69.3770 139.703   5
  -1 -12  24 69.0353 164.755   5
   1 -12  24 24.1815 146.069   8
  -1 -12  24-24.0553 165.469   8
  -1  12 -25 75.3172 104.315   2
   1  12 -25 37.5153 100.572   2
  -1  12 -25-16.6869 111.120   3
   1  12 -25 49.8586 99.0462   3
   1 -12  25-117.493 201.961   5
   1 -12  25-122.897 208.165   8
  -1 -12  25-636.033 219.624   8
  -1 -12  25-116.959 176.839   5
  -1 -12  26-144.784 151.995   5
  -1  12 -26-38.2593 85.9063   2
   1  12 -26 18.8590 86.7618   2
   1 -12  26 72.7130 150.758   5
   1  12 -26-17.0068 96.3643   3
   1 -12  26-24.9630 149.191   8
  -1 -12  26 74.5844 154.609   8
  -1  12 -26-50.8373 112.307   3
  -1  12 -27 76.8334 103.525   2
   1  12 -27 57.4549 95.9746   2
   1 -12  27-24.5931 151.025   5
  -1 -12  27 73.4913 158.098   5
  -1  12 -27 17.3173 93.5182   3
   1 -12  27-25.3469 169.243   8
  -1 -12  27-50.4930 162.899   8
   1  12 -27-17.2688 97.8694   3
   1 -12  28-24.9313 142.523   5
  -1 -12  28 49.7044 133.241   5
  -1 -12  28-76.8387 167.001   8
  -1  12 -28-17.5662 96.0955   3
   1  12 -28-17.5180 95.8354   3
  12   2   0-16.3846 126.648   7
 -12  -2   0-11.7610 115.722   4
 -12  -2   0 328.282 487.520   1
  12  -2   0-16.3285 109.520   7
 -12   2   0 26.4952 90.1731   4
  12   2   0-114.147 102.005   6
  12  -2   0 16.6614 80.4331   6
  12  -2  -1-16.6322 85.7969   6
 -12  -2  -1-19.4907 530.902   1
 -12  -2  -1-126.844 121.157   4
  12   2   1-99.1933 138.253   7
  12   2  -1-16.2496 128.047   7
 -12  -2   1-93.3424 117.541   4
  12  -2  -1-32.5957 108.562   7
 -12   2  -1-13.2796 98.2595   4
 -12   2   1 81.3723 102.079   4
  12   2   1-28.4946 103.302   6
  12   2  -1 113.215 88.1622   6
 -12  -2   1 249.206 478.047   1
  12  -2   1-33.4105 93.7916   6
  12  -2  -2-16.6161 81.5559   6
 -12  -2   2-171.156 543.870   1
 -12  -2  -2-334.638 568.975   1
  12   2   2-67.5621 129.148   7
  12   2  -2-32.0158 116.347   7
 -12  -2  -2-93.1139 117.221   4
 -12  -2   2-192.560 116.819   4
  12  -2  -2 16.2187 121.056   7
 -12   2  -2-13.3216 107.252   4
  12   2   2-28.7631 103.191   6
 -12   2   2 13.5527 87.8836   4
  12   2  -2 57.9736 87.7641   6
  12  -2   2-33.5270 90.2272   6
  12  -2  -3-16.6165 75.0722   6
 -12  -2  -3-198.671 468.738   1
 -12  -2   3-377.583 531.958   1
 -12  -2  -3-11.7544 99.9612   4
  12   2   3 17.0618 125.195   7
  12   2  -3 111.293 110.197   7
  12  -2   3-34.2254 128.961   7
 -12  -2   3-215.223 108.998   4
  12  -2  -3 16.2165 108.852   7
 -12   2  -3-26.2189 105.811   4
  12   2   3-29.0583 109.746   6
 -12   2   3-27.5890 81.0469   4
  12   2  -3 14.3957 80.7704   6
  12  -2   3 32.2068 76.2615   6
  12  -2  -4-16.6305 296.685   6
 -12  -2   4-336.852 527.743   1
 -12  -2  -4 47.0919 305.315   4
  12   2   4 758.843 322.772   7
  12   2  -4 995.432 332.304   7
  12  -2   4 321.883 315.432   7
 -12  -2   4 297.221 306.769   4
  12  -2  -4 64.9090 307.051   7
 -12   2  -4 895.778 325.749   4
  12   2   4 616.534 313.774   6
 -12  -2  -4 20.0856 479.924   1
 -12   2   4 552.363 308.576   4
  12   2  -4 664.703 315.545   6
  12  -2   4 582.666 315.657   6
  12  -2  -5 16.6576 49.8152   6
 -12  -2  -5-59.5149 107.048   4
  12   2   5 17.6292 91.0124   7
  12   2  -5-15.7188 111.478   7
  12  -2   5 17.0428 122.027   7
 -12   2  -5-13.2479 98.4780   4
  12  -2  -5-16.2542 100.826   7
 -12  -2   5 12.2746 93.6668   4
 -12  -2   5-37.2158 424.646   1
 -12  -2  -5-162.551 394.037   1
  12   2   5 14.8451 69.2516   6
  12  -2   5-16.2811 75.9193   6
  12   2  -5 30.0595 71.6768   6
 -12   2   5-55.4718 60.1684   4
 -12   2  -6 1114.21 715.601   1
  12  -2  -6-16.7014 555.701   6
 -12  -2   6-55.5425 701.405   1
  12   2  -6 2208.56 593.655   7
 -12   2  -6 1799.26 581.033   4
  12  -2   6 1029.49 578.072   7
  12  -2  -6 16.6534 563.250   7
 -12  -2   6 293.335 563.756   4
  12   2   6 1471.78 580.637   6
  12  -2   6 1704.56 584.146   6
  12   2  -6 844.872 570.381   6
 -12   2   6 778.736 566.316   4
 -12   2   7-13.9565 51.8249   4
  12   2   7 90.2816 101.347   7
  12  -2   7 120.868 129.343   7
  12   2  -7 15.6101 109.519   7
 -12   2  -7 12.9431 110.473   4
  12  -2  -7-83.5464 116.052   7
 -12  -2   7-12.4302 84.5568   4
  12   2   7-45.6081 82.6236   6
  12  -2   7-15.6362 79.1128   6
  12   2  -7-31.1771 74.1831   6
 -12   2  -8-350.886 720.700   1
  12   2  -8 1976.88 613.248   7
 -12   2  -8 1030.51 599.799   4
  12   2   8 1061.57 598.589   7
  12  -2   8 974.932 599.100   7
  12  -2  -8 83.8925 583.315   7
  12   2   8 1431.43 598.863   6
  12  -2   8 2001.78 608.594   6
 -12  -2   8 421.669 583.978   4
  12   2  -8 248.726 582.920   6
  12   2  -9-15.5164 64.6549   6
  12  -2   9 17.6929 120.970   7
 -12   2  -9 13.1558 101.849   4
  12   2  -9 141.975 124.834   7
  12  -2  -9 33.9899 100.509   7
  12   2   9-15.7608 72.7064   6
 -12  -2   9 12.6968 78.6223   4
  12  -2   9 15.8999 79.8288   6
 -12   2  -9-20.8286 430.186   1
  12   2 -10-15.5018 155.603   6
  12  -2  10 178.612 189.044   7
 -12   2 -10 319.484 184.845   4
  12   2 -10 362.334 192.437   7
  12   2  10 415.206 181.562   6
 -12  -2  10-77.4699 166.495   4
  12  -2  10 529.638 190.748   6
  12   2 -11-15.4958 63.1735   6
 -12   2 -11 12.9037 107.996   4
  12   2 -11 15.7516 111.377   7
  12  -2  11-47.1277 91.9522   6
 -12  -2  11-129.102 72.6335   4
  12   2 -12-15.5039 48.6715   6
 -12   2 -12-52.1385 111.260   4
  12   2 -12 47.2774 106.057   7
  12  -2  12 15.8719 89.0957   6
 -12  -2 -12 44.5088 323.000   1
 -12   2 -13 26.3483 103.791   4
  12  -2  13-16.0482 104.454   6
   2 -12  15 20.5826 100.042   5
  -2 -12  15 20.1986 115.121   5
 -12   2 -15-88.7385 497.062   1
  -2  12 -15-15.8007 49.5753   2
   2 -12  16-20.9788 127.810   5
  -2 -12  16-20.6038 118.856   5
 -12   2 -16-291.968 443.060   1
  12  -2  16 58.6657 113.322   7
   2  12 -16 63.3621 64.3171   2
  -2  12 -16 96.6416 67.0268   2
  -2 -12  17 84.0643 104.762   8
   2 -12  17 42.2921 115.372   5
  -2 -12  17 62.3826 122.487   5
   2 -12  17 42.7609 93.0343   8
  12  -2  17-39.6128 94.8024   7
  12  -2  17-33.3205 92.6053   6
   2  12 -17 16.1663 54.1832   2
 -12   2 -18 69.1370 375.129   1
  -2  12 -18 89.7560 102.057   3
   2  12 -18 88.4650 106.139   3
   2 -12  18 43.0914 136.745   5
  -2 -12  18-21.2094 122.900   5
  -2 -12  18-42.8874 118.414   8
   2 -12  18-21.7927 119.971   8
  12  -2  18-20.0949 101.283   7
 -12   2 -18-13.5935 126.428   4
  12  -2  18 16.8798 98.5779   6
   2  12 -18 478.304 121.472   2
   2  12 -19 16.8274 55.3715   2
  -2  12 -19 15.2448 82.8429   3
   2  12 -19 15.0411 94.3804   3
   2 -12  19-64.6677 141.862   5
  -2 -12  19-42.4662 124.630   5
  -2 -12  19 43.7450 99.4447   8
   2 -12  19-44.4218 118.669   8
  12  -2  19-20.3609 98.9636   7
 -12   2 -19-13.7698 102.234   4
  12  -2  19 17.1015 89.7816   6
 -12   2 -19 350.326 353.698   1
   2  12 -20 789.402 280.661   2
  -2 -12  20 22.3021 269.992   8
  -2  12 -20 419.311 272.593   3
   2  12 -20 966.288 283.068   3
   2 -12  20-87.8074 270.815   5
  -2 -12  20 43.3028 269.125   5
   2 -12  20 22.6271 272.723   8
   2  12 -21-17.4402 75.9769   2
  -2  12 -21-31.6238 103.278   3
   2  12 -21-15.4765 96.3278   3
   2 -12  21-44.1158 131.626   5
  -2 -12  21-43.5448 141.945   5
  -2 -12  21 22.7372 135.661   8
   2 -12  21 92.1814 133.634   8
   2  12 -22 515.478 221.723   2
  -2  12 -22 350.536 222.284   3
   2  12 -22 457.268 226.535   3
   2 -12  22 44.8877 237.670   5
  -2 -12  22-44.3522 229.331   5
  -2 -12  22-46.3334 227.031   8
   2  12 -23 18.1019 74.2136   2
  -2  12 -23 64.8449 92.5262   3
   2  12 -23 16.0562 90.2487   3
   2 -12  23-91.3125 135.982   5
  -2 -12  23-45.1570 132.618   5
  -2 -12  23-23.5947 134.566   8
   2  12 -24 239.499 98.3668   2
  -2  12 -24 32.9352 104.563   3
   2  12 -24 32.6521 98.5870   3
   2 -12  24-23.2050 139.087   5
  -2 -12  24-22.9783 133.997   5
  -2 -12  24-48.0398 156.871   8
   2  12 -25-37.4761 106.183   2
  -2  12 -25-83.6699 117.139   3
   2 -12  25 400.754 209.706   5
   2  12 -25 33.2111 98.5643   3
  -2 -12  25 233.551 162.862   5
  -2 -12  25-97.6860 192.875   8
   2  12 -26 19.0508 89.8286   2
   2 -12  26-48.6191 151.315   5
  -2  12 -26-16.9899 97.9090   3
  -2 -12  26-72.3110 153.809   5
   2  12 -26-16.9965 88.8109   3
  -2 -12  26-49.6564 167.696   8
   2  12 -27-19.1405 77.2887   2
   2 -12  27-98.6464 162.927   5
  -2 -12  27 146.856 154.245   5
  -2  12 -27-69.4320 101.427   3
  -2 -12  27 25.2150 158.863   8
   2  12 -27-17.2604 96.4085   3
   2  12 -28-19.4236 99.3681   2
  -2 -12  28 74.4805 146.471   5
  -2 -12  28 25.5966 159.282   8
  -2  12 -28-35.2077 96.7973   3
   2  12 -28 87.5687 91.4903   3
 -12  -3   0-19.4288 392.909   1
  12  -3   0 16.9513 70.6000   6
 -12  -3   0 57.5056 95.0258   4
  12   3   0-33.3575 98.7921   7
  12   3   0 28.4066 75.7369   6
 -12   3   0 13.8141 81.0097   4
  12  -3   1 16.9701 163.497   6
  12  -3  -1 16.9458 161.714   6
 -12  -3   1 115.565 431.649   1
 -12  -3  -1 11.6177 172.047   4
  12   3   1 370.732 193.809   7
  12   3  -1 445.944 191.484   7
 -12  -3   1-11.3937 171.533   4
  12  -3  -1 82.6817 182.217   7
  12   3   1 559.629 186.012   6
 -12   3  -1 304.217 186.559   4
  12   3  -1 407.945 178.206   6
 -12  -3  -1-39.2722 429.036   1
 -12   3   1 463.863 182.478   4
  12  -3   2 17.0053 67.6289   6
  12  -3  -2 16.9547 63.0923   6
 -12  -3   2-76.3142 426.232   1
 -12  -3  -2-11.6379 91.7519   4
  12   3   2 86.0897 95.2129   7
  12   3  -2 49.1027 101.507   7
 -12  -3   2-336.943 110.654   4
  12  -3   2-16.6642 104.657   7
  12  -3  -2 49.6308 103.901   7
 -12  -3  -2 79.4243 377.938   1
 -12   3  -2 41.5569 83.7129   4
  12   3   2 57.9979 74.8777   6
  12   3  -2 28.1710 68.6023   6
 -12   3   2 28.1336 71.2978   4
  12  -3  -3-16.9762 66.7990   6
 -12  -3   3-37.8234 432.119   1
  12   3   3 34.8303 100.219   7
  12   3  -3 80.1972 105.482   7
 -12  -3  -3-180.796 386.590   1
 -12  -3   3 57.6229 95.4945   4
  12  -3   3 50.1382 118.164   7
  12  -3  -3-16.9285 112.340   7
 -12   3  -3-13.5442 85.7462   4
  12   3   3 102.652 90.0625   6
  12   3  -3 41.9035 88.2515   6
 -12   3   3 70.6088 70.7498   4
  12  -3   3-17.0537 71.2111   6
  12  -3  -4-17.0124 56.9274   6
 -12  -3  -4 81.3225 383.916   1
  12   3   4 52.8695 88.0329   7
  12   3  -4 47.7344 105.225   7
 -12  -3   4-23.7681 95.6202   4
  12  -3   4-17.3931 114.932   7
 -12  -3   4-37.5084 407.786   1
  12  -3  -4-16.9652 104.272   7
 -12   3  -4 13.5909 95.9060   4
  12   3   4 14.8378 69.8186   6
  12   3  -4 57.1956 70.2647   6
 -12   3   4 14.1549 63.6508   4
  12  -3   4 34.2286 82.0864   6
 -12   3   5 170.418 171.063   4
 -12  -3  -5 20.5841 412.932   1
  12   3   5 214.287 189.593   7
  12   3  -5 426.623 206.463   7
  12  -3   5 87.3634 204.291   7
 -12  -3   5 11.8027 182.113   4
  12  -3  -5 51.0452 189.626   7
 -12   3  -5 272.979 187.767   4
  12   3   5 349.147 185.989   6
  12   3  -5 482.777 188.184   6
 -12  -3   5-18.6391 448.923   1
  12  -3   5 137.530 177.647   6
 -12  -3   6-55.5314 414.688   1
 -12  -3  -6-83.3929 364.341   1
  12   3   6-36.1707 84.1770   7
  12   3  -6 140.237 122.757   7
  12  -3   6 17.2989 125.287   7
 -12  -3   6 170.414 109.120   4
  12  -3  -6-34.4310 108.456   7
 -12   3  -6 13.4439 101.093   4
  12   3   6 138.349 92.9756   6
  12   3  -6 29.7946 89.2139   6
  12  -3   6-17.2803 89.5708   6
 -12  -3   7-73.5827 560.573   1
 -12   3  -7 1216.94 409.038   4
  12   3  -7 852.129 406.109   7
  12  -3   7 278.491 397.594   7
 -12  -3   7 72.6434 382.173   4
  12   3   7 498.309 395.425   6
  12   3  -7 696.225 391.920   6
  12  -3   7 598.614 394.080   6
  12   3  -8 77.0889 121.980   7
  12  -3   8 87.5297 119.650   7
 -12   3  -8 54.4252 109.468   4
 -12  -3   8-24.5965 87.0744   4
  12   3   8 15.7800 77.5928   6
 -12  -3   8-36.5921 420.028   1
 -12   3  -8-20.6721 430.375   1
  12  -3   8-16.7380 78.7722   6
  12   3  -8-15.4105 72.6694   6
 -12  -3   9 109.016 408.239   1
  12  -3   9 141.074 126.370   7
  12   3  -9 107.451 107.500   7
 -12   3  -9 150.759 116.624   4
 -12  -3   9-49.0080 95.4916   4
 -12   3  -9-125.305 460.379   1
  12  -3   9 84.3163 91.1089   6
  12   3  -9-30.6984 83.1669   6
  12   3 -10-91.7738 75.8008   6
 -12   3 -10 21.0637 477.696   1
  12  -3  10-71.1138 123.096   7
  12   3 -10 15.3172 105.229   7
 -12   3 -10 66.5724 105.061   4
 -12  -3  10 12.5238 77.0137   4
  12  -3  10-50.9981 93.5539   6
 -12  -3  10-18.0953 412.014   1
 -12   3 -11 26.8522 114.833   4
  12  -3  11 97.4325 105.712   6
 -12   3 -12-13.5485 114.218   4
  12  -3  12-49.1665 83.2084   6
 -12   3 -13 123.098 121.705   4
  12  -3  13 33.1032 101.040   6
   3 -12  15 82.8647 123.061   5
  -3 -12  15-20.1402 105.542   5
   3 -12  16 42.2099 115.383   5
  -3 -12  16 121.954 132.960   5
  12  -3  16 136.232 126.033   7
 -12   3 -16-201.185 464.799   1
   3  12 -16 15.8004 53.0106   2
  -3  12 -16-16.2031 54.0768   2
   3 -12  17-21.2728 119.392   5
  -3 -12  17-20.7417 128.515   5
  -3 -12  17 20.9572 92.9879   8
   3 -12  17-21.5102 90.5438   8
 -12   3 -17-135.723 431.694   1
  12  -3  17 39.4325 114.062   7
   3  12 -17-16.1298 50.6077   2
  -3  12 -17 16.5111 59.0653   2
  -3  12 -18-15.0397 88.4271   3
   3  12 -18-14.7164 87.7563   3
   3 -12  18 86.6780 136.071   5
  -3 -12  18 21.1619 132.888   5
 -12   3 -18-343.516 425.104   1
  -3 -12  18-42.7788 108.331   8
   3 -12  18-21.9185 113.114   8
  12  -3  18 19.9556 110.355   7
 -12   3 -18-69.5285 116.365   4
  12  -3  18-16.9639 85.9743   6
   3  12 -18 98.7767 65.5366   2
  -3  12 -18 33.6500 60.4070   2
   3  12 -19 117.579 122.744   2
  -3  12 -19 411.417 142.096   2
  -3  12 -19 245.092 153.179   3
   3  12 -19 135.152 143.179   3
   3 -12  19-43.3472 154.722   5
  -3 -12  19 21.1947 166.597   5
  -3 -12  19 43.6567 152.314   8
   3 -12  19-44.6671 149.471   8
   3  12 -20 102.817 81.7720   2
  -3  12 -20 17.4593 57.7853   2
  -3  12 -20-15.6054 95.6437   3
   3  12 -20-45.9526 90.1218   3
   3 -12  20-22.0663 138.602   5
  -3 -12  20-21.6086 128.783   5
  -3 -12  20 22.2667 121.160   8
   3 -12  20-22.7455 129.785   8
  -3  12 -21 177.776 130.131   2
   3  12 -21 541.611 150.662   2
  -3  12 -21 111.187 143.031   3
   3  12 -21 77.2798 129.743   3
   3 -12  21 66.5025 174.866   5
  -3 -12  21-21.7414 181.778   5
   3 -12  21-23.1603 160.059   8
  -3 -12  21 22.7034 149.878   8
  -3  12 -22-18.0365 67.5074   2
   3  12 -22 35.5087 61.7045   2
  -3  12 -22 16.0027 93.3430   3
   3  12 -22 47.2590 89.2568   3
   3 -12  22 22.5492 141.117   5
  -3 -12  22 88.5867 145.446   5
   3 -12  22 47.1346 141.691   8
  -3 -12  22 46.2775 127.299   8
  -3  12 -23 36.6948 74.1955   2
   3  12 -23 36.1697 77.4482   2
  -3  12 -23 48.8152 100.533   3
   3  12 -23 96.1773 95.1609   3
   3 -12  23-114.649 137.241   5
  -3 -12  23 22.5582 131.278   5
   3 -12  23-47.9468 145.379   8
  -3 -12  23-47.1316 148.558   8
  -3  12 -24 18.6548 71.9773   2
   3  12 -24-36.8264 77.7798   2
  -3  12 -24 49.5937 90.0694   3
   3  12 -24-65.2859 97.3773   3
   3 -12  24-46.6061 142.669   5
  -3 -12  24 68.8574 138.670   5
   3 -12  24-24.3672 162.307   8
  -3 -12  24-47.9849 154.404   8
  -3  12 -25 56.8604 158.083   2
   3  12 -25 187.356 159.869   2
  -3  12 -25 235.116 148.227   3
   3 -12  25 23.6671 186.563   5
  -3 -12  25-93.3684 187.220   5
   3  12 -25 82.9855 123.802   3
   3 -12  25 123.784 222.999   8
  -3 -12  25 24.4116 190.150   8
  -3  12 -26 19.2404 87.8975   2
   3  12 -26 38.0875 87.0080   2
  -3  12 -26-17.0463 97.5326   3
  -3 -12  26 96.3505 160.544   5
   3  12 -26-33.9842 98.6753   3
   3 -12  26-25.1399 157.983   8
  -3 -12  26 24.8119 163.515   8
   3 -12  26 73.2015 149.479   5
  -3  12 -27 175.680 100.288   2
   3  12 -27 210.514 113.875   2
   3 -12  27-24.7485 148.087   5
  -3 -12  27 48.9233 159.938   5
  -3  12 -27-17.4126 110.342   3
   3 -12  27 25.5054 188.067   8
  -3 -12  27-25.2041 175.557   8
   3  12 -27-51.7786 99.6732   3
   3  12 -28-38.8591 86.4008   2
  -3 -12  28 51.1839 158.670   8
  -3 -12  28-25.4783 143.110   5
   3  12 -28 52.5428 90.4750   3
  12  -4   0 51.9190 431.394   6
  12   4   0 732.643 454.810   7
 -12  -4   0-58.9965 585.516   1
  12   4   0 1176.65 453.507   6
 -12   4   0 1061.80 449.239   4
  12  -4   1 17.3035 69.4055   6
  12  -4  -1-51.9648 71.5703   6
 -12  -4  -1 119.388 393.480   1
  12   4   1 103.431 95.7568   7
 -12  -4   1 57.0066 92.4475   4
  12   4  -1 16.8513 102.195   7
 -12  -4   1-58.3295 382.063   1
  12  -4   1 33.7670 111.568   7
  12   4   1-29.0273 86.9829   6
  12   4  -1 14.1983 81.5469   6
 -12   4  -1 14.3432 77.2931   4
 -12   4   1-14.3975 66.2299   4
  12  -4   2-17.3152 131.580   6
 -12  -4  -2-40.2800 405.720   1
  12   4   2 174.634 148.972   7
  12   4  -2 300.158 164.681   7
 -12  -4   2-91.0770 151.964   4
  12  -4   2 135.168 164.978   7
  12  -4  -2 69.2093 156.138   7
 -12  -4   2 346.213 440.310   1
  12   4   2 163.300 141.582   6
  12   4  -2 351.239 154.796   6
 -12   4  -2 444.840 158.265   4
 -12   4   2 187.552 134.957   4
 -12   4   3 86.7901 67.9044   4
  12  -4   3 17.3390 77.4505   6
 -12  -4  -3 142.749 363.168   1
  12   4   3 70.7174 89.8843   7
  12   4  -3 16.3347 83.1184   7
 -12  -4   3-33.8272 95.3456   4
  12  -4   3 16.9901 102.923   7
  12  -4  -3-17.3453 109.206   7
  12   4   3-15.0285 88.6625   6
  12   4  -3-27.8170 80.9572   6
 -12   4  -3 28.2359 85.6686   4
 -12  -4   3 266.506 428.281   1
 -12  -4   4-18.8484 401.512   1
  12  -4   4-17.3795 68.9742   6
 -12  -4  -4 20.6543 352.557   1
  12   4   4 17.9031 75.3619   7
  12   4  -4 32.3591 104.033   7
 -12  -4   4 11.4930 95.4033   4
  12  -4   4-17.0293 113.340   7
  12   4   4-15.2195 84.0751   6
 -12   4  -4-14.1463 81.8406   4
  12   4  -4 13.9229 73.0969   6
  12  -4   5 17.4299 72.4809   6
 -12  -4  -5 20.9277 312.412   1
 -12  -4   5 18.7018 401.613   1
  12   4   5 36.3320 79.6343   7
  12   4  -5 16.0346 100.200   7
 -12  -4   5-11.3964 87.0902   4
  12  -4   5-68.3302 122.908   7
  12   4   5 61.6734 86.1618   6
 -12   4  -5-14.1864 95.3121   4
  12   4  -5 82.7988 73.6099   6
 -12  -4   6-259.554 444.586   1
  12   4  -6 254.423 136.725   7
 -12  -4   6 46.9829 122.137   4
  12  -4   6-71.1332 154.694   7
  12   4   6 174.690 128.172   6
 -12   4  -6 138.854 133.734   4
  12   4  -6 197.694 113.908   6
  12  -4   6 52.4903 111.913   6
 -12  -4   7-18.3886 399.467   1
  12   4  -7-31.1883 98.5633   7
  12  -4   7 17.8656 115.480   7
 -12  -4   7-151.580 96.8194   4
  12   4   7 16.0959 85.3261   6
 -12   4  -7 13.9473 98.5600   4
  12   4  -7 14.0130 70.5138   6
  12  -4   7 17.5779 66.3173   6
 -12  -4   8-18.2470 386.738   1
  12   4  -8 123.890 111.493   7
  12  -4   8 88.4518 122.317   7
 -12  -4   8 12.0165 92.9110   4
 -12   4  -8 70.0822 105.618   4
  12   4  -8 14.6943 81.3961   6
  12  -4   8 17.6711 79.5278   6
 -12   4  -9 398.532 463.150   1
  12   4  -9 92.3097 113.650   7
  12  -4   9 35.5997 116.904   7
 -12  -4   9 18.1241 390.561   1
 -12  -4   9-11.9419 96.2867   4
 -12   4  -9 70.4948 100.775   4
  12   4  -9 43.7959 81.5570   6
  12  -4   9-17.7760 93.0315   6
  12  -4  10-17.9009 124.908   7
 -12   4 -10 55.6278 99.5743   4
  12  -4  10 71.5894 91.3468   6
 -12   4 -11-56.0268 115.346   4
  12  -4  11 17.2435 102.062   6
 -12   4 -12 451.681 275.275   4
  12  -4  12 260.756 271.631   6
  -4 -12  14-39.3847 117.155   5
   4 -12  15-83.4649 121.143   5
  -4 -12  15 20.0937 121.820   5
   4 -12  16 21.2528 119.577   5
  -4 -12  16-20.2839 112.366   5
  12  -4  16-19.2503 128.397   7
 -12   4 -16 223.128 483.562   1
   4  12 -16-15.7717 52.5789   2
  -4  12 -16 65.2344 58.9462   2
   4  12 -17 14.3993 87.3772   3
   4 -12  17 21.4114 110.759   5
  -4 -12  17-41.4014 133.414   5
  -4 -12  17 41.8375 93.2641   8
   4 -12  17 21.6570 83.7170   8
  12  -4  17 78.6614 112.452   7
 -12   4 -17 360.957 469.588   1
   4  12 -17 16.1052 58.3302   2
  -4  12 -17-16.6183 47.5192   2
  -4  12 -18 75.6342 86.9469   3
   4  12 -18 73.4954 97.4544   3
   4 -12  18-43.6184 113.988   5
  -4 -12  18 41.4915 123.206   5
  -4 -12  18 21.3566 115.638   8
   4 -12  18-22.0618 97.2374   8
   4  12 -18-16.4425 52.4141   2
  -4  12 -18 33.8569 63.3974   2
   4  12 -19-33.5562 68.9470   2
  -4  12 -19-17.2401 66.4537   2
  -4  12 -19 15.4085 92.1942   3
   4  12 -19-30.0014 91.0719   3
   4 -12  19-65.4090 132.791   5
  -4 -12  19-63.4965 135.645   5
  -4 -12  19-21.7915 119.763   8
   4 -12  19-22.4682 106.077   8
   4  12 -20 17.1204 79.2150   2
  -4  12 -20 105.316 78.9765   2
  -4  12 -20 78.4380 101.425   3
   4  12 -20 76.5266 114.333   3
   4 -12  20-22.1924 125.002   5
  -4 -12  20 21.3075 127.579   5
  -4 -12  20 22.2355 127.156   8
   4 -12  20-22.8760 124.519   8
   4  12 -21 34.9299 71.4440   2
  -4  12 -21-17.8683 70.9115   2
  -4  12 -21-47.4188 95.3901   3
   4  12 -21 92.6946 99.3349   3
   4 -12  21-22.2871 128.934   5
  -4 -12  21-43.4356 132.825   5
  -4 -12  21-22.6823 121.188   8
   4 -12  21-23.2856 126.538   8
  -4  12 -22 18.1252 60.4622   2
   4  12 -22 17.7497 64.2654   2
  -4  12 -22 16.0789 94.8966   3
   4  12 -22-31.4972 95.5590   3
   4 -12  22 113.330 140.788   5
  -4 -12  22 22.1283 139.206   5
  -4 -12  22-23.1188 128.093   8
   4 -12  22 23.6972 133.368   8
  -4  12 -23 18.4315 76.8432   2
   4  12 -23 18.0848 77.7165   2
   4  12 -23 112.185 108.445   3
   4 -12  23 69.1248 144.041   5
  -4 -12  23 22.5410 137.455   5
  -4 -12  23 23.5523 137.505   8
   4 -12  23 24.0906 138.454   8
  -4  12 -24 112.412 95.4748   2
   4  12 -24 18.4159 78.3644   2
  -4  12 -24 66.4010 108.609   3
   4 -12  24-117.096 167.945   5
   4  12 -24-16.3226 96.4932   3
  -4 -12  24-22.9457 170.748   5
   4 -12  24-24.4897 157.883   8
  -4 -12  24 23.9845 150.937   8
  -4  12 -25-38.0621 102.589   2
   4  12 -25-37.4795 88.2644   2
  -4  12 -25 33.7230 102.667   3
   4 -12  25-71.3120 134.104   5
  -4 -12  25 23.7049 143.706   5
   4  12 -25-66.8859 104.497   3
   4 -12  25 49.7482 176.766   8
  -4 -12  25 24.3972 141.797   8
  -4  12 -26 405.577 154.248   2
   4  12 -26 247.684 136.944   2
   4 -12  26-73.5056 182.578   5
  -4  12 -26 119.775 145.637   3
  -4 -12  26 120.463 186.595   5
   4 -12  26 25.2429 191.584   8
  -4 -12  26 24.8167 180.967   8
   4  12 -26 16.9985 134.936   3
   4  12 -27 77.4377 90.7100   2
   4 -12  27-74.5331 148.273   5
   4 -12  27-76.8158 166.921   8
  -4 -12  27-100.860 154.578   8
  -4  12 -27 34.9465 97.1013   3
  -4 -12  27-48.9454 152.000   5
   4  12 -27-51.8201 99.0158   3
   4  12 -28 77.7910 98.9665   2
  -4 -12  28-25.5954 167.977   8
  -4 -12  28 25.4907 146.948   5
   4  12 -28 18.1543 90.9561   3
 -12   5   0-14.7211 59.1098   4
 -12  -5   0-179.893 344.174   1
  12   5   0 34.6370 77.3665   7
  12  -5   0 88.3370 111.224   7
  12   5   0-14.7218 81.8189   6
 -12   5   1 472.146 316.693   4
  12  -5   1-35.3945 306.817   6
 -12  -5  -1-20.2416 455.408   1
 -12  -5   1-98.7151 465.066   1
  12   5   1 491.737 327.315   7
  12   5  -1 769.775 332.566   7
  12  -5   1 141.170 324.269   7
  12   5   1 715.535 328.204   6
  12   5  -1 690.803 325.785   6
 -12   5  -1 587.929 323.551   4
  12  -5   2-17.6889 58.4231   6
 -12  -5  -2 82.0188 321.370   1
 -12  -5   2-136.544 340.585   1
  12   5   2 53.3632 77.0449   7
  12   5  -2 135.266 106.466   7
  12  -5   2 17.2566 108.536   7
  12   5   2 15.0982 81.8520   6
  12   5  -2 71.1063 87.2297   6
 -12   5  -2 14.6884 74.3357   4
 -12  -5  -3-20.7747 323.581   1
  12  -5   3 17.6922 76.8161   6
 -12  -5   3 57.8469 352.847   1
  12   5   3 54.0661 83.7291   7
  12   5  -3 167.147 103.419   7
 -12  -5   3 11.3044 103.443   4
  12  -5   3 17.2612 119.219   7
  12   5   3 93.2920 99.9320   6
  12   5  -3 14.0679 85.7311   6
 -12   5  -3 190.509 102.773   4
  12  -5   4 35.4181 65.9767   6
 -12  -5   4-38.1327 359.457   1
  12   5  -4-33.0293 91.3976   7
 -12  -5   4-33.8559 93.1731   4
  12  -5   4 17.2798 108.572   7
  12   5   4-15.7556 82.9033   6
  12   5  -4-27.8276 77.0622   6
 -12   5  -4 14.6644 69.9979   4
 -12  -5  -4 21.0562 284.199   1
  12  -5   5-35.4823 75.8334   6
  12   5  -5 16.3401 92.9038   7
 -12  -5   5-75.4397 368.284   1
 -12  -5   5 67.0224 91.3484   4
  12  -5   5-34.7610 122.695   7
  12   5   5 31.9425 93.6465   6
  12   5  -5 110.145 82.6312   6
 -12   5  -5 58.7520 81.4997   4
  12  -5   6-17.7851 80.6561   6
  12   5  -6 97.0613 105.853   7
 -12  -5   6 22.7601 91.0755   4
 -12  -5   6 55.9907 378.863   1
  12  -5   6 52.2750 119.793   7
  12   5  -6 68.8665 79.4749   6
 -12   5  -6 43.3975 90.0580   4
  12  -5   7-17.8433 96.5672   6
  12   5  -7 336.488 128.972   7
 -12  -5   7-11.2763 106.099   4
  12  -5   7 18.1293 135.028   7
 -12  -5   7-18.4798 384.104   1
 -12   5  -7 203.147 118.967   4
  12   5  -7 95.4999 93.6001   6
  12  -5   8-17.9104 71.6427   6
  12   5  -8-47.1211 106.073   7
 -12  -5   8-11.6110 92.5936   4
 -12   5  -8-14.5641 91.8272   4
  12   5  -8 13.9470 69.7666   6
  12  -5   9-53.9907 84.7976   6
 -12   5  -9 14.6300 93.8869   4
 -12   5 -10 14.3399 108.174   4
  12  -5  10 72.3810 91.5799   6
 -12   5 -11 129.809 129.360   4
  12  -5  11 109.224 132.926   6
 -12   5 -12 116.140 138.385   4
  -5 -12  14-39.2946 115.250   5
  -5 -12  15-60.1609 121.680   5
   5 -12  16 42.8264 108.352   5
  -5 -12  16-60.7463 120.559   5
  12  -5  16-38.6251 122.710   7
  -5  12 -16 16.4275 58.8084   2
   5  12 -17-43.1603 96.9813   3
   5 -12  17-21.5707 115.393   5
  -5 -12  17 41.3510 117.980   5
   5  12 -17-16.0895 48.2366   2
  -5  12 -17 16.7331 52.8159   2
  -5  12 -18 15.2318 90.6730   3
   5  12 -18-29.3746 95.5548   3
   5 -12  18 21.9623 119.348   5
  -5 -12  18-41.4451 121.633   5
  -5 -12  18 21.3310 103.679   8
   5 -12  18 66.6537 90.8874   8
   5  12 -18 32.8555 54.0574   2
  -5  12 -18-51.1287 56.0815   2
  -5  12 -19 62.0220 102.717   3
   5  12 -19 14.9933 92.5309   3
   5 -12  19 21.9482 135.623   5
  -5 -12  19-21.1476 135.734   5
  -5 -12  19-21.7714 109.722   8
   5 -12  19-22.6250 120.346   8
   5  12 -19 83.8579 75.0693   2
  -5  12 -19 17.3501 62.6927   2
   5  12 -20-17.1151 62.0645   2
  -5  12 -20-17.6621 59.0026   2
  -5  12 -20-63.1286 89.1586   3
   5  12 -20-15.1459 90.7342   3
   5 -12  20 89.3395 138.759   5
  -5 -12  20-42.5814 128.891   5
  -5 -12  20-22.2219 121.186   8
   5 -12  20 46.0592 116.949   8
   5  12 -21 52.3944 62.8138   2
  -5  12 -21 35.9461 64.6224   2
  -5  12 -21 15.8957 93.5284   3
   5  12 -21-15.4502 86.9568   3
   5 -12  21 22.4240 144.329   5
  -5 -12  21-43.4245 127.608   5
  -5 -12  21-22.6696 119.192   8
   5 -12  21-23.4385 125.397   8
  -5  12 -22-18.2786 70.3312   2
   5  12 -22-17.8067 61.3083   2
  -5  12 -22-48.5038 104.021   3
   5  12 -22 15.7417 91.1409   3
   5 -12  22 114.001 135.775   5
  -5 -12  22 22.1321 131.799   5
   5 -12  22-47.6751 143.905   8
  -5 -12  22-23.1181 127.757   8
  -5  12 -23-18.5304 73.6856   2
   5  12 -23-18.0944 69.6833   2
  -5  12 -23-49.3098 87.9409   3
   5 -12  23 139.030 155.992   5
   5  12 -23 16.0366 92.8898   3
  -5 -12  23-45.0952 159.824   5
  -5 -12  23 94.2121 138.325   8
   5 -12  23 121.173 154.027   8
  -5  12 -24 169.481 143.115   2
   5  12 -24 294.831 166.016   2
  -5  12 -24 16.6839 132.959   3
   5 -12  24-141.263 182.899   5
  -5 -12  24-45.9076 198.400   5
   5  12 -24 147.006 148.080   3
   5 -12  24 344.681 250.705   8
  -5 -12  24 263.830 216.657   8
  -5  12 -25 133.806 117.600   2
   5  12 -25 168.804 117.591   2
  -5  12 -25 33.8818 125.612   3
   5 -12  25 191.149 165.889   5
  -5 -12  25-23.7197 161.484   5
   5 -12  25 50.0059 174.136   8
  -5 -12  25-24.4113 156.275   8
   5  12 -25 133.856 132.024   3
  -5  12 -26 58.2094 84.0576   2
   5  12 -26-19.0742 92.9090   2
   5 -12  26-98.4841 163.249   5
  -5  12 -26 103.831 99.1364   3
   5 -12  26-25.3767 156.471   8
  -5 -12  26 24.8240 155.087   8
  -5 -12  26 24.1082 146.844   5
   5  12 -26 51.0573 93.0776   3
   5  12 -27 290.797 139.759   2
   5 -12  27-24.9593 157.620   5
   5 -12  27 25.7335 142.446   8
  -5 -12  27-25.2290 166.743   8
  -5  12 -27 105.286 124.549   3
  -5 -12  27 25.1384 150.519   5
   5  12 -27 103.736 121.990   3
   5  12 -28-59.0410 93.1966   2
  -5 -12  28-76.8483 157.616   8
  -5 -12  28 127.602 163.043   5
   5  12 -28-18.1820 95.3106   3
  12   6   0 525.234 367.587   6
 -12  -6   0 40.7855 447.145   1
 -12  -6   1 40.2568 290.771   1
  12   6  -1-17.4492 75.4617   7
  12   6   1-15.4542 88.0800   6
  12   6  -1 29.6220 85.6836   6
 -12  -6  -1 20.6633 284.808   1
 -12   6  -2 60.1568 72.3508   4
 -12  -6   2-158.948 337.758   1
  12   6  -2 68.9046 91.1423   7
  12   6   2 46.9887 86.7447   6
  12   6  -2 29.2480 77.8259   6
 -12   6  -3-15.0241 59.4425   4
 -12  -6   3 58.8509 319.875   1
  12   6  -3 85.0701 86.8700   7
  12   6  -3 28.5772 79.0624   6
  12  -6   4 18.1019 68.1659   6
 -12  -6   4 19.3777 321.833   1
  12   6  -4 16.7814 87.5261   7
 -12  -6   4 11.3534 93.2783   4
  12   6  -4 70.5755 85.5427   6
 -12   6  -4 30.0366 65.0213   4
  12  -6   5-108.675 67.8465   6
 -12  -6   5-114.865 331.292   1
  12   6  -5 16.5772 84.3519   7
 -12  -6   5-11.3221 100.253   4
  12   6  -5 27.9061 69.8083   6
 -12   6  -5 15.0242 73.5855   4
  12  -6   6-18.1344 89.5778   6
 -12  -6   6 18.9130 343.792   1
  12   6  -6 163.863 122.620   7
 -12  -6   6-22.3904 111.725   4
  12   6  -6 289.645 116.786   6
 -12   6  -6 90.0433 106.470   4
  12  -6   7-18.1701 74.4474   6
  12   6  -7 16.1990 89.5821   7
 -12  -6   7 45.5574 93.2758   4
  12   6  -7 13.7773 74.9868   6
 -12   6  -7-30.0631 83.1411   4
  12  -6   8-54.6602 88.1990   6
 -12   6  -8 165.775 97.5469   4
  12  -6   9 18.2844 74.0044   6
 -12   6  -9 75.5890 94.7016   4
  -6 -12  14 19.6191 115.958   5
 -12   6 -15-312.969 501.140   1
  -6 -12  15 79.2440 121.955   5
   6 -12  16 106.786 142.558   5
  -6 -12  16 20.2327 134.285   5
   6  12 -17 28.7547 89.1083   3
   6 -12  17-43.4835 122.043   5
  -6 -12  17 20.2842 119.080   5
   6  12 -17-16.0812 42.2702   2
  -6  12 -17 16.8572 50.2228   2
  -6  12 -18-15.3438 88.1289   3
   6  12 -18 73.4337 98.4536   3
   6 -12  18 22.1313 133.069   5
  -6 -12  18-20.7146 126.407   5
   6 -12  18 22.3899 114.808   8
   6  12 -18 16.4255 54.8323   2
  -6  12 -18 68.6604 78.4309   2
  -6  12 -19 62.4617 90.5825   3
   6  12 -19-29.9874 89.5035   3
   6 -12  19-22.1112 133.606   5
  -6 -12  19-41.7306 124.386   5
  -6 -12  19-21.7692 94.3793   8
   6 -12  19 22.7940 106.282   8
   6  12 -19-16.7741 53.0475   2
  -6  12 -19-34.9485 60.4252   2
  -6  12 -20 177.814 105.706   2
  -6  12 -20 95.3400 125.287   3
   6  12 -20 45.4541 117.184   3
   6 -12  20-67.4871 135.872   5
  -6 -12  20 21.2908 141.699   5
  -6 -12  20 88.8832 134.575   8
   6 -12  20-23.1954 125.167   8
   6  12 -20 239.723 107.328   2
   6  12 -21-34.9494 65.5091   2
  -6  12 -21-18.0928 62.8488   2
  -6  12 -21-32.0007 98.2822   3
   6  12 -21-15.4603 92.4839   3
   6 -12  21-22.5796 134.722   5
  -6 -12  21-21.7136 131.358   5
  -6 -12  21 90.6789 119.363   8
   6 -12  21 23.5984 112.655   8
   6  12 -22 53.4663 70.8864   2
  -6  12 -22 55.1872 68.4535   2
  -6  12 -22-48.8044 100.907   3
   6 -12  22 114.750 145.873   5
   6  12 -22-31.5142 84.3208   3
  -6 -12  22-44.2805 145.784   5
  -6 -12  22 23.1256 129.877   8
   6 -12  22-47.9951 132.647   8
  -6  12 -23-18.6422 100.543   2
   6  12 -23-18.1154 99.4898   2
  -6  12 -23-33.0316 100.977   3
   6 -12  23-93.2870 158.613   5
   6  12 -23-96.3421 105.781   3
  -6 -12  23 180.451 156.748   5
  -6 -12  23-70.7224 165.334   8
   6 -12  23-48.7822 165.736   8
  -6  12 -24-18.9338 78.3093   2
   6  12 -24 36.9078 76.4836   2
  -6  12 -24-16.7795 99.5450   3
   6 -12  24 118.411 160.876   5
  -6 -12  24-23.3275 138.687   5
   6  12 -24 131.733 112.978   3
  -6 -12  24 24.0132 142.662   8
   6 -12  24 49.5462 157.004   8
  -6  12 -25-19.2214 79.4730   2
   6  12 -25 18.7889 70.6989   2
  -6  12 -25 34.0564 97.7358   3
   6 -12  25-48.0683 143.537   5
  -6 -12  25 23.7360 145.628   5
   6 -12  25-25.1497 150.157   8
  -6 -12  25-24.4334 141.822   8
   6  12 -25 100.578 103.171   3
  -6  12 -26 97.5009 111.927   2
   6  12 -26 95.5413 106.662   2
   6 -12  26-24.7510 150.925   5
  -6  12 -26 69.5870 104.441   3
   6 -12  26 153.063 176.466   8
  -6 -12  26 99.4149 153.500   8
  -6 -12  26-72.4137 153.188   5
   6  12 -26 34.0996 99.8548   3
   6  12 -27 38.8533 82.7751   2
  -6 -12  27-25.2663 153.395   8
  -6  12 -27 88.1374 103.419   3
  -6 -12  27 75.5345 160.837   5
   6  12 -27 17.9413 90.5289   3
   6  12 -28 39.4527 99.3619   2
  -6 -12  28 128.271 166.561   8
  -6 -12  28 25.5587 155.996   5
   6  12 -28 72.8795 98.3435   3
  12   7   0 124.786 124.104   6
  12   7  -1 169.252 155.075   6
  12   7  -2 134.428 129.720   6
  12   7  -3 29.4745 78.6802   6
  12   7  -4-29.0872 81.9496   6
 -12  -7   4-98.8864 283.819   1
  12   7  -5 141.989 134.133   6
 -12  -7   5-39.0366 302.555   1
  12   7  -6 84.1093 96.9699   6
  12  -7  13 132.549 166.950   7
  -7 -12  14 19.5888 118.421   5
 -12   7 -14-178.994 528.628   1
  -7 -12  15 19.7932 113.643   5
   7 -12  16 21.5489 125.498   5
  -7 -12  16 20.2154 130.782   5
  -7  12 -17 15.1908 99.7064   3
   7 -12  17-43.8515 131.186   5
  -7 -12  17 101.401 145.692   5
  -7  12 -18 92.7674 97.9634   3
   7 -12  18-65.7232 136.410   5
  -7 -12  18 82.8467 129.232   5
  -7  12 -18 17.3031 64.7431   2
  -7  12 -19 125.889 112.933   3
   7 -12  19 44.5872 135.722   5
  -7 -12  19-43.5441 105.339   8
   7 -12  19-45.9441 115.088   8
  -7  12 -19 88.0278 89.4986   2
  -7  12 -20-16.0090 100.581   3
   7 -12  20 158.705 149.294   5
  -7 -12  20-22.2314 98.7703   8
   7 -12  20 23.3814 108.925   8
  -7  12 -20-17.9140 66.6937   2
  -7  12 -21 236.860 98.0719   2
  -7  12 -21-16.1115 107.169   3
   7 -12  21-45.4885 138.161   5
   7 -12  21 23.7747 118.389   8
  -7  12 -22-74.0815 86.3885   2
  -7  12 -22-32.7545 109.832   3
   7 -12  22-23.1115 136.333   5
   7 -12  22 24.1671 129.644   8
  -7  12 -23-18.8192 76.4800   2
  -7  12 -23 16.6248 90.3379   3
   7 -12  23-70.4404 155.401   5
   7 -12  23-98.2297 166.066   8
  -7  12 -24 19.1090 80.5143   2
  -7  12 -24-33.7618 96.2771   3
   7 -12  24 23.8339 133.813   5
   7 -12  24-24.9315 133.253   8
  -7  12 -25 58.0138 83.9435   2
   7 -12  25 48.3653 153.123   5
  -7  12 -25 17.1274 92.2271   3
   7 -12  25-25.3046 152.025   8
  -7  12 -26-19.6109 84.9841   2
   7 -12  26-74.6951 157.534   5
   7 -12  26-25.6621 147.647   8
  -7  12 -26-17.4944 100.242   3
  12   8  -3-15.3408 78.3351   6
  12   8  -4 74.4146 101.478   6
  12   8  -5-14.6743 89.1421   6
  12  -8   6 1041.88 762.248   7
  12  -8   7-129.745 203.094   7
  12  -8   8-18.5493 132.056   7
  12  -8   9-55.7181 135.913   7
  12  -8  10-18.6797 117.927   7
  12  -8  11 56.1742 127.906   7
  12  -8  12-38.9584 140.639   7
   8 -12  16-21.7502 123.000   5
  -8  12 -17 15.3243 104.551   3
   8 -12  17 44.2615 123.462   5
  -8  12 -18-15.5895 95.3957   3
   8 -12  18-22.1073 124.114   5
  -8  12 -18 34.9038 57.5108   2
  -8  12 -19-47.5887 98.3759   3
   8 -12  19 44.9619 132.021   5
  -8  12 -19 17.7526 55.8571   2
  -8  12 -20 271.478 157.834   3
   8 -12  20 22.5589 169.204   5
   8 -12  20-70.7182 145.826   8
  -8  12 -20 144.444 114.219   2
  -8  12 -21-16.2339 100.707   3
   8 -12  21-68.7734 154.345   5
   8 -12  21-23.9706 138.593   8
  -8  12 -21-36.7192 74.3005   2
  -8  12 -22 18.6580 70.4917   2
  -8  12 -22 16.4980 89.1150   3
   8 -12  22-23.2891 137.324   5
   8 -12  22 73.0825 147.600   8
  -8  12 -23 18.9486 72.8462   2
  -8  12 -23 33.4865 101.070   3
   8 -12  23-70.9660 148.451   5
   8 -12  23-24.7409 143.147   8
  -8  12 -24-38.4720 77.4354   2
  -8  12 -24 16.9977 95.2086   3
   8 -12  24-120.033 142.786   5
   8 -12  24-50.2228 170.544   8
  -8  12 -25 58.5450 82.3314   2
   8 -12  25 74.1967 146.558   5
  -8  12 -25-17.3567 86.7325   3
   8 -12  25 50.9636 163.129   8
   8 -12  26-25.8365 133.472   8
   8 -12  26 50.1365 138.744   5
  -8  12 -26-35.1966 97.5923   3
  12  -9   9-19.0138 125.826   7
  12  -9  10 19.0325 124.526   7
  12  -9  11 38.2788 121.525   7
  -9  12 -16 45.6101 113.907   3
   9 -12  16-65.8976 121.364   5
  -9  12 -17-15.4671 99.5762   3
   9 -12  17-65.8289 127.029   5
  -9  12 -18 15.7322 97.0395   3
   9 -12  18-111.583 126.846   5
  -9  12 -19 144.042 119.560   3
   9 -12  19-45.3773 148.176   5
  -9  12 -19 35.8152 73.9972   2
  -9  12 -20-64.3983 105.680   3
   9 -12  20-113.811 140.831   5
  -9  12 -20-18.2092 79.8044   2
  -9  12 -21 32.7355 103.158   3
   9 -12  21 69.3784 150.769   5
   9 -12  21-24.1743 120.111   8
  -9  12 -21 55.5192 68.3089   2
  -9  12 -22-16.6128 90.4565   3
   9 -12  22 23.4926 154.712   5
   9 -12  22 49.1123 114.415   8
  -9  12 -22-37.6060 70.0332   2
  -9  12 -23 19.0979 73.3847   2
  -9  12 -23-50.6061 113.510   3
   9 -12  23 23.8477 131.735   5
   9 -12  23 49.8838 144.292   8
  -9  12 -24 58.1366 73.1355   2
   9 -12  24-72.5658 152.351   5
  -9  12 -24 51.3516 102.744   3
   9 -12  24-25.3158 133.557   8
  -9  12 -25-39.3079 73.6393   2
   9 -12  25 102.712 151.049   8
   9 -12  25 49.8296 142.350   5
  -9  12 -25 17.4750 87.2606   3
 -10  12 -16 184.242 164.378   3
 -10  12 -17 62.4677 101.398   3
 -10  12 -18-47.6449 104.996   3
 -10  12 -19-15.9842 94.4739   3
 -10  12 -20 64.9843 97.5991   3
 -10  12 -20-18.3760 53.2146   2
 -10  12 -21 16.5088 99.6641   3
 -10  12 -21-18.6666 52.4468   2
 -10  12 -22-67.0098 107.859   3
 -10  12 -22-18.9621 73.8985   2
 -10  12 -23 19.2441 64.7168   2
 -10  12 -24 39.0570 77.3957   2
 -10  12 -25 19.8033 57.2459   2
 -13   0   0-20.7556 441.853   1
  13   0   0-70.2691 112.362   7
 -13   0   0 27.3545 107.643   4
  13   0   0-16.7792 82.5929   6
 -13   0  -1-83.4863 452.454   1
  13   0   1 335.143 194.545   7
  13   0  -1 244.855 188.133   7
 -13   0  -1 52.9888 166.411   4
 -13   0   1 177.075 167.641   4
  13   0   1 202.378 167.233   6
  13   0  -1 200.475 163.306   6
  13   0   2-17.7430 117.234   7
  13   0  -2-52.2774 109.841   7
 -13   0  -2 79.9260 113.401   4
 -13   0   2-96.9566 103.364   4
 -13   0  -2-21.0521 446.628   1
  13   0   2 16.0631 84.9727   6
  13   0  -2-17.4023 85.2246   6
 -13   0  -3 93.8167 283.833   4
  13   0  -3 546.786 295.109   7
 -13   0   3 234.831 281.818   4
  13   0   3 856.885 297.535   6
  13   0  -3 277.624 281.225   6
 -13   0  -4-53.9819 96.1712   4
  13   0  -4-35.1987 116.279   7
 -13   0   4 13.7873 91.3171   4
  13   0   4-16.2810 87.5926   6
  13   0  -4 17.3117 77.4976   6
  13   0  -5 224.753 616.954   6
 -13   0  -5 549.544 622.512   4
  13   0  -5 1370.84 637.316   7
  13   0   5 1892.13 638.433   6
 -13   0   5 1059.16 628.077   4
  13   0  -6-17.2779 69.5922   6
  13   0  -6-52.6888 128.598   7
 -13   0   6 14.1166 80.1159   4
  13   0  -7 17.2797 351.693   6
  13   0  -7 1168.61 388.462   7
 -13   0   7 847.910 370.913   4
  13   0  -8-86.4782 84.6050   6
  13   0  -8 16.9532 118.419   7
 -13   0   8-100.715 94.8140   4
  13   0  -9-17.3239 190.312   6
  13   0   9 670.599 246.366   7
  13   0  -9 475.443 235.253   7
 -13   0   9 332.305 202.061   4
  13   0  10-39.1246 106.780   7
  13   0 -10-17.0192 116.197   7
 -13   0  10-14.4853 58.3584   4
 -13   0  11 14.5343 78.5340   4
  13   0  11 276.834 155.718   7
 -13   0 -11 13.4425 118.898   4
  13   0 -11-17.0055 135.154   7
  13   0  11 283.114 128.719   6
  13   0  12 20.0128 122.915   7
 -13   0 -12 81.5254 148.633   4
  13   0 -12 307.216 184.385   7
  13   0  12-16.8349 118.106   6
  13   0  13 121.439 112.369   7
 -13   0 -13 13.6171 115.976   4
  13   0 -13 17.1433 124.333   7
  13   0  13-17.0270 85.2101   6
 -13   0 -14 94.1946 426.524   1
  13   0  14 20.4803 96.1015   7
 -13   0 -14 13.7724 102.995   4
  13   0  14 17.2176 87.9727   6
 -13   0 -15-119.204 395.258   1
  13   0  15-20.7554 101.536   7
 -13   0 -15-41.8040 121.073   4
  13   0  15 17.4242 101.456   6
  13   0  16-42.0168 86.5042   7
 -13   0 -16 14.1007 115.785   4
  13   0  16-35.2705 94.7380   6
   0 -13  17-22.0212 221.176   5
  13   0  17 107.126 207.864   6
   0  13 -17 677.113 218.064   2
 -13   0 -17-415.288 388.137   1
   0 -13  18 44.3049 140.816   5
  13   0  18-18.0815 88.0225   6
   0  13 -18-17.2193 54.2479   2
   0  13 -19 767.080 397.267   3
   0 -13  19 112.630 393.487   5
   0 -13  19 159.527 393.390   8
   0  13 -19 1471.32 406.253   2
  13   0  19 54.9247 385.862   6
   0  13 -20 79.5843 111.276   3
   0 -13  20 67.4555 143.416   5
   0 -13  20 46.3505 105.996   8
   0  13 -20-17.8160 64.0184   2
   0  13 -21 663.442 394.908   3
   0 -13  21-45.7045 396.787   5
   0 -13  21 23.5616 386.625   8
   0  13 -21 1231.70 405.139   2
   0  13 -22 18.4056 60.8250   2
   0  13 -22-16.2788 109.684   3
   0 -13  22 22.9172 140.274   5
   0 -13  22 23.9492 111.590   8
   0  13 -23 560.916 294.757   2
   0  13 -23 413.391 300.644   3
   0 -13  23 279.269 314.231   5
   0 -13  23 97.3135 301.211   8
   0  13 -24 18.9870 116.998   2
   0  13 -24 50.3552 122.025   3
   0 -13  24-70.8512 191.645   5
   0  13 -25 115.257 89.6689   2
   0  13 -25 34.0478 105.838   3
   0 -13  25 47.9362 139.992   5
   0 -13  25-25.0697 139.439   8
   0  13 -26 77.9395 101.523   2
   0  13 -26-69.0410 113.254   3
   0 -13  26 145.769 156.903   5
   0 -13  26 25.4174 154.097   8
   0  13 -27-52.4749 110.309   3
 -13  -1   0 62.2935 449.756   1
  13   1   0 139.915 135.825   7
  13  -1   0 17.9693 119.797   7
 -13  -1   0 13.1402 104.316   4
 -13   1   0 84.3467 98.1449   4
  13   1   0-31.6685 81.2854   6
  13  -1   0 53.0264 86.3126   6
 -13  -1  -1-20.9079 444.611   1
  13   1   1 88.6756 112.053   7
  13   1  -1 69.5608 121.483   7
 -13  -1  -1-13.2202 108.157   4
  13  -1   1-53.3002 108.018   7
  13  -1  -1-35.8255 121.245   7
 -13  -1   1 13.0680 102.926   4
 -13   1  -1 27.6532 95.9388   4
 -13   1   1 14.0185 90.0145   4
  13   1   1 15.9364 81.6783   6
  13   1  -1 15.7456 77.6437   6
  13  -1   1 67.8819 80.0516   6
 -13  -1   1-20.6384 425.791   1
  13  -1  -1 17.6210 81.1784   6
 -13  -1   2-20.4770 435.719   1
  13   1   2 285.766 156.441   7
  13   1  -2 242.228 161.559   7
 -13  -1  -2 12.8106 137.174   4
  13  -1  -2 160.832 158.496   7
 -13  -1   2 13.4930 136.981   4
 -13   1  -2 194.394 146.615   4
 -13   1   2 125.906 132.878   4
 -13  -1  -2 42.1267 442.291   1
  13   1   2 233.278 136.181   6
  13   1  -2 115.795 122.900   6
  13  -1   2 85.2279 125.857   6
  13  -1  -2 87.9019 119.250   6
  13  -1  -3 17.5537 71.8600   6
 -13  -1   3 20.3794 435.545   1
 -13  -1  -3-51.6211 100.039   4
  13   1  -3 17.2438 123.401   7
  13  -1  -3-17.2066 110.669   7
 -13   1  -3-41.8627 103.640   4
 -13  -1   3 40.3158 96.1852   4
 -13   1   3 14.3266 92.1590   4
  13   1   3-15.6708 77.7871   6
  13  -1   3-17.1343 77.9511   6
  13   1  -3 16.4697 78.4139   6
  13  -1  -4 87.6944 334.751   6
 -13  -1  -4 52.0340 339.692   4
  13   1  -4 1065.31 370.234   7
  13  -1  -4 378.204 350.086   7
 -13   1  -4 405.795 348.203   4
 -13  -1   4 341.663 345.498   4
 -13   1   4 558.399 348.915   4
  13   1   4 1074.25 359.822   6
  13  -1   4 848.819 354.390   6
  13   1  -4 463.167 347.489   6
  13  -1  -5-35.0767 85.2877   6
 -13  -1  -5-38.2535 99.6505   4
  13   1  -5 68.5181 128.337   7
 -13   1  -5-54.4444 116.198   4
  13  -1  -5-68.7586 113.159   7
 -13  -1   5 81.7864 97.5600   4
  13   1   5 15.7727 85.7541   6
 -13   1   5 14.5740 73.7785   4
  13  -1   5 16.4286 81.5422   6
  13   1  -5-17.1057 83.1858   6
  13  -1  -6 52.6565 437.857   6
  13  -1  -6 361.249 450.377   7
 -13  -1   6 734.762 451.730   4
 -13   1   6 802.384 450.369   4
  13   1  -6 580.415 450.724   6
  13   1  -7 34.0930 72.1509   6
  13  -1  -7 17.5805 58.3415   6
  13   1  -7 34.6615 116.864   7
  13  -1  -7-51.4747 107.931   7
 -13  -1   7 13.9360 92.0254   4
 -13   1   7-102.527 74.4818   4
  13   1  -8 17.0340 209.467   6
  13  -1  -8 35.2345 205.868   6
  13   1   8 501.205 252.050   7
  13  -1  -8-17.1969 228.300   7
 -13  -1   8 417.876 229.306   4
 -13   1   8 484.559 221.351   4
 -13   1   9-14.7295 53.3659   4
  13   1  -9-17.0372 63.8101   6
 -13  -1  -9 269.309 406.406   1
  13   1   9-19.4854 107.970   7
  13  -1   9-19.1052 112.459   7
  13   1  -9-51.9534 127.704   7
  13  -1  -9-68.9837 129.458   7
 -13  -1   9 42.5402 85.9938   4
 -13   1 -10 134.439 454.011   1
  13   1 -10 17.0528 103.758   6
 -13  -1 -10-612.736 419.882   1
  13   1  10 216.916 151.431   7
 -13  -1 -10 53.1180 136.466   4
  13  -1  10 115.696 157.391   7
  13   1 -10 311.992 163.038   7
  13  -1 -10 17.3088 139.455   7
  13   1  10 281.884 143.336   6
 -13  -1  10 56.7858 113.227   4
  13   1 -11 17.0809 63.8143   6
  13   1  11-39.8860 113.890   7
  13  -1  11 58.4217 120.872   7
 -13   1 -11 13.7652 112.847   4
  13   1 -11-33.4884 118.855   7
  13  -1 -11 71.0657 133.273   7
  13   1  11 50.3079 88.3299   6
  13  -1  11 16.7539 88.2492   6
 -13  -1  11-42.7723 71.0908   4
 -13  -1  12 128.666 96.7412   4
  13   1  12 20.1777 92.3332   7
  13  -1  12 39.7751 126.909   7
 -13   1 -12 13.9047 134.385   4
  13   1 -12 218.140 188.155   7
 -13   1 -12 251.523 557.795   1
  13   1  12 50.8968 104.617   6
  13  -1  12 16.9247 92.9658   6
 -13  -1 -13 188.030 423.709   1
  13   1  13-20.4500 101.849   7
 -13   1 -13-161.815 476.224   1
 -13   1 -13 68.2717 117.669   4
  13  -1  13-20.0975 104.004   7
  13   1  13 51.5003 96.7708   6
  13  -1  13-16.9279 93.9469   6
 -13  -1 -14 23.7906 373.961   1
 -13   1 -14-584.395 466.183   1
  13   1  14 20.7046 92.6366   7
  13  -1  14 61.0263 113.065   7
 -13   1 -14 41.4010 120.153   4
  13   1  14 86.8971 89.4259   6
  13  -1  14-17.1125 88.1501   6
 -13   1 -15-165.530 415.736   1
  13  -1  15 102.871 108.013   7
 -13   1 -15-27.9073 115.827   4
  13   1  15 17.7822 99.8012   6
  13  -1  15-34.6192 82.3617   6
 -13  -1 -15-313.192 347.202   1
  13  -1  16 104.084 114.618   7
 -13   1 -16-14.1116 118.583   4
  13   1  16-18.0021 87.6223   6
  13  -1  16 35.0178 99.9850   6
 -13   1 -17-48.4218 381.825   1
   1 -13  17 44.2215 131.632   5
  -1 -13  17 65.8328 119.321   5
  13  -1  17 21.0988 96.3885   7
 -13   1 -17 42.8388 121.715   4
  13  -1  17 53.1623 93.2357   6
   1 -13  18-44.4745 255.550   5
  -1 -13  18 22.0802 254.151   5
 -13   1 -18-28.8965 258.532   4
  13  -1  18 251.069 265.110   6
   1  13 -18 858.625 256.110   2
  -1  13 -18 639.344 253.640   2
 -13   1 -18-392.112 457.131   1
  -1  13 -19 31.4084 102.248   3
   1  13 -19-62.4477 99.2595   3
   1 -13  19-22.6070 141.911   5
  -1 -13  19 67.3733 151.172   5
 -13   1 -19-14.6238 128.201   4
  -1 -13  19-22.7194 112.775   8
   1 -13  19-22.8725 115.779   8
  13  -1  19 72.6182 103.547   6
   1  13 -19-17.4724 52.1578   2
  -1  13 -19 52.7187 71.9959   2
  -1  13 -20 367.270 220.279   3
   1  13 -20 365.278 219.318   3
   1 -13  20-67.7024 223.618   5
  -1 -13  20-22.4224 216.358   5
  -1 -13  20 46.2152 218.407   8
   1 -13  20-23.2591 207.628   8
 -13   1 -20 44.4096 212.569   4
  13  -1  20 110.281 220.802   6
   1  13 -20 852.936 228.803   2
  -1  13 -20 571.836 220.917   2
   1  13 -21 54.2107 70.1909   2
  -1  13 -21 18.1638 68.2059   2
  -1  13 -21 32.4605 93.0713   3
   1  13 -21 16.1496 95.3460   3
   1 -13  21-45.8613 131.094   5
  -1 -13  21 22.7912 136.060   5
  -1 -13  21-23.4984 132.282   8
   1 -13  21-23.6416 126.730   8
   1  13 -22 716.507 260.682   2
  -1  13 -22 904.465 265.507   2
  -1  13 -22 214.341 240.534   3
   1  13 -22 324.906 254.114   3
   1 -13  22 91.9324 255.669   5
  -1 -13  22 22.8613 260.292   5
  -1 -13  22-23.8905 254.053   8
   1 -13  22-24.0173 257.731   8
   1  13 -23 18.6676 76.4667   2
  -1  13 -23-18.7467 69.7057   2
  -1  13 -23 16.5730 101.438   3
   1  13 -23-66.0215 95.5681   3
   1 -13  23 93.3352 142.764   5
  -1 -13  23 69.6634 149.360   5
  -1 -13  23 24.2745 136.296   8
   1 -13  23 24.3918 130.382   8
  -1  13 -24 342.478 143.162   2
   1  13 -24 246.416 129.763   2
  -1  13 -24 84.1257 129.309   3
   1  13 -24-16.7639 121.224   3
   1 -13  24-118.411 198.091   5
  -1 -13  24-94.3045 185.882   5
  -1 -13  24 49.2957 203.805   8
   1 -13  24 148.589 206.138   8
  -1  13 -25 19.2532 87.1283   2
   1  13 -25 19.1878 75.6953   2
  -1  13 -25 17.0548 92.7187   3
   1  13 -25 34.0004 89.3013   3
   1 -13  25 120.110 162.551   5
  -1 -13  25-23.9256 135.369   5
  -1 -13  25 25.0141 143.592   8
   1 -13  25 25.1243 150.540   8
  -1  13 -26-39.0354 83.7616   2
   1  13 -26 77.8410 83.5243   2
  -1  13 -26 86.4733 105.641   3
   1  13 -26-51.7200 96.6225   3
   1 -13  26 24.3532 145.887   5
   1 -13  26-25.4784 150.436   8
  -1 -13  26 25.3778 160.076   8
  -1 -13  26 169.803 167.537   5
  -1 -13  27-124.815 149.487   5
   1  13 -27 17.5998 85.3042   3
  13  -2   0-17.8752 90.3941   6
 -13  -2   0 83.1295 429.997   1
  13   2   0 88.1624 133.460   7
 -13  -2   0 88.5990 114.346   4
 -13   2   0 102.029 101.229   4
  13   2   0 107.476 101.977   6
  13  -2  -1 17.8452 73.0137   6
 -13  -2  -1 209.494 426.470   1
  13   2   1-53.3046 112.887   7
  13   2  -1-17.5089 115.237   7
 -13  -2  -1 12.7503 96.3512   4
 -13  -2   1-26.1238 97.8509   4
 -13  -2   1-103.287 432.830   1
 -13   2  -1 14.2470 93.7723   4
 -13   2   1 43.6544 84.1945   4
  13   2   1-15.4709 75.2100   6
  13   2  -1 47.1962 92.3521   6
  13  -2   1-17.9203 77.5124   6
  13  -2  -2-17.8257 67.6440   6
 -13  -2   2 41.0366 431.586   1
 -13  -2  -2-105.636 401.255   1
  13   2   2-72.5141 107.328   7
 -13  -2  -2-37.4746 99.3646   4
  13   2  -2-17.3957 116.623   7
 -13  -2   2-77.8986 112.432   4
 -13   2  -2 71.4417 107.007   4
  13   2   2-46.7951 84.5121   6
 -13   2   2 14.5407 90.0302   4
  13   2  -2 15.6331 86.1038   6
  13  -2   2-17.9791 86.6896   6
  13  -2  -3-17.8226 78.4408   6
 -13  -2   3-40.7765 472.909   1
 -13  -2  -3-12.5986 98.7097   4
  13   2  -3 120.181 128.649   7
 -13  -2   3-25.8201 113.062   4
 -13   2  -3 28.6860 112.252   4
  13   2   3 46.7133 88.9200   6
 -13   2   3 133.167 100.414   4
  13   2  -3 170.982 100.123   6
  13  -2   3 90.2441 95.7010   6
  13  -2  -4 17.8288 69.1536   6
 -13  -2  -4 88.9816 102.891   4
  13   2  -4 51.2458 108.927   7
 -13  -2   4-53.3203 103.722   4
 -13  -2   4-101.392 433.479   1
 -13   2  -4 14.1179 108.906   4
  13   2   4-15.7135 76.9549   6
 -13   2   4-14.8081 78.3110   4
  13   2  -4 16.3270 79.9150   6
  13  -2   4 34.6892 79.4199   6
  13  -2  -5 17.8516 275.279   6
 -13  -2   5-40.2689 508.694   1
  13   2  -5 1224.33 324.963   7
 -13  -2   5 225.701 288.002   4
 -13   2   5 459.681 290.433   4
  13   2  -5 601.523 296.891   6
  13  -2  -6-17.8861 61.6875   6
  13   2  -6-50.8154 122.718   7
 -13  -2   6-53.9966 105.166   4
 -13  -2   6-80.1966 442.855   1
  13   2  -6 16.9306 79.3689   6
 -13   2   6-74.4739 73.8964   4
 -13   2   7 507.909 348.342   4
 -13  -2   7-19.9772 569.612   1
  13   2  -7 1166.67 377.412   7
 -13  -2   7 107.726 344.857   4
  13   2  -7 455.884 350.695   6
  13   2  -8-16.8462 74.7546   6
 -13  -2  -8-22.4180 379.419   1
  13   2   8 38.9278 109.245   7
  13   2  -8-16.8689 104.524   7
 -13  -2   8 13.7800 88.6099   4
  13   2  -9 100.899 127.098   6
 -13  -2  -9 317.407 402.269   1
  13   2   9 157.479 151.652   7
  13  -2   9-37.7836 159.648   7
  13   2  -9 488.313 179.104   7
 -13   2  -9 177.902 467.820   1
  13   2   9 248.314 148.892   6
 -13  -2   9-13.7618 130.106   4
  13   2 -10-16.8035 69.0095   6
 -13  -2 -10-22.9402 374.726   1
 -13   2 -10-134.384 468.798   1
  13   2  10-119.491 98.9824   7
  13  -2  10-19.0527 128.352   7
  13   2 -10 16.8262 120.537   7
  13   2  10 84.6330 93.7024   6
 -13  -2  10-13.9952 84.6817   4
  13   2 -11-16.8007 79.3292   6
  13   2  11-20.1859 88.3251   7
  13  -2  11-58.3448 128.695   7
  13   2 -11 17.0797 147.366   7
  13   2  11-17.1261 84.3186   6
 -13  -2  11-55.9975 82.0953   4
 -13   2 -12-68.3730 567.143   1
  13   2  12-20.4311 81.3579   7
  13  -2  12 19.6327 139.265   7
 -13   2 -12-97.1150 126.331   4
  13   2  12 17.3330 92.8490   6
  13  -2  12 101.346 99.3685   6
  13  -2  13 19.8257 131.308   7
 -13   2 -13 98.0419 128.978   4
  13   2  13 105.283 114.662   6
 -13   2 -13-230.215 505.530   1
  13  -2  13 68.2346 112.093   6
 -13  -2 -13 23.7893 358.382   1
  13  -2  14 20.2491 125.219   7
 -13   2 -14 14.1441 115.498   4
  13   2  14 17.7664 90.0575   6
  13  -2  14 17.2302 89.1115   6
 -13   2 -15-47.0283 448.205   1
  13  -2  15-20.4645 111.459   7
 -13   2 -15-28.5808 106.362   4
  13  -2  15 17.4116 102.472   6
  13  -2  16-62.1205 107.529   7
 -13   2 -16 14.4411 114.453   4
  13  -2  16-17.6028 94.9317   6
  -2 -13  17-43.3009 130.874   5
 -13   2 -17 120.244 411.951   1
  13  -2  17 83.7812 104.173   7
 -13   2 -17-29.2072 121.453   4
  13  -2  17 17.8040 90.3799   6
   2 -13  18-22.3381 113.168   5
  -2 -13  18-22.0228 140.037   5
  13  -2  18-21.2226 94.3578   7
 -13   2 -18 59.0809 120.992   4
  13  -2  18 18.0103 99.6722   6
   2  13 -18-17.1327 48.4556   2
 -13   2 -19-418.593 434.841   1
  -2  13 -19 299.556 141.416   3
   2  13 -19 218.157 139.599   3
   2 -13  19 68.1127 165.939   5
  -2 -13  19-67.2147 156.716   5
  -2 -13  19-45.3168 140.987   8
  13  -2  19 42.9488 140.008   7
 -13   2 -19-58.0951 155.699   4
  13  -2  19 36.0681 132.431   6
   2  13 -19 401.031 142.212   2
  -2  13 -20 16.0274 91.9035   3
   2  13 -20-47.5531 93.5858   3
   2 -13  20-67.9782 135.266   5
  -2 -13  20-22.3751 122.009   5
  -2 -13  20-23.0575 114.827   8
   2  13 -20 17.7386 53.7551   2
  -2  13 -21 211.728 174.745   3
   2  13 -21 241.801 170.877   3
   2 -13  21-23.0188 189.719   5
  -2 -13  21 45.4959 187.072   5
  -2 -13  21-46.9066 170.904   8
   2  13 -21 360.818 157.295   2
   2  13 -22 18.3466 65.2836   2
  -2  13 -22 49.6237 92.9258   3
   2  13 -22-48.6732 95.3716   3
   2 -13  22 184.530 151.017   5
  -2 -13  22 45.6472 140.609   5
  -2 -13  22-47.6862 126.312   8
   2  13 -23 279.696 111.615   2
  -2  13 -23 182.851 127.565   3
   2  13 -23-32.9761 119.117   3
   2 -13  23 23.4129 143.122   5
  -2 -13  23-46.3702 175.306   5
  -2 -13  23-48.4640 139.288   8
   2  13 -24-246.165 118.984   2
  -2  13 -24 84.3611 112.837   3
   2  13 -24 16.7445 109.615   3
   2 -13  24-23.7572 167.080   5
  -2 -13  24-23.5435 138.794   5
  -2 -13  24-196.921 230.426   8
   2  13 -25-19.1746 71.3180   2
  -2  13 -25 34.1973 93.0223   3
   2  13 -25 16.9882 86.0561   3
   2 -13  25 24.0928 163.934   5
  -2 -13  25-71.6730 146.183   5
  -2 -13  25-99.9596 152.901   8
   2  13 -26 58.3472 81.9254   2
  -2  13 -26 34.6706 100.335   3
   2 -13  26-48.8392 151.334   5
   2  13 -26-34.4638 101.191   3
  -2 -13  26-96.9484 144.313   5
  -2 -13  26 50.7112 140.099   8
  -2 -13  27 24.9473 160.057   5
   2  13 -27 35.1808 104.194   3
  13  -3   0-36.2824 161.423   6
  13   3   0 251.011 183.115   7
 -13  -3   0 37.0916 178.490   4
  13   3   0 519.067 186.732   6
 -13   3   0 384.457 184.982   4
 -13  -3   0 20.8808 437.332   1
  13  -3   1-18.1664 65.0255   6
  13  -3  -1 18.1298 71.9860   6
 -13  -3   1-62.1897 432.891   1
  13   3   1 18.0885 106.197   7
 -13  -3  -1 49.8730 100.523   4
  13   3  -1 17.7806 105.870   7
 -13  -3   1-37.8560 99.3968   4
  13   3   1 30.7992 79.4230   6
 -13   3  -1-14.8020 91.7409   4
 -13  -3  -1 84.2798 421.736   1
  13   3  -1-30.5989 78.9070   6
 -13   3   1 15.0423 81.7746   4
  13  -3   2 36.4053 89.0956   6
  13  -3  -2-36.2647 81.2138   6
 -13  -3   2 20.5663 418.759   1
 -13  -3  -2-37.7402 99.9877   4
  13   3  -2 35.2885 122.141   7
 -13  -3   2 125.258 116.097   4
  13   3   2 170.960 101.493   6
  13   3  -2 91.0980 93.6777   6
 -13   3   2 150.478 102.146   4
  13  -3  -3-36.2974 68.2264   6
 -13  -3   3-163.310 438.278   1
 -13  -3  -3 12.5878 97.3349   4
  13   3  -3-17.3124 110.507   7
 -13  -3   3-51.6941 104.720   4
  13   3   3-15.6868 84.4999   6
  13   3  -3 15.5531 83.7916   6
 -13   3   3-15.0973 81.3769   4
  13  -3  -4-18.1782 60.5780   6
  13   3  -4 17.1978 112.448   7
 -13  -3   4-20.2709 427.594   1
 -13  -3   4 141.275 108.547   4
  13   3  -4 15.4542 80.8048   6
 -13   3   4 15.1259 70.1512   4
  13   3  -5 17.0976 105.163   7
 -13  -3   5 12.7707 90.2867   4
 -13  -3   5 100.858 434.016   1
  13   3  -5 15.3611 82.8288   6
 -13  -3   6-20.0564 473.119   1
 -13  -3  -6-332.792 404.417   1
  13   3   6 365.749 200.140   7
  13   3  -6 238.103 202.090   7
 -13  -3   6 158.222 198.741   4
  13   3  -6 225.918 193.019   6
 -13  -3   7 99.7679 449.261   1
  13   3  -7 16.8006 115.486   7
 -13  -3   7-52.5111 100.891   4
  13   3  -7 32.1249 78.0748   6
 -13  -3   8 19.8654 471.537   1
  13   3  -8 334.690 155.673   7
  13  -3   8-18.7021 151.593   7
 -13  -3   8 93.4208 130.235   4
  13   3   8 83.6760 131.694   6
  13   3  -8 150.495 125.202   6
 -13  -3  -9-482.351 354.518   1
  13   3   9 99.8018 91.4894   7
  13  -3   9-18.8285 123.220   7
  13   3  -9 83.3801 127.003   7
 -13  -3   9-13.3074 92.4400   4
  13   3   9-16.9344 99.2072   6
 -13  -3   9 138.219 458.757   1
  13   3  -9 50.0023 82.5602   6
  13   3 -10-33.2445 78.3032   6
 -13   3 -10-471.912 543.980   1
  13  -3  10-19.1099 129.165   7
  13   3 -10-16.6287 106.337   7
  13   3  10 17.1374 84.1795   6
 -13  -3  10-27.2224 87.3206   4
  13  -3  11 192.602 152.538   7
 -13   3 -11 71.5495 127.722   4
  13   3  11-17.3516 96.3953   6
  13  -3  11-36.5486 121.656   6
 -13   3 -12-68.4517 593.995   1
  13  -3  12 38.8465 145.729   7
 -13   3 -12 57.7065 125.774   4
  13  -3  12 104.712 118.280   6
 -13   3 -13-276.318 544.953   1
  13  -3  13-39.6624 124.447   7
 -13   3 -13-58.1999 121.646   4
  13  -3  13 70.4184 87.3444   6
  13  -3  14-20.0176 122.488   7
 -13   3 -14-14.6825 115.687   4
  13  -3  14 71.0727 98.2271   6
  13  -3  15-40.8582 118.190   7
 -13   3 -15-14.8242 111.046   4
  13  -3  15 17.9393 81.5693   6
  13  -3  16-20.6425 119.184   7
 -13   3 -16-71.0923 461.572   1
 -13   3 -16-59.8730 124.736   4
  13  -3  16-36.2496 97.5379   6
  -3 -13  17 21.6061 130.411   5
 -13   3 -17 383.163 490.395   1
  13  -3  17-41.7179 122.453   7
 -13   3 -17-45.3627 128.197   4
  13  -3  17 54.9387 99.5401   6
   3 -13  18 22.4568 134.748   5
  -3 -13  18-21.9825 137.324   5
  13  -3  18-42.2164 143.244   7
 -13   3 -18 44.1290 128.622   4
   3  13 -18 17.1056 60.5218   2
  -3  13 -18 34.8818 56.3743   2
  13  -3  18 17.9460 107.523   6
  -3  13 -19-15.8398 92.7059   3
   3  13 -19 15.5640 92.4277   3
   3 -13  19 91.2795 130.816   5
  -3 -13  19 87.8680 135.082   5
  -3 -13  19 113.106 106.202   8
   3 -13  19-23.0894 110.757   8
   3  13 -19-17.4131 56.4092   2
  -3  13 -19 17.7280 60.0025   2
  -3  13 -20 16.0993 135.344   3
   3  13 -20 205.835 145.661   3
   3 -13  20-22.7690 158.771   5
  -3 -13  20 44.6834 177.425   5
  -3 -13  20 46.0384 142.665   8
   3 -13  20 93.8728 151.571   8
   3  13 -20 318.956 134.724   2
  -3  13 -20 198.156 119.618   2
  -3  13 -21-32.7108 98.7983   3
   3  13 -21 48.3248 106.098   3
   3 -13  21 23.1251 123.629   5
  -3 -13  21-45.4467 159.474   5
  -3 -13  21-23.4202 106.568   8
   3 -13  21 71.5302 151.534   8
   3  13 -21-18.0258 59.4712   2
  -3  13 -21 36.6040 60.3778   2
   3  13 -22 36.6607 73.9523   2
  -3  13 -22 55.7686 74.6494   2
  -3  13 -22 32.8755 110.470   3
   3  13 -22 210.750 119.367   3
   3 -13  22 46.3351 144.398   5
  -3 -13  22-22.7935 154.342   5
  -3 -13  22 47.6365 125.664   8
   3 -13  22 24.2193 127.537   8
   3  13 -23 18.6314 90.3339   2
  -3  13 -23 37.7427 100.229   2
  -3  13 -23-83.4272 115.968   3
   3  13 -23 16.4762 108.871   3
   3 -13  23-94.0398 178.522   5
  -3 -13  23-138.983 191.930   5
  -3 -13  23-605.328 211.154   8
   3 -13  23-122.928 207.121   8
   3  13 -24-18.9339 75.2203   2
  -3  13 -24 38.3025 73.6710   2
  -3  13 -24-33.8647 90.5332   3
   3  13 -24 16.7287 95.4066   3
   3 -13  24 95.4026 138.023   5
  -3 -13  24 23.5315 151.342   5
  -3 -13  24-98.3735 150.452   8
   3 -13  24-99.7654 164.179   8
  -3  13 -25-19.3633 77.0388   2
   3  13 -25 19.1678 78.6004   2
  -3  13 -25-68.6224 97.9298   3
   3  13 -25 101.901 93.9761   3
   3 -13  25 24.1825 144.059   5
  -3 -13  25 23.8843 144.244   5
  -3 -13  25-49.9480 156.803   8
   3 -13  25 50.5834 144.252   8
  -3  13 -26 19.6283 97.8694   2
   3  13 -26 116.720 102.768   2
  -3  13 -26 69.5323 110.030   3
   3 -13  26-24.4960 152.504   5
   3  13 -26 51.6935 111.871   3
  -3 -13  26 24.2233 163.798   5
  -3 -13  26 126.724 168.969   8
   3 -13  26 128.187 174.531   8
  -3 -13  27 24.9386 164.684   5
   3  13 -27 17.5910 96.5517   3
  13   4   0 36.5636 123.544   7
 -13  -4   0-12.4725 106.473   4
 -13  -4   0 210.916 390.538   1
  13   4   0 200.170 109.984   6
 -13  -4  -1 12.4806 271.860   4
  13   4  -1 851.144 303.532   7
 -13  -4   1 61.8052 277.844   4
 -13  -4   1-20.8913 473.257   1
  13   4   1 559.506 284.509   6
  13   4  -1 671.266 283.891   6
  13   4  -2 71.7957 121.129   7
 -13  -4   2 36.7633 120.107   4
 -13  -4   2 289.785 419.093   1
  13   4   2 62.8027 100.346   6
  13   4  -2 90.7209 97.4972   6
  13   4  -3 264.194 149.266   7
 -13  -4   3-100.047 126.288   4
  13   4  -3 257.572 125.749   6
 -13  -4   3-102.612 434.652   1
  13   4  -4 34.9444 121.660   7
 -13  -4   4-37.2374 100.429   4
  13   4  -4-15.0306 68.8961   6
 -13  -4   4-40.7029 419.279   1
 -13  -4   5-20.2204 460.978   1
 -13  -4  -5-44.4960 365.869   1
  13   4   5 173.868 124.577   7
  13   4  -5 86.7122 143.624   7
 -13  -4   5 89.6294 132.280   4
  13   4  -5 92.3884 118.751   6
 -13  -4  -6-45.0084 357.428   1
 -13  -4   6-60.2385 434.468   1
  13   4   6 39.0849 107.938   7
  13   4  -6 86.1121 126.723   7
 -13  -4   6 63.6042 120.064   4
  13   4  -6 107.056 99.9784   6
 -13  -4  -7 182.187 328.980   1
 -13  -4   7-99.7060 452.249   1
  13   4   7 19.7746 89.1205   7
  13   4  -7 135.318 131.143   7
  13  -4   7 150.301 143.600   7
 -13  -4   7 52.4740 118.629   4
  13   4   7 33.5518 98.7741   6
  13   4  -7 96.2639 102.022   6
 -13  -4   8 79.2851 462.283   1
  13   4  -8 134.514 121.441   7
  13  -4   8-18.8831 132.421   7
 -13  -4   8 13.0497 103.002   4
  13   4   8 51.7767 109.294   6
  13   4  -8 79.7694 86.0396   6
 -13   4  -9-246.178 523.229   1
  13   4  -9-16.7306 111.738   7
  13  -4   9-75.9563 131.604   7
  13   4  -9-16.5907 81.2295   6
 -13   4 -10 3154.62 654.207   1
  13  -4  10 76.3497 207.947   7
 -13   4 -11 149.226 165.355   4
  13  -4  11 128.621 183.669   6
  13  -4  12 156.078 231.720   7
  13  -4  13 98.3276 151.169   7
 -13   4 -13 90.8613 169.340   4
  13  -4  13 167.918 133.239   6
 -13   4 -14-93.0994 516.357   1
  13  -4  14-20.0662 133.571   7
 -13   4 -14-30.5327 113.370   4
  13  -4  14 56.4367 103.946   6
  13  -4  15-40.4822 134.131   7
 -13   4 -15 138.593 135.221   4
  13  -4  15 132.819 122.110   6
  13  -4  16-286.079 144.915   7
 -13   4 -16 77.6881 128.300   4
 -13   4 -16 118.403 486.787   1
  13  -4  16-19.1531 104.210   6
  -4 -13  17-21.5690 142.411   5
  13  -4  17 104.277 117.736   7
 -13   4 -17 60.4770 126.946   4
  13  -4  17 96.6938 111.219   6
   4  13 -18 61.0919 96.0969   3
   4 -13  18 90.3689 119.781   5
  -4 -13  18-21.9546 128.107   5
   4  13 -18 51.2632 65.6020   2
  -4  13 -18-35.0723 51.9747   2
  -4  13 -19-15.9271 103.529   3
   4  13 -19-31.0992 101.128   3
   4 -13  19 45.9053 153.514   5
  -4 -13  19 131.640 141.885   5
   4  13 -19 52.1981 59.2337   2
  -4  13 -19 17.8219 52.2668   2
  -4  13 -20 16.1782 96.7714   3
   4  13 -20-15.8263 104.585   3
   4 -13  20-22.8903 132.762   5
  -4 -13  20 22.3243 119.651   5
  -4 -13  20-45.9906 121.095   8
   4 -13  20 23.6010 107.721   8
   4  13 -20 35.4234 59.0471   2
  -4  13 -20 36.2185 51.6944   2
  -4  13 -21 32.8628 114.793   3
   4  13 -21 15.9374 104.658   3
   4 -13  21 46.4829 145.456   5
  -4 -13  21 89.6410 149.029   5
  -4 -13  21-46.8041 115.548   8
   4 -13  21 23.9714 127.375   8
   4  13 -21 90.1021 69.1966   2
  -4  13 -21 55.1843 87.2569   2
   4  13 -22 54.9947 71.1995   2
  -4  13 -22 18.6748 64.9195   2
  -4  13 -22 99.0640 105.696   3
   4  13 -22 48.6431 103.875   3
   4 -13  22-69.8371 128.224   5
  -4 -13  22-22.7821 137.225   5
  -4 -13  22 47.6105 117.584   8
   4 -13  22-24.3364 127.197   8
   4  13 -23 18.6371 97.3212   2
  -4  13 -23-18.9521 103.980   2
  -4  13 -23-16.7554 104.584   3
   4  13 -23 98.8978 108.146   3
   4 -13  23-47.2341 159.446   5
  -4 -13  23-23.1535 161.453   5
  -4 -13  23 145.193 189.343   8
   4  13 -24 56.8050 79.4586   2
  -4  13 -24 19.2292 73.5501   2
  -4  13 -24 118.989 106.801   3
   4  13 -24-33.4688 97.0087   3
   4 -13  24 23.9542 165.606   5
  -4 -13  24-70.5791 154.083   5
  -4 -13  24 24.5923 139.155   8
   4 -13  24-25.0590 160.178   8
   4  13 -25 211.570 116.222   2
  -4  13 -25 233.935 129.418   2
  -4  13 -25 137.761 122.115   3
   4 -13  25 48.5617 181.218   5
   4  13 -25 33.9862 125.593   3
  -4 -13  25-47.7696 153.286   5
  -4 -13  25 24.9742 168.368   8
   4 -13  25-127.026 167.065   8
   4  13 -26-19.4672 80.3178   2
  -4  13 -26-17.4435 98.4567   3
   4 -13  26 49.2004 152.779   5
  -4 -13  26-98.4299 162.282   5
   4  13 -26 17.3602 97.9918   3
  -4 -13  26-50.6842 142.614   8
  -4 -13  27 99.8046 170.112   5
   4  13 -27 17.6060 93.1761   3
  13  -5   0-37.5885 215.257   7
  13   5   0 576.614 223.580   6
  13   5  -1 238.397 123.410   7
 -13  -5   1-74.3726 110.914   4
  13  -5   1 18.3779 120.918   7
  13   5   1 157.503 105.408   6
  13   5  -1 61.6985 92.9694   6
 -13  -5   2 62.8357 414.889   1
  13   5  -2 308.701 203.532   7
 -13  -5   2 74.3179 199.250   4
  13  -5   2-36.7540 201.904   7
  13   5  -2 595.930 203.686   6
 -13  -5   3 62.2325 391.940   1
  13   5  -3 53.9017 111.628   7
 -13  -5   3-24.5484 111.820   4
  13  -5   3 55.1679 132.739   7
  13   5  -3 166.476 110.092   6
  13   5   4 38.7942 83.9452   7
 -13  -5   4 82.1967 406.745   1
  13   5  -4 106.819 110.352   7
 -13  -5   4-60.8226 101.744   4
  13  -5   4 18.4843 123.063   7
  13   5  -4-30.0005 75.9513   6
 -13  -5  -4 67.0632 326.729   1
  13   5  -5 194.118 140.705   7
 -13  -5   5 203.650 415.775   1
 -13  -5   5 24.8203 116.448   4
  13  -5   5 74.0932 144.030   7
  13   5  -5 90.1466 109.905   6
 -13  -5  -5 45.2331 336.329   1
  13   5  -6 105.018 121.266   7
 -13  -5   6 12.3114 114.425   4
  13  -5   6-57.7757 134.962   7
  13   5  -6 208.569 106.441   6
  13   5  -7 69.4707 144.837   7
 -13  -5   7 101.566 140.468   4
  13  -5   7 38.6474 174.412   7
 -13  -5   7-180.200 509.588   1
  13   5  -7 305.060 138.483   6
  13  -5   8-57.2492 95.7146   6
  13   5  -8-34.1095 119.285   7
  13  -5   8 77.5981 145.998   7
 -13   5  -8-15.5184 108.698   4
  13   5  -8-30.2774 92.4480   6
  13  -5   9-57.5181 104.687   6
  13  -5   9-19.1940 141.597   7
 -13   5  -9 31.1711 95.8658   4
 -13   5 -10-476.989 531.374   1
  13  -5  10 19.2960 129.844   7
 -13   5 -10-15.6641 113.142   4
  13  -5  10 19.2655 97.4646   6
  13  -5  11 135.683 155.910   7
 -13   5 -11 30.7147 119.699   4
  13  -5  11 38.7579 103.055   6
  13  -5  12 156.065 165.749   7
 -13   5 -12 123.616 164.565   4
  13  -5  12 58.5055 133.139   6
  13  -5  13-39.2854 118.612   7
 -13   5 -13-15.5504 118.575   4
  13  -5  13 58.9031 97.4841   6
  13  -5  14-39.8775 137.717   7
 -13   5 -14 109.643 128.857   4
  13  -5  14 19.7750 88.7740   6
 -13   5 -15 329.909 523.107   1
  13  -5  15 20.0958 138.089   7
 -13   5 -15 142.041 134.749   4
  13  -5  15 19.9302 100.927   6
  -5 -13  16 63.5156 152.235   5
  13  -5  16 20.5029 126.315   7
 -13   5 -16 79.5440 126.201   4
  13  -5  16 20.0968 92.6301   6
  -5 -13  17-21.5489 129.146   5
   5  13 -18 61.0852 101.091   3
   5 -13  18 181.929 145.601   5
  -5 -13  18 21.9401 142.847   5
  -5  13 -19-16.0213 98.2547   3
   5  13 -19 108.838 104.019   3
   5 -13  19 46.1929 129.677   5
  -5 -13  19 21.9310 130.997   5
   5  13 -19 52.2022 68.1170   2
  -5  13 -19 53.7857 62.5379   2
  -5  13 -20-16.2699 94.1818   3
   5  13 -20-15.8294 86.0834   3
   5 -13  20-46.0575 129.289   5
  -5 -13  20-44.6318 134.716   5
   5 -13  20 47.4881 120.165   8
   5  13 -20 53.1389 65.8381   2
  -5  13 -20-18.2076 54.2944   2
  -5  13 -21 16.5207 112.965   3
   5  13 -21 111.610 115.060   3
   5 -13  21-23.3763 142.491   5
  -5 -13  21 67.2226 142.332   5
  -5 -13  21-46.7958 122.269   8
   5 -13  21 72.3322 132.287   8
   5  13 -21 54.0830 70.6852   2
  -5  13 -21 110.943 84.8452   2
  -5  13 -22 49.7848 97.4172   3
   5  13 -22 16.2221 91.0577   3
   5 -13  22-70.2200 145.034   5
  -5 -13  22 45.5706 166.128   5
  -5 -13  22-95.2242 175.170   8
   5 -13  22-48.9451 157.361   8
   5  13 -22-18.3427 77.2250   2
  -5  13 -22 37.5435 85.3605   2
   5  13 -23 37.3062 74.0388   2
  -5  13 -23-38.0966 73.2070   2
  -5  13 -23-50.5110 98.8359   3
   5  13 -23 98.8814 91.0473   3
   5 -13  23 23.7433 129.033   5
  -5 -13  23-46.3321 141.690   5
  -5 -13  23-24.2077 131.556   8
   5 -13  23-24.8303 143.653   8
   5  13 -24 113.737 73.0283   2
  -5  13 -24 19.3137 81.4660   2
  -5  13 -24-17.0795 100.387   3
   5 -13  24-96.3144 145.408   5
   5  13 -24 16.7512 99.8551   3
  -5 -13  24-47.0834 149.648   5
  -5 -13  24-24.5998 124.559   8
   5 -13  24-50.3709 154.123   8
   5  13 -25 173.304 89.1803   2
  -5  13 -25-19.5756 71.8858   2
  -5  13 -25 17.2970 105.030   3
   5 -13  25-24.4001 150.672   5
   5  13 -25 85.0715 112.701   3
  -5 -13  25-23.8986 147.715   5
  -5 -13  25-49.9757 141.674   8
   5 -13  25 178.692 176.540   8
   5  13 -26 78.1902 117.283   2
  -5 -13  26 49.2605 161.944   5
  -5 -13  26 101.483 164.026   8
   5  13 -26 139.089 125.449   3
   5  13 -27 39.5472 96.3594   2
  -5 -13  27-77.1972 129.336   8
  -5 -13  27-24.9719 139.506   5
   5  13 -27 105.820 93.2732   3
  13   6   0 64.0099 105.108   6
  13  -6   1 19.1883 219.423   7
  13   6  -1 469.851 221.044   6
 -13   6  -2 79.7993 85.6835   4
  13  -6   2 19.1721 139.645   7
  13   6  -2 139.442 116.211   6
 -13  -6  -2 22.2498 314.789   1
 -13  -6   3 126.279 367.650   1
  13   6  -3 146.038 102.454   7
 -13  -6   3-61.6558 102.360   4
  13  -6   3-93.7627 134.164   7
  13   6  -3 45.9906 84.6852   6
 -13   6  -3-15.9507 63.3025   4
  13  -6   4-38.4489 89.2048   6
 -13  -6   4-104.137 453.664   1
  13   6  -4 198.447 105.390   7
 -13  -6   4 24.6341 112.206   4
  13  -6   4-18.7594 130.508   7
  13   6  -4 151.801 101.502   6
 -13   6  -4 95.7155 87.4519   4
  13  -6   5-57.7315 93.6822   6
 -13  -6   5 20.6197 464.739   1
  13   6  -5 125.043 100.394   7
 -13  -6   5-146.395 120.545   4
  13  -6   5-18.7794 158.184   7
  13   6  -5 60.1237 77.6676   6
 -13   6  -5 15.9633 80.9287   4
  13  -6   6 115.660 151.072   6
 -13  -6   6-224.613 486.113   1
  13   6  -6 123.863 148.586   7
 -13  -6   6 74.5937 170.150   4
  13  -6   6 169.980 205.941   7
  13   6  -6 210.624 149.880   6
 -13   6  -6 271.161 151.605   4
  13  -6   7-19.3165 91.1545   6
  13   6  -7 35.0586 106.865   7
  13  -6   7-132.511 180.779   7
  13   6  -7 119.232 97.0164   6
 -13   6  -7 47.9496 92.3425   4
  13  -6   8 19.3728 85.9327   6
  13  -6   8 78.7390 147.353   7
 -13   6  -8 32.0478 92.5734   4
  13  -6   9-19.4355 72.2110   6
  13  -6   9 39.5151 144.078   7
 -13   6  -9-16.0792 94.4251   4
  13  -6  10 78.0765 98.7232   6
  13  -6  10 59.5104 145.731   7
 -13   6 -10 47.5769 106.199   4
  13  -6  11-19.6086 80.3589   6
  13  -6  11-19.6278 129.264   7
 -13   6 -11 15.9290 104.942   4
  13  -6  12 19.7116 88.4930   6
  13  -6  12-78.9308 143.161   7
 -13   6 -12-16.0057 105.619   4
  13  -6  13-19.8228 90.3296   6
 -13   6 -13 303.702 527.927   1
  13  -6  13 19.8298 127.645   7
 -13   6 -13 96.5865 107.922   4
  13  -6  14 79.7961 84.2702   6
 -13   6 -14-94.2844 531.272   1
  13  -6  14-19.9564 126.977   7
 -13   6 -14-32.3865 111.534   4
  13  -6  15 20.0831 89.4099   6
  13  -6  15-60.7291 125.638   7
 -13   6 -15 65.2105 117.980   4
  -6 -13  16-21.1579 130.232   5
   6  13 -17-29.9865 95.7902   3
  -6 -13  17 21.5455 128.659   5
  -6  13 -18 79.3838 113.061   3
   6  13 -18-15.2774 96.5307   3
   6 -13  18-22.8968 122.858   5
  -6 -13  18 21.5425 126.952   5
  -6  13 -19 48.3646 100.049   3
   6  13 -19 77.7795 100.447   3
   6 -13  19 22.8336 129.264   5
  -6 -13  19-21.9288 140.477   5
  -6  13 -19 36.0898 65.7689   2
  -6  13 -20 16.3728 95.2104   3
   6  13 -20-31.3600 97.7431   3
   6 -13  20 92.7324 139.294   5
  -6 -13  20 22.0350 146.241   5
   6  13 -20 17.7247 50.2189   2
  -6  13 -20 91.6339 65.7614   2
  -6  13 -21 66.4859 104.303   3
   6  13 -21-31.9225 97.7333   3
   6 -13  21-23.5307 148.574   5
  -6 -13  21-22.4244 155.024   5
  -6 -13  21-46.8274 117.319   8
   6 -13  21 24.2701 108.947   8
   6  13 -21 18.0446 58.9771   2
  -6  13 -21 93.0243 63.4125   2
  -6  13 -22 100.155 106.921   3
   6  13 -22-16.2389 102.881   3
   6 -13  22-164.891 151.179   5
  -6 -13  22 68.4074 154.934   5
  -6 -13  22 23.8229 139.481   8
   6 -13  22-123.129 159.789   8
   6  13 -22 110.165 93.5791   2
  -6  13 -22 94.4009 88.4847   2
  -6  13 -23-16.9323 103.562   3
   6 -13  23 143.320 148.004   5
   6  13 -23 33.0058 99.5990   3
  -6 -13  23 46.3803 141.834   5
  -6 -13  23 72.6953 117.782   8
   6 -13  23-74.9406 131.148   8
   6  13 -23 37.3534 71.7727   2
  -6  13 -23-134.060 80.6198   2
   6  13 -24-56.9562 77.6776   2
  -6  13 -24 38.8413 69.4875   2
  -6  13 -24 17.1504 100.677   3
   6 -13  24 48.4196 151.920   5
   6  13 -24-50.3202 97.0474   3
  -6 -13  24 47.1309 151.529   5
  -6 -13  24 49.2624 138.248   8
   6 -13  24 50.6636 135.352   8
   6  13 -25 57.8738 74.7630   2
  -6  13 -25-17.3791 99.5271   3
   6 -13  25 24.5250 152.266   5
  -6 -13  25-24.3035 150.897   5
  -6 -13  25 50.0539 134.068   8
   6 -13  25-51.3403 142.135   8
   6  13 -25 34.3162 102.601   3
   6  13 -26 117.489 82.8699   2
  -6 -13  26-25.4022 144.140   8
  -6 -13  26-24.6681 150.378   5
   6  13 -26-17.4183 93.8788   3
   6  13 -27 119.230 98.4894   2
  -6 -13  27-25.7775 113.049   8
  -6 -13  27 150.115 152.527   5
   6  13 -27 53.0078 110.222   3
  13   7  -2 95.6410 114.712   6
  13   7  -3 31.1892 96.5696   6
  13  -7   4-57.4733 151.606   7
  13   7  -4 15.4220 93.8067   6
 -13   7  -5 65.1421 85.8913   4
 -13  -7   5-24.5549 109.448   4
  13  -7   5-95.8022 143.966   7
  13   7  -5 183.028 101.190   6
 -13  -7   5-62.8792 423.099   1
 -13   7  -6-16.2950 89.0579   4
  13   7  -6 35.9424 82.2577   7
  13  -7   6-76.7045 142.690   7
  13  -7   7-19.6758 67.6887   6
  13  -7   7 19.2771 125.450   7
 -13   7  -7 16.3123 84.1477   4
  13  -7   8-78.8544 82.1244   6
  13  -7   8-57.9468 135.212   7
 -13   7  -8-16.3374 84.6696   4
  13  -7   9 19.7649 59.0399   6
  13  -7   9 19.3635 130.393   7
 -13   7  -9-16.3774 72.8376   4
  13  -7  10 39.6512 75.7501   6
  13  -7  10 100.709 147.854   7
 -13   7 -10 16.3829 83.1123   4
  13  -7  11-19.8959 77.3314   6
  13  -7  11-20.2186 140.899   7
 -13   7 -11 98.6478 94.4257   4
  13  -7  12 99.8909 96.3817   6
  13  -7  12-40.0037 134.063   7
 -13   7 -12 66.0320 93.9050   4
  13  -7  13 20.0755 75.3230   6
  13  -7  13-80.3829 139.992   7
 -13   7 -13 377.971 542.729   1
 -13   7 -13 82.9064 95.1340   4
  13  -7  14 80.7232 110.150   6
 -13   7 -14 33.3315 101.105   4
  -7 -13  16-42.3079 139.148   5
  -7  13 -18-31.9848 103.596   3
   7 -13  18-23.0819 140.763   5
  -7  13 -19 32.4785 109.193   3
   7 -13  19 138.057 138.769   5
  -7  13 -20-16.4846 121.039   3
   7 -13  20-70.0474 138.767   5
  -7  13 -20 110.720 74.1718   2
  -7  13 -21 50.1936 107.756   3
   7 -13  21-46.7624 149.589   5
  -7  13 -21 37.4580 66.7620   2
  -7  13 -22 16.7990 99.2897   3
   7 -13  22-71.1310 148.316   5
   7 -13  22 74.3745 119.496   8
  -7  13 -22 113.993 79.3648   2
  -7  13 -23 85.1839 114.557   3
   7 -13  23-24.0422 138.013   5
   7 -13  23 25.1425 125.384   8
  -7  13 -23 77.0700 83.0103   2
  -7  13 -24 17.2493 98.7123   3
   7 -13  24 24.3620 148.283   5
   7 -13  24 203.927 155.040   8
  -7  13 -24-19.5272 75.0115   2
  -7  13 -25 104.855 116.980   3
   7 -13  25-24.6698 155.324   5
  13   8  -3-48.2464 90.8258   6
  13   8  -4 143.059 139.840   6
  13  -8   6 19.5855 129.609   7
  13  -8   7-58.7939 128.099   7
  13  -8   8-39.2387 146.903   7
 -13   8  -9 16.6801 81.4676   4
  13  -8   9-39.4616 134.443   7
 -13   8 -10 33.4322 70.9286   4
  13  -8  10 19.7742 132.949   7
  13  -8  11-61.6897 139.290   7
 -13   8 -11 16.7553 74.2020   4
  13  -8  12-20.2999 70.2651   6
  13  -8  12-103.150 150.595   7
 -13   8 -12 16.8054 75.8762   4
 -13   8 -13 286.735 230.291   4
  -8  13 -18 16.1188 101.760   3
  -8  13 -19 130.913 127.570   3
   8 -13  19-23.1942 149.755   5
  -8  13 -20 16.6079 104.280   3
   8 -13  20-47.0628 138.170   5
  -8  13 -21 183.488 140.581   3
   8 -13  21 70.6760 168.728   5
  -8  13 -21 75.4413 110.538   2
  -8  13 -22 33.8279 96.9114   3
   8 -13  22-95.5413 146.420   5
   8 -13  22-24.9747 116.646   8
  -8  13 -22-19.1341 66.5095   2
  -8  13 -23 34.2884 98.9492   3
   8 -13  23 48.4281 132.505   5
   8 -13  23-25.3230 116.185   8
  -8  13 -23 19.3941 65.6964   2
  -8  13 -24-17.3642 97.4132   3
   8 -13  24-24.5277 152.918   5
   8 -13  24-51.3266 140.490   8
  -8  13 -24-19.6584 69.6672   2
  13  -9   9-60.1975 144.115   7
  13  -9  10-60.5132 128.771   7
  13  -9  11 60.6345 140.945   7
  -9  13 -19 49.4867 100.371   3
   9 -13  19-46.7864 135.938   5
  -9  13 -20 133.904 132.225   3
   9 -13  20 46.8372 159.962   5
  -9  13 -21 67.2321 118.202   3
   9 -13  21 166.256 178.892   5
  -9  13 -22 17.0393 105.365   3
   9 -13  22 96.2781 146.093   5
  -9  13 -22 38.5545 72.1303   2
  -9  13 -23-51.7669 95.9979   3
   9 -13  23-24.3960 147.668   5
  -9  13 -23 97.6520 73.3903   2
  -9  13 -24-69.9286 113.839   3
   9 -13  24-74.1218 153.170   5
 -10  13 -19-33.2880 106.963   3
 -10  13 -20-16.7133 101.529   3
 -10  13 -21-33.8869 96.5047   3
 -10  13 -22-17.1733 92.5252   3
 -10  13 -23-52.1616 99.3431   3
 -10  13 -23-19.6867 63.8554   2
  14   0   0-37.5024 132.372   7
 -14   0   0 22.1816 444.068   1
 -14   0  -1 178.319 440.145   1
  14   0   1-18.8359 130.510   7
  14   0  -1 149.571 144.707   7
 -14   0  -2 67.3847 467.042   1
  14   0   2-18.9298 126.423   7
 -14   0  -3-429.381 460.661   1
  14   0   3 19.0391 141.573   7
 -14   0  -3 14.2878 110.991   4
  14   0   3-34.4634 89.1790   6
 -14   0  -4 28.7443 138.364   4
  14   0   4 190.747 134.057   6
 -14   0  -5 14.4653 120.631   4
  14   0   5 69.8283 102.749   6
  14   0   6 626.358 305.737   7
 -14   0  -6-14.0210 281.544   4
  14   0   6 749.698 297.503   6
  14   0   7-19.9582 120.459   7
 -14   0  -7 42.3731 105.812   4
  14   0   7 34.3438 85.2016   6
  14   0   8 503.134 325.628   7
  14   0   8 536.651 311.955   6
  14   0   9-20.2997 133.778   7
 -14   0  -9 14.3546 109.616   4
  14   0   9 17.4602 86.8962   6
  14   0  10 20.7001 124.731   7
 -14   0 -10 14.0762 118.566   4
 -14   0 -10-404.919 488.565   1
  14   0  10 88.0735 93.4677   6
  14   0  11-41.7962 122.609   7
 -14   0 -11-192.374 458.595   1
 -14   0 -11-42.6206 124.693   4
  14   0  11-35.1930 99.9510   6
 -14   0 -12-242.830 445.076   1
  14   0  12 84.4823 122.857   7
 -14   0 -12 28.6792 114.536   4
  14   0  12-17.7669 94.1535   6
 -14   0 -13 122.644 426.168   1
  14   0  13 42.6701 103.426   7
 -14   0 -13 28.9627 116.631   4
  14   0 -13-18.3071 116.566   7
  14   0  13 53.8384 99.5096   6
  14   0  14-21.5565 104.794   7
 -14   0 -14-14.6242 109.561   4
  14   0  14 18.1312 95.2081   6
 -14   0 -15-25.0511 403.089   1
  14   0  15-21.8201 89.3575   7
 -14   0 -15-14.7770 126.187   4
  14   0  15 18.3232 101.304   6
  14   0  16 22.0615 98.6515   7
 -14   0 -16 14.9328 122.785   4
  14   0  16 37.0405 99.7073   6
 -14   0 -17 44.8883 133.243   4
  14   0  17 18.7176 98.8916   6
 -14   0 -18-15.1265 118.161   4
  14   0  18 56.7784 110.504   6
 -14   0 -19-15.2925 129.648   4
  14   0  19 19.1419 96.8579   6
   0  14 -20 525.220 359.285   3
   0 -14  20-47.2276 359.003   5
   0  14 -20 790.084 359.534   2
   0  14 -21 16.6557 101.883   3
   0 -14  21-70.5539 136.067   5
   0  14 -21 18.6412 55.5159   2
   0  14 -22 202.666 170.868   3
   0 -14  22 262.335 237.296   5
   0 -14  22-49.1913 223.477   8
   0  14 -22 226.914 160.795   2
   0  14 -23-16.9527 104.372   3
   0 -14  23-95.4211 153.889   5
   0 -14  23-24.9358 118.863   8
   0  14 -23-76.6848 79.6251   2
   0  14 -24-17.1757 99.7649   3
   0 -14  24-24.1696 146.136   5
   0 -14  24-75.8226 142.130   8
   0  14 -24 19.4305 61.6132   2
   0  14 -25 17.4029 96.1343   3
   0 -14  25-48.9477 149.682   5
  14   1   0 74.7710 133.681   7
  14  -1   0 18.8901 132.385   7
  14   1   1-18.9390 121.550   7
  14  -1   1-37.9080 137.986   7
  14  -1  -1-57.3767 141.756   7
 -14  -1  -1-22.3276 461.130   1
  14   1   2 19.0543 124.135   7
  14  -1   2 76.1359 129.627   7
  14  -1  -2-38.1681 149.228   7
 -14  -1  -2 22.4368 474.876   1
 -14   1  -2-14.8045 107.128   4
 -14   1  -2 22.4778 444.394   1
 -14  -1  -3 22.5934 442.744   1
  14   1   3 95.9066 122.670   7
 -14  -1  -3-41.2604 113.359   4
  14  -1  -3-38.1121 126.220   7
 -14   1  -3 59.4779 111.944   4
  14   1   3 83.5030 90.8216   6
  14  -1   3 18.2602 95.3673   6
 -14  -1  -4 22.7632 438.280   1
  14   1   4-19.5492 126.925   7
 -14  -1  -4-13.8481 117.101   4
  14  -1  -4 19.0387 132.047   7
 -14   1  -4-14.9442 115.239   4
  14   1   4 33.6322 83.6095   6
  14  -1   4 91.7637 81.2987   6
 -14   1  -5 68.7239 499.397   1
 -14  -1  -5 13.9487 187.691   4
  14  -1   5 251.095 211.877   7
  14  -1  -5 36.7146 203.174   7
 -14   1  -5 159.348 196.300   4
  14   1   5 440.583 202.702   6
  14  -1   5 507.026 205.295   6
 -14  -1  -6 28.1196 105.199   4
  14  -1   6-39.1661 122.035   7
 -14   1  -6 58.2959 119.073   4
  14  -1  -6 91.8376 122.939   7
  14   1   6 17.0812 85.7337   6
  14  -1   6-17.5935 91.6341   6
 -14   1  -6-345.914 470.190   1
  14   1   7 344.142 188.424   7
 -14  -1  -7 13.7792 157.124   4
  14  -1   7 157.748 192.421   7
 -14   1  -7 190.719 166.565   4
 -14   1  -7-1832.16 566.614   1
  14  -1  -7-91.9381 192.896   7
 -14  -1  -7-1398.27 547.228   1
  14   1   7 238.673 158.793   6
  14  -1   7 566.850 179.064   6
  14   1  -8 18.2752 116.060   6
  14   1   8 81.6866 137.100   7
 -14  -1  -8-27.7925 127.839   4
  14  -1   8 79.4631 139.766   7
 -14   1  -8 88.6396 149.324   4
  14  -1  -8 92.1104 194.976   7
  14   1   8 51.6011 105.731   6
  14  -1   8 89.2084 135.405   6
  14   1  -9 18.2778 79.8433   6
  14   1   9-41.2280 119.785   7
 -14  -1  -9 56.0929 126.490   4
  14  -1   9 101.293 145.375   7
 -14   1  -9 14.3278 113.391   4
  14  -1  -9-73.5747 137.027   7
  14   1   9 121.505 103.940   6
  14  -1   9 53.9498 104.643   6
 -14   1 -10-213.545 508.748   1
  14   1 -10-36.5775 79.2646   6
 -14  -1 -10-527.329 451.872   1
  14   1  10 145.830 118.850   7
 -14  -1 -10-14.1541 113.338   4
  14  -1  10-20.4269 125.040   7
 -14   1 -10-28.8856 112.037   4
  14  -1 -10-18.4508 126.934   7
  14   1  10-35.0472 83.5434   6
  14  -1  10 17.5725 98.7624   6
  14   1 -11-18.3186 80.3063   6
 -14  -1 -11 145.265 419.415   1
  14   1  11-252.494 127.248   7
 -14  -1 -11-14.2918 129.572   4
  14  -1  11-41.2134 129.634   7
 -14   1 -11-14.5659 111.389   4
  14  -1 -11 37.0430 133.135   7
  14   1  11 17.7016 100.325   6
 -14   1 -11 526.659 490.727   1
  14  -1  11-17.7260 92.4388   6
 -14  -1 -12 244.601 422.479   1
  14   1  12-233.851 123.160   7
 -14  -1 -12 128.769 124.733   4
  14  -1  12 42.0412 110.549   7
 -14   1 -12 14.6915 114.029   4
  14  -1 -12-111.586 140.673   7
  14   1  12 89.3636 100.520   6
  14  -1  12 53.6484 102.130   6
 -14  -1 -13-271.981 396.177   1
  14   1  13 86.0800 122.803   7
 -14  -1 -13 14.4569 108.666   4
 -14   1 -13-24.3932 467.310   1
  14  -1  13 106.087 117.418   7
 -14   1 -13 29.6544 112.302   4
  14   1  13-18.0630 95.7318   6
  14  -1  13 36.1106 100.598   6
 -14  -1 -14 274.911 388.593   1
 -14   1 -14 468.091 466.739   1
  14   1  14 43.4991 91.0493   7
  14  -1  14 85.7826 123.749   7
 -14   1 -14 14.9711 114.763   4
  14   1  14 18.2545 99.4303   6
  14  -1  14-18.2302 94.2324   6
 -14   1 -15 497.830 453.370   1
  14  -1  15 108.317 113.785   7
 -14   1 -15-14.6928 112.970   4
  14   1  15-73.8234 91.6213   6
  14  -1  15 36.8281 100.127   6
 -14  -1 -15 25.2680 365.893   1
  14  -1  16-21.8917 109.250   7
 -14   1 -16-29.6809 121.108   4
  14   1  16 18.6618 108.617   6
  14  -1  16-18.4102 100.752   6
  14  -1  17-66.4787 115.085   7
 -14   1 -17-14.9950 120.749   4
  14   1  17 18.8749 101.802   6
  14  -1  17 18.6051 106.948   6
  14  -1  18 22.3987 92.1829   7
 -14   1 -18-15.1529 122.553   4
  14  -1  18 37.6180 93.8524   6
 -14   1 -18-179.886 392.637   1
 -14   1 -19-30.6352 122.787   4
  14  -1  19 19.0169 100.159   6
 -14   1 -19-415.702 385.019   1
  -1  14 -20 65.8435 115.938   3
   1  14 -20 131.064 115.426   3
   1 -14  20 47.3681 142.236   5
  -1 -14  20 23.1298 142.795   5
 -14   1 -20-15.4894 123.741   4
  14  -1  20 19.2332 103.620   6
   1  14 -20 18.3326 53.7650   2
  -1  14 -20 36.8458 59.8201   2
  -1  14 -21 200.343 204.044   3
   1  14 -21 382.333 212.221   3
   1 -14  21 94.3312 206.622   5
  -1 -14  21-46.9268 221.427   5
 -14   1 -21-31.3196 202.471   4
   1  14 -21 465.079 193.678   2
  -1  14 -21 317.680 187.635   2
  -1  14 -22-16.9314 112.999   3
   1  14 -22-67.4609 112.590   3
   1 -14  22 310.819 200.763   5
  -1 -14  22 475.969 219.783   5
  -1 -14  22 147.261 203.071   8
   1 -14  22 123.334 208.425   8
   1  14 -22 18.8749 78.5966   2
  -1  14 -22-18.9520 91.3333   2
  -1  14 -23 50.9577 105.392   3
   1  14 -23 16.9266 111.546   3
   1 -14  23 71.7316 137.429   5
  -1 -14  23 23.8076 152.284   5
  -1 -14  23-24.8855 136.394   8
   1 -14  23-25.0028 141.445   8
   1  14 -23 38.2903 56.5844   2
  -1  14 -23 19.2101 65.6595   2
  -1  14 -24-17.2122 99.6608   3
   1  14 -24 51.4588 100.765   3
   1 -14  24 24.2223 146.239   5
  -1 -14  24 48.2571 141.685   5
  -1 -14  24 75.6862 148.140   8
   1 -14  24-177.359 162.964   8
   1  14 -24-19.4026 72.1460   2
  -1  14 -24 38.9339 67.0331   2
   1  14 -25 19.6647 68.4072   2
  -1  14 -25-19.7215 49.0807   2
  -1  14 -25 139.442 111.235   3
   1  14 -25-34.7667 95.0543   3
   1 -14  25-24.5218 135.871   5
  -1 -14  25 48.8769 166.561   5
  -1 -14  25 51.1191 136.970   8
  14  -2   0 95.2370 95.7999   6
  14   2   0-75.3711 120.774   7
  14  -2   0 19.3659 134.005   7
 -14   2   0 77.6481 100.511   4
 -14  -2  -1 22.3575 454.640   1
  14   2   1-76.7660 127.898   7
  14  -2   1 38.8257 130.795   7
  14  -2  -1-19.3289 127.376   7
 -14   2  -1 30.3542 106.678   4
 -14   2   1-46.5215 95.0687   4
  14  -2   1 19.0924 80.6336   6
 -14  -2  -2-22.5195 440.939   1
  14   2   2 135.296 135.131   7
  14  -2  -2-55.8635 135.396   7
 -14   2  -2 15.2199 100.234   4
  14  -2   2 19.1464 86.3660   6
 -14  -2  -3 45.3263 436.604   1
  14   2   3-38.9444 109.378   7
 -14  -2  -3 82.8037 116.269   4
  14  -2  -3-18.6117 116.872   7
 -14   2  -3-15.2703 99.4483   4
  14   2   3 16.7505 94.1178   6
  14  -2   3-57.6530 89.5431   6
  14   2   4 58.8882 112.454   7
 -14  -2  -4-13.5173 110.363   4
  14  -2   4 19.3291 140.076   7
  14  -2  -4-18.6155 118.807   7
 -14   2  -4 30.6673 108.174   4
  14   2   4 16.7086 91.5082   6
 -14  -2  -4 45.6989 443.804   1
 -14   2  -4-342.181 456.180   1
  14  -2   4 38.5962 86.3787   6
  14   2   5-20.0073 110.523   7
 -14  -2  -5-40.8818 114.725   4
  14  -2   5-58.2081 124.758   7
  14  -2  -5-37.2653 128.079   7
 -14   2  -5 298.061 453.243   1
 -14  -2  -5-391.809 432.050   1
 -14   2  -5-15.0932 95.8871   4
  14   2   5 33.7036 76.6218   6
  14  -2   5 92.7432 99.1057   6
  14   2  -5 18.2336 88.6275   6
  14   2   6 282.594 180.680   7
 -14  -2  -6 41.2328 170.761   4
  14  -2   6 234.074 197.471   7
  14  -2  -6-55.7517 176.174   7
 -14   2  -6 364.128 181.236   4
 -14  -2   6 130.462 161.725   4
  14   2   6 407.922 172.098   6
  14  -2   6 130.522 164.424   6
 -14   2  -6 46.2329 496.301   1
 -14   2   6 206.125 152.704   4
  14   2  -6 109.092 163.672   6
 -14   2   7-15.8919 96.4443   4
 -14   2  -7 93.0467 535.904   1
 -14  -2  -7 69.3414 103.466   4
  14  -2   7 39.2512 152.415   7
  14  -2  -7 18.6243 147.016   7
 -14   2  -7-45.7727 113.735   4
 -14  -2   7 43.3884 108.809   4
  14   2   7 17.1543 82.2529   6
  14  -2   7 18.7587 100.739   6
  14   2  -7-18.1361 95.7541   6
  14   2  -8-90.5160 96.3879   6
 -14   2   8-15.9419 83.7400   4
 -14  -2  -8-379.213 506.228   1
  14   2   8 41.1754 123.603   7
 -14  -2  -8-13.8734 119.490   4
  14  -2   8-39.8028 153.785   7
 -14   2  -8 61.4106 126.629   4
  14  -2  -8 18.6784 147.964   7
 -14  -2   8 59.2277 101.986   4
  14   2   8 173.095 112.450   6
  14  -2   8 113.276 113.528   6
  14   2  -9 18.0780 82.2040   6
 -14  -2  -9 95.7540 441.784   1
  14   2   9 20.7911 94.5378   7
 -14  -2  -9 56.0260 117.101   4
  14  -2   9-20.0426 139.202   7
 -14   2  -9 44.6906 119.166   4
  14  -2  -9-18.7419 139.156   7
  14   2   9-17.4795 91.7761   6
 -14  -2   9 14.7942 92.8412   4
  14  -2   9-36.0039 91.0809   6
  14   2 -10-36.1426 76.1544   6
 -14  -2 -10-217.678 417.029   1
 -14   2 -10-118.690 524.530   1
  14   2  10 42.0076 95.5643   7
  14  -2  10 60.5677 118.558   7
 -14   2 -10-30.0128 119.163   4
  14   2  10 52.9719 89.4014   6
 -14  -2  10 15.0517 84.5546   4
  14  -2  10-54.4141 96.9770   6
  14   2 -11-18.0698 71.7264   6
 -14  -2 -11 73.3177 384.150   1
 -14   2 -11-598.366 532.052   1
  14   2  11-42.5165 105.466   7
  14  -2  11 61.7876 141.579   7
 -14   2 -11 15.1219 119.092   4
  14   2  11-17.8426 98.5738   6
  14  -2  11 54.8434 94.2565   6
 -14  -2 -12-49.4032 362.681   1
  14   2  12-42.9687 99.9894   7
  14  -2  12-20.7707 127.042   7
 -14   2 -12 45.7301 117.156   4
  14   2  12-36.0624 96.3492   6
  14  -2  12 73.7276 108.198   6
  14  -2  13 63.5344 121.028   7
 -14   2 -13-46.1197 122.340   4
  14   2  13 36.4539 94.3823   6
  14  -2  13-18.5926 98.0108   6
 -14  -2 -13-249.705 351.347   1
  14  -2  14 128.220 128.236   7
 -14   2 -14-14.9268 122.340   4
 -14   2 -14 147.288 484.781   1
  14   2  14-18.6250 90.6826   6
  14  -2  14 90.9221 108.527   6
  14  -2  15-21.5730 124.239   7
 -14   2 -15 45.2037 127.309   4
  14  -2  15 128.519 105.774   6
 -14   2 -16-30.4275 136.684   4
  14  -2  16-18.5366 97.3167   6
  14  -2  17-22.0295 107.741   7
 -14   2 -17-30.7201 128.966   4
  14  -2  17 18.7225 100.745   6
 -14   2 -18 51.1135 428.084   1
  14  -2  18 66.7829 106.028   7
 -14   2 -18-15.5177 126.109   4
  14  -2  18-18.9177 93.9659   6
 -14   2 -19-206.627 424.452   1
   2  14 -19-48.3392 111.809   3
  14  -2  19-22.5330 105.969   7
 -14   2 -19-15.6794 131.049   4
  14  -2  19 19.1178 105.010   6
  -2  14 -20 214.706 155.045   3
   2  14 -20 130.875 137.816   3
   2 -14  20 71.3160 173.721   5
  -2 -14  20-46.1786 166.943   5
 -14   2 -20-63.3771 157.265   4
   2  14 -20 256.274 123.228   2
  -2  14 -21 16.7474 110.465   3
   2  14 -21-66.4148 97.7625   3
   2 -14  21 47.3472 142.095   5
  -2 -14  21-117.138 148.127   5
   2  14 -21-18.5856 58.2338   2
  -2  14 -22 135.847 125.052   3
   2  14 -22 67.3738 114.902   3
   2 -14  22-119.940 186.731   5
  -2 -14  22-23.7641 185.146   5
   2  14 -22 75.4213 102.461   2
  -2  14 -23 17.0322 103.521   3
   2  14 -23 16.9120 98.6074   3
   2 -14  23 47.9688 143.303   5
  -2 -14  23 71.3445 156.991   5
  -2 -14  23 49.7149 135.638   8
   2  14 -23-19.1289 72.0671   2
  -2  14 -24 17.2556 92.4248   3
   2  14 -24 17.1420 103.657   3
   2 -14  24-24.2921 146.747   5
  -2 -14  24-24.1040 133.311   5
  -2 -14  24 25.2022 134.810   8
   2  14 -24 19.3906 61.1861   2
   2  14 -25-19.6543 71.2250   2
  -2  14 -25-52.4112 112.908   3
   2  14 -25-52.0667 93.4255   3
  -2 -14  25 48.8371 149.777   5
  -2 -14  25 153.233 152.455   8
  14  -3   0-19.2891 94.2359   6
  14   3   0-19.1393 115.896   7
  14  -3   0-37.8173 130.321   7
 -14   3   0 16.0022 91.6983   4
 -14  -3   0-22.2898 446.248   1
  14  -3   1 38.6283 147.910   6
  14  -3  -1 38.5470 136.214   6
  14   3   1 212.123 182.211   7
  14   3  -1 190.057 179.722   7
  14  -3  -1-18.8924 175.154   7
 -14  -3  -1-22.4606 443.183   1
 -14   3  -1 472.238 172.559   4
 -14   3   1 431.806 165.861   4
  14  -3   2 19.3523 84.1429   6
  14  -3  -2-19.2726 66.8065   6
  14   3   2-19.6441 112.297   7
 -14  -3  -2 13.3944 99.8269   4
  14  -3   2 59.0320 136.936   7
  14  -3  -2 18.8891 121.765   7
 -14  -3  -2 22.6432 443.169   1
 -14   3  -2 15.7689 101.764   4
  14   3   2-16.5448 90.3273   6
 -14   3   2 63.9807 94.2873   4
  14  -3   3-19.4035 99.6792   6
  14  -3  -3 38.5676 68.5045   6
  14   3   3 79.2327 123.947   7
 -14  -3  -3-13.5024 98.1443   4
 -14  -3  -3-91.3494 409.465   1
  14  -3   3 19.7270 121.888   7
  14  -3  -3 56.4745 126.481   7
 -14   3  -3 79.0360 108.905   4
  14   3   3 50.0467 90.7999   6
 -14   3   3-32.0899 88.8969   4
  14  -3  -4-19.3084 74.7268   6
 -14  -3  -4-69.1282 455.029   1
  14   3   4 79.9295 136.208   7
 -14  -3  -4-68.0861 98.7588   4
  14  -3   4-19.4938 128.601   7
  14  -3  -4 18.8476 107.790   7
 -14   3  -4-15.4631 99.8238   4
  14   3   4 16.8282 88.7953   6
 -14   3   4-48.1977 76.9618   4
  14  -3   4-19.4675 82.4280   6
 -14   3   5-32.1959 81.6356   4
 -14  -3  -5-325.566 520.781   1
  14   3   5 20.1864 121.804   7
 -14  -3  -5-81.6931 114.917   4
  14  -3   5 19.5686 133.265   7
 -14  -3   5-99.5534 126.209   4
  14  -3  -5-132.161 147.818   7
 -14   3  -5-62.0722 117.620   4
  14   3   5-33.9513 93.4872   6
  14   3  -5 52.2344 104.611   6
  14  -3   5-19.5407 95.2171   6
 -14   3   6 32.2784 101.980   4
 -14   3  -6 46.3713 495.622   1
  14   3   6-20.3761 104.777   7
 -14  -3  -6 178.649 126.653   4
  14  -3   6-19.6599 138.027   7
  14  -3  -6 132.481 166.172   7
 -14  -3   6-14.1631 121.630   4
 -14   3  -6 77.9157 139.911   4
  14   3   6-17.1344 88.4107   6
  14   3  -6 17.3351 97.2217   6
  14  -3   6 19.6266 112.004   6
  14   3   7 20.5791 102.046   7
  14  -3   7 59.2055 155.601   7
  14  -3  -7 96.9976 146.869   7
 -14   3  -7 349.586 540.071   1
 -14  -3   7-14.4055 113.478   4
 -14   3  -7-15.6584 125.654   4
  14   3   7 86.5040 93.7040   6
  14   3  -7 18.0545 111.250   6
  14  -3   7 59.1758 119.291   6
  14  -3   8 39.6962 145.694   7
 -14   3  -8-15.4257 116.086   4
 -14  -3   8-14.3608 101.982   4
  14   3   8 122.320 97.3552   6
 -14   3  -8-47.0049 519.287   1
  14  -3   8 75.8838 92.2040   6
  14   3  -8 53.9968 99.9549   6
 -14   3  -9 212.853 516.859   1
  14   3   9 84.1429 100.645   7
  14  -3   9-19.9698 125.751   7
 -14   3  -9 15.5168 108.279   4
  14   3   9 105.933 101.178   6
 -14  -3   9-58.7680 100.487   4
  14  -3   9-19.0895 91.4408   6
  14   3  -9-17.9479 91.4080   6
 -14  -3 -10-244.586 375.669   1
  14   3 -10 17.9113 85.6590   6
  14   3  10 85.0245 98.6397   7
  14  -3  10-40.5089 143.461   7
 -14   3 -10 31.2333 112.398   4
  14   3  10 18.0352 96.7211   6
  14  -3  10 76.8641 107.971   6
 -14   3 -10-119.067 528.670   1
  14  -3  11 40.7978 139.995   7
 -14   3 -11-527.178 546.093   1
 -14   3 -11 15.7201 125.189   4
  14   3  11 36.4564 92.3255   6
 -14  -3 -11-24.7230 338.619   1
  14  -3  11 38.6946 93.9249   6
 -14   3 -12-72.4470 528.191   1
  14  -3  12 41.1019 124.027   7
 -14   3 -12-15.8393 118.648   4
  14  -3  12-19.4973 88.6505   6
 -14   3 -13 97.3967 531.955   1
  14  -3  13 20.9693 141.458   7
 -14   3 -13-30.7697 128.361   4
  14  -3  13 204.724 133.971   6
  14  -3  14 63.4426 128.537   7
 -14   3 -14 15.5076 126.469   4
  14  -3  14 93.8382 109.342   6
 -14   3 -14-98.0992 507.267   1
  14  -3  15-21.5565 122.773   7
 -14   3 -15-15.6429 115.944   4
  14  -3  15-18.9346 98.0394   6
  14  -3  16 130.564 180.957   7
 -14   3 -16 15.7794 170.208   4
  14  -3  16 152.826 150.670   6
  14  -3  17-43.9329 127.533   7
 -14   3 -17-15.9244 126.851   4
  14  -3  17-19.2871 100.011   6
 -14   3 -18-152.812 475.098   1
  14  -3  18-22.2060 129.735   7
 -14   3 -18-32.1564 128.893   4
  14  -3  18-19.4765 96.3818   6
   3  14 -19 80.4994 113.019   3
  -3 -14  19-46.2740 144.239   5
  -3  14 -20 116.085 105.783   3
   3  14 -20-16.3447 101.833   3
   3 -14  20 167.150 150.972   5
  -3 -14  20 23.0679 140.570   5
  -3  14 -20-18.5574 62.8814   2
  -3  14 -21-67.2489 94.2411   3
   3  14 -21-16.5897 100.046   3
   3 -14  21-71.2983 158.983   5
  -3 -14  21-70.2218 171.405   5
   3  14 -21 18.5680 57.5393   2
  -3  14 -21 18.8153 61.1649   2
  -3  14 -22 17.0374 119.180   3
   3  14 -22-67.3548 103.967   3
   3 -14  22-24.0853 157.344   5
  -3 -14  22 70.2916 166.624   5
  -3 -14  22-97.9277 210.836   8
   3 -14  22-99.3968 183.394   8
   3  14 -22-18.8481 76.1465   2
  -3  14 -22 19.0742 74.6673   2
  -3  14 -23 51.2728 94.6050   3
   3  14 -23-50.7225 90.5374   3
   3 -14  23-72.2307 163.878   5
  -3 -14  23 23.7635 154.722   5
  -3 -14  23-49.6751 132.842   8
   3 -14  23 75.5298 134.651   8
   3  14 -23-19.1190 65.9887   2
  -3  14 -23 77.3286 76.9601   2
  -3  14 -24 69.2223 120.678   3
   3  14 -24 34.2893 102.664   3
   3 -14  24-73.1414 165.311   5
  -3 -14  24-72.2719 156.226   5
  -3 -14  24-25.1872 133.784   8
   3 -14  24-51.0057 140.070   8
   3  14 -24-19.3919 66.9693   2
  -3  14 -24 176.180 87.0630   2
   3  14 -25 17.3595 113.194   3
  -3 -14  25 73.2302 168.021   5
  -3 -14  25 51.0590 145.203   8
   3  14 -25 98.2627 91.1069   2
  14  -4   0 19.5869 197.480   6
  14   4   0 292.284 229.705   7
 -14  -4   0-224.787 513.557   1
 -14   4   0 600.880 226.117   4
  14  -4   1-19.5965 79.3693   6
  14  -4  -1-19.5903 74.4319   6
 -14  -4  -1-135.997 484.666   1
  14   4   1 19.6470 122.759   7
  14   4  -1 173.975 116.159   7
 -14  -4  -1 13.4013 113.150   4
 -14  -4   1 222.947 465.830   1
  14  -4   1 19.2064 145.985   7
  14  -4  -1-114.739 147.816   7
 -14   4  -1 178.690 96.6575   4
 -14   4   1-16.2838 80.7191   4
  14  -4   2-19.6153 127.294   6
  14  -4  -2 19.6028 116.386   6
 -14  -4  -2-137.209 545.010   1
  14   4   2 198.379 168.505   7
 -14  -4  -2 13.3957 137.931   4
  14  -4   2-19.2264 153.404   7
  14  -4  -2-38.2693 160.966   7
  14   4   2 450.613 158.899   6
 -14   4  -2 422.757 152.789   4
 -14   4   2 326.020 134.869   4
 -14   4   3 65.3033 76.0801   4
  14  -4   3-39.2957 93.5741   6
 -14  -4  -3-138.460 500.058   1
  14   4   3 100.094 122.501   7
 -14  -4  -3-121.604 113.028   4
  14  -4   3-19.2628 137.874   7
  14  -4  -3-38.3253 155.673   7
  14   4   3 16.8342 98.8922   6
 -14   4  -3 160.000 106.564   4
  14  -4   4-39.3859 93.0782   6
 -14   4   4 32.7230 82.7826   4
  14   4   4 101.027 118.020   7
  14  -4   4-80.0855 165.805   7
  14  -4  -4 39.2458 142.667   7
  14   4   4 50.9710 101.048   6
 -14   4  -4 16.0332 98.1210   4
  14  -4   5-59.2531 103.871   6
 -14  -4  -5 282.333 521.904   1
  14   4   5 142.832 122.872   7
 -14  -4   5 82.4474 133.901   4
  14  -4   5 160.655 164.253   7
  14   4   5-17.1572 98.4208   6
 -14   4  -5-16.0770 123.743   4
  14   4  -5 148.697 108.554   6
  14  -4   6-19.8221 96.6625   6
 -14  -4  -6-71.2961 480.397   1
  14   4   6-41.2805 106.695   7
  14  -4   6-39.6930 150.163   7
 -14  -4   6 41.0011 116.118   4
  14   4   6-70.0545 93.8993   6
 -14   4  -6 112.920 114.564   4
  14   4  -6-32.8609 103.395   6
 -14  -4  -7 96.0282 399.103   1
  14   4   7 145.968 113.915   7
  14  -4   7-59.7777 149.149   7
 -14  -4   7-14.1088 125.826   4
  14   4   7 159.238 123.847   6
 -14   4  -7-15.7920 117.264   4
  14   4  -7 241.645 116.424   6
  14  -4   7 59.6996 109.815   6
  14  -4   8 20.0202 141.877   7
 -14   4  -8-117.968 510.716   1
 -14  -4   8-42.1475 110.671   4
 -14   4  -8-15.8626 119.890   4
  14   4   8 17.8754 98.7841   6
  14   4  -8-17.1777 91.8213   6
 -14  -4  -8-194.057 367.369   1
  14  -4   8 39.9849 93.0787   6
 -14   4  -9-94.9157 520.071   1
  14  -4   9 20.1057 133.816   7
 -14   4  -9-15.9376 110.690   4
  14   4   9-18.0639 91.3885   6
  14  -4   9 20.0937 91.3617   6
  14  -4  10 20.2225 131.608   7
 -14   4 -10 334.969 550.835   1
 -14   4 -10-16.0286 123.415   4
  14  -4  10 101.061 108.046   6
 -14   4 -11-144.525 573.061   1
  14  -4  11 20.3513 136.947   7
 -14   4 -11 16.1234 113.116   4
  14  -4  11-20.3356 108.652   6
  14  -4  12 61.9266 153.890   7
 -14   4 -12 15.9033 148.804   4
 -14   4 -12 485.077 554.947   1
  14  -4  12 156.655 125.179   6
 -14   4 -13-219.607 534.348   1
  14  -4  13 41.5779 140.474   7
 -14   4 -13 16.0120 132.335   4
  14  -4  13 138.033 118.801   6
 -14   4 -14-393.532 557.992   1
  14  -4  14 148.409 172.528   7
 -14   4 -14 48.3893 157.557   4
  14  -4  14 158.979 147.685   6
  14  -4  15 85.4787 164.626   7
  14  -4  15 40.0665 118.314   6
  14  -4  16 64.6681 142.112   7
 -14   4 -16-32.7821 139.890   4
 -14   4 -16-424.606 571.491   1
  14  -4  16 80.8032 120.776   6
  14  -4  17 109.911 133.164   7
 -14   4 -17-252.027 498.198   1
 -14   4 -17-16.5302 127.317   4
  14  -4  17 40.7505 105.991   6
   4  14 -19-32.1843 97.2183   3
  -4 -14  19 46.2362 141.460   5
  -4  14 -20-33.3172 107.201   3
   4  14 -20-65.3627 111.325   3
  -4 -14  20 46.0991 151.832   5
  -4  14 -21 50.6533 112.330   3
   4  14 -21 99.5344 115.421   3
   4 -14  21 71.6309 160.638   5
  -4 -14  21 23.3988 170.761   5
   4  14 -21 74.2995 84.3075   2
  -4  14 -21 18.9045 83.3698   2
  -4  14 -22 68.4538 94.5363   3
   4  14 -22-16.6698 100.603   3
   4 -14  22-96.7712 162.795   5
  -4 -14  22-23.4272 131.484   5
   4  14 -22-18.8500 59.1427   2
  -4  14 -22 19.1542 57.0134   2
  -4  14 -23 34.3146 112.843   3
   4  14 -23 16.9116 107.515   3
   4 -14  23 24.1781 149.780   5
  -4 -14  23 47.5219 137.575   5
  -4 -14  23-74.5006 139.121   8
   4 -14  23 25.2929 127.500   8
   4  14 -23 95.6566 73.9350   2
  -4  14 -23 116.411 84.0929   2
  -4  14 -24-17.3681 104.279   3
   4  14 -24-34.3046 105.779   3
   4 -14  24-48.9576 159.835   5
  -4 -14  24 48.1941 149.920   5
  -4 -14  24-50.3881 139.834   8
   4 -14  24-76.8137 148.748   8
   4  14 -24 19.3989 62.3607   2
   4  14 -25-34.7486 113.096   3
  -4 -14  25 244.184 178.940   5
  -4 -14  25 102.150 146.287   8
   4  14 -25 58.9918 82.6319   2
   4  14 -26 140.778 144.297   3
 -14  -5   0-45.4765 537.284   1
  14   5   0 177.389 125.637   7
 -14  -5   0 53.2718 133.035   4
  14  -5   0-77.8251 146.235   7
  14   5   0 66.2969 110.371   6
 -14   5   0 49.6815 118.549   4
 -14   5   1 16.5780 123.785   4
  14  -5   1 39.8466 105.422   6
 -14  -5  -1-229.439 571.870   1
 -14  -5   1-22.5344 516.344   1
  14   5   1 159.104 146.969   7
  14   5  -1 136.780 158.469   7
 -14  -5  -1 120.911 144.649   4
  14  -5   1-38.8989 153.053   7
  14   5   1 267.631 142.178   6
 -14   5  -1 16.5502 131.039   4
  14  -5   2-39.8566 101.502   6
 -14  -5  -2-208.432 556.076   1
 -14  -5   2-111.725 561.748   1
  14   5   2 301.592 135.652   7
  14   5  -2 77.4908 129.969   7
  14  -5   2 38.9105 151.579   7
  14   5   2 101.285 108.355   6
 -14   5  -2 16.5518 112.836   4
  14  -5   3-59.8386 101.403   6
 -14  -5  -3-116.932 481.802   1
  14   5   3-20.2985 94.9901   7
  14  -5   3-58.6511 146.785   7
  14   5   3 85.2082 111.323   6
 -14   5  -3-16.5238 90.3510   4
 -14  -5  -4 47.2386 423.060   1
  14  -5   4 19.9770 87.9640   6
  14   5   4 20.4990 98.7206   7
  14  -5   4-19.5777 143.800   7
  14   5   4 139.150 113.894   6
 -14   5  -4 49.6272 102.408   4
  14  -5   5-20.0167 81.6463   6
  14  -5   5-40.6929 130.626   7
  14   5   5-35.1400 101.900   6
 -14   5  -5-16.5753 89.0398   4
 -14  -5  -5-23.8609 378.505   1
  14  -5   6-20.0694 98.4100   6
 -14  -5   6-41.1883 140.246   4
  14  -5   6-20.3973 151.653   7
  14   5   6 195.279 137.303   6
 -14   5  -6 16.6156 136.232   4
 -14  -5  -6-48.2117 351.368   1
  14   5  -6 362.989 133.459   6
  14  -5   7-20.1282 74.7365   6
  14  -5   7-40.9312 145.013   7
 -14  -5   7-13.6475 110.842   4
 -14   5  -7-16.3739 111.382   4
  14   5  -7 49.1901 81.3534   6
  14  -5   8 101.034 106.235   6
  14  -5   8-40.4662 148.967   7
 -14   5  -8 98.5928 133.615   4
  14  -5   9 20.2942 87.8080   6
  14  -5   9-20.3223 144.016   7
 -14   5  -9-16.5003 108.625   4
  14  -5  10-40.7821 88.8432   6
 -14   5 -10 360.704 529.306   1
  14  -5  10-40.8421 137.838   7
 -14   5 -10 16.5760 115.625   4
  14  -5  11 82.0237 150.563   7
 -14   5 -11 64.9825 123.809   4
  14  -5  11 61.4884 105.217   6
 -14   5 -12-121.971 559.331   1
  14  -5  12 41.2598 143.173   7
 -14   5 -12 114.378 152.654   4
  14  -5  12 20.6183 97.9633   6
 -14   5 -13-24.5548 548.076   1
  14  -5  13-83.6710 136.369   7
 -14   5 -13 16.4363 134.755   4
  14  -5  13 20.7488 92.4749   6
  14  -5  14-21.0643 170.273   7
 -14   5 -14-33.0947 142.990   4
  14  -5  14-20.8876 114.303   6
  14  -5  15-42.4278 160.482   7
 -14   5 -15 33.3209 129.992   4
  14  -5  15 42.0767 110.760   6
 -14   5 -16-125.393 532.248   1
  14  -5  16 21.6346 138.858   7
 -14   5 -16 134.270 142.958   4
  14  -5  16 127.182 133.372   6
   5  14 -19 16.0968 106.113   3
  -5 -14  19 113.486 157.771   5
   5  14 -20 163.467 121.684   3
  -5 -14  20-437.950 179.587   5
  -5  14 -21 16.9705 98.3336   3
   5  14 -21 33.2055 104.328   3
   5 -14  21-48.0141 134.851   5
  -5 -14  21 70.1989 146.934   5
  -5  14 -21-18.9960 56.8120   2
  -5  14 -22 120.325 156.946   3
   5  14 -22 250.260 155.016   3
   5 -14  22 24.3176 179.470   5
  -5 -14  22 23.4338 180.973   5
   5  14 -22 150.960 118.594   2
  -5  14 -22 153.981 122.385   2
  -5  14 -23 137.837 115.939   3
   5  14 -23-50.7895 111.418   3
   5 -14  23-24.2999 150.560   5
  -5 -14  23-95.0938 158.224   5
   5 -14  23-25.4205 135.818   8
   5  14 -23 19.1500 63.0149   2
  -5  14 -23-19.4921 58.0175   2
  -5  14 -24 122.109 124.898   3
   5  14 -24 17.1550 103.928   3
   5 -14  24 24.5952 158.251   5
  -5 -14  24 96.4621 157.223   5
  -5 -14  24-25.2037 145.618   8
   5  14 -24 97.1128 88.1031   2
   5  14 -25 34.7830 91.0663   3
  -5 -14  25 48.8866 154.205   5
  -5 -14  25-76.6600 125.221   8
   5  14 -25 39.3853 79.7626   2
   5  14 -26-52.8751 108.364   3
 -14  -6   0-161.486 417.965   1
  14   6   0 60.0171 137.896   7
  14   6   0 134.396 128.001   6
 -14   6  -1 67.4345 94.0089   4
 -14  -6   1 114.240 409.945   1
  14   6  -1 138.769 116.430   7
 -14  -6   1-160.555 128.615   4
  14  -6   1-39.6275 131.939   7
  14   6   1 135.667 118.404   6
  14   6  -1 282.940 137.894   6
 -14  -6  -1-69.8724 368.225   1
 -14   6  -2-16.8456 94.4794   4
 -14  -6   2-22.6391 395.523   1
  14   6  -2 58.9285 98.2935   7
  14  -6   2 99.0158 129.458   7
  14   6   2 17.3072 88.9813   6
 -14  -6  -2-70.5485 379.810   1
 -14  -6   3-89.7634 433.368   1
  14   6  -3 291.596 161.535   7
  14  -6   3-39.6102 156.424   7
  14   6   3 192.320 149.362   6
 -14   6  -3 84.2073 143.907   4
  14  -6   4-20.3043 60.9255   6
  14   6  -4 19.2754 92.0397   7
  14  -6   4 19.8976 138.404   7
 -14   6  -4 33.6990 85.5897   4
  14  -6   5 40.6621 86.9066   6
  14  -6   5 139.473 150.226   7
 -14   6  -5 16.8684 106.674   4
  14  -6   6-20.3636 69.1430   6
  14  -6   6-39.9213 138.260   7
 -14   6  -6-16.8556 93.1700   4
  14  -6   7 20.4116 82.4983   6
  14  -6   7 41.4989 137.346   7
 -14   6  -7 84.4478 115.841   4
  14  -6   8-20.4728 81.7436   6
  14  -6   8 41.6176 149.146   7
 -14   6  -8 33.8746 96.9506   4
  14  -6   9 20.5435 82.9495   6
  14  -6   9 83.5284 142.808   7
 -14   6  -9 16.9926 126.481   4
  14  -6  10-41.2448 82.6724   6
  14  -6  10-82.5861 155.091   7
 -14   6 -10 17.0549 101.440   4
  14  -6  11-41.4283 82.2065   6
  14  -6  11-20.7401 134.934   7
 -14   6 -11 33.6609 123.838   4
  14  -6  12 83.2756 95.7847   6
 -14   6 -12 171.740 560.512   1
  14  -6  12 83.2967 155.301   7
 -14   6 -12 16.9086 120.772   4
  14  -6  13 62.7967 119.591   6
  14  -6  13-20.9440 165.138   7
 -14   6 -13 16.9981 163.747   4
  14  -6  14 21.0579 92.2460   6
  14  -6  14-21.0670 162.568   7
 -14   6 -14 170.973 130.019   4
  14  -6  15 21.1917 93.7426   6
  14  -6  15 64.0849 149.565   7
 -14   6 -15 154.832 133.748   4
   6  14 -19 225.574 155.166   3
  -6 -14  19-22.7124 185.467   5
   6  14 -20 49.0997 111.601   3
  -6 -14  20 46.1424 143.189   5
  -6  14 -21 17.0628 98.1612   3
   6  14 -21-115.173 112.884   3
   6 -14  21-24.1544 136.216   5
  -6 -14  21-23.1079 143.962   5
  -6  14 -22 17.2854 110.055   3
   6  14 -22-16.7087 98.3462   3
   6 -14  22 48.2673 137.742   5
  -6 -14  22-23.4611 154.574   5
   6  14 -22 18.8899 67.9690   2
  -6  14 -22 19.3496 58.0562   2
  -6  14 -23 69.2899 148.258   3
   6  14 -23 84.7687 143.516   3
   6 -14  23-24.4272 181.035   5
  -6 -14  23 119.056 182.422   5
   6  14 -23 210.926 127.107   2
  -6  14 -23 274.275 135.450   2
  -6  14 -24-52.5845 91.0101   3
   6  14 -24-68.7569 117.418   3
  -6 -14  24-24.1418 149.972   5
  -6 -14  24 25.2369 112.498   8
   6  14 -24 77.8376 73.0456   2
   6  14 -25 174.307 117.988   3
  -6 -14  25 24.4764 163.533   5
  -6 -14  25-51.1730 136.457   8
   6  14 -25 78.9200 94.3514   2
   6  14 -26-53.3385 109.314   3
  14   7   0 86.2810 107.233   6
  14   7   1 17.4273 93.1139   6
  14   7  -1-16.9055 94.8833   6
  14   7  -2 66.9742 118.504   6
 -14  -7   2-23.0077 320.105   1
 -14  -7   3 13.3415 106.210   4
 -14  -7   3-22.7905 335.481   1
  14  -7   4-60.5530 143.872   7
 -14  -7   4 22.5744 350.490   1
 -14   7  -5 17.1637 78.6171   4
  14   7  -5 116.339 105.039   7
  14  -7   5-20.1960 136.888   7
 -14   7  -6-17.1773 93.8727   4
  14  -7   6-40.5934 135.025   7
  14  -7   7 20.7468 64.1606   6
  14  -7   7 40.6584 131.868   7
 -14   7  -7 17.1974 99.5508   4
  14  -7   8 20.7879 74.5093   6
  14  -7   8-20.3752 131.092   7
 -14   7  -8 17.2318 95.3028   4
  14  -7   9 20.8417 68.5962   6
  14  -7   9-84.7346 154.451   7
 -14   7  -9 51.8200 93.8777   4
  14  -7  10-83.6332 83.2515   6
  14  -7  10 85.0303 160.763   7
 -14   7 -10 17.2859 95.7270   4
  14  -7  11 20.9832 93.1441   6
  14  -7  11-21.0076 157.382   7
 -14   7 -11-17.3446 95.8522   4
  14  -7  12-21.0761 94.3597   6
  14  -7  12-63.2928 162.626   7
 -14   7 -12 34.8297 140.932   4
  14  -7  13-21.1720 87.0326   6
 -14   7 -13 74.7655 567.147   1
  14  -7  13-63.5859 141.326   7
 -14   7 -13 34.9826 90.5810   4
  14  -7  14-21.2761 92.5414   6
  14  -7  14-21.2831 152.584   7
 -14   7 -14 228.524 132.418   4
  -7  14 -21 120.167 128.903   3
   7 -14  21 72.9413 163.808   5
  -7  14 -22 154.886 134.534   3
   7 -14  22-24.2879 170.520   5
  -7  14 -23-17.4148 96.2446   3
   7 -14  23 24.5783 148.358   5
  -7  14 -23 19.7038 67.7833   2
  14   8  -2-34.4480 91.9566   6
  14   8  -3 16.8738 115.368   6
  14   8  -4 16.7059 91.5202   6
  14  -8   6 82.3821 149.916   7
  14  -8   7 103.476 167.099   7
 -14   8  -8 17.5236 106.306   4
  14  -8   8 41.4523 134.829   7
 -14   8  -9-17.5562 73.9012   4
  14  -8   9 20.7648 145.676   7
 -14   8 -10-17.5957 77.7625   4
  14  -8  10 129.539 162.972   7
  14  -8  11 86.6064 143.797   7
 -14   8 -11-17.6413 76.7330   4
  14  -8  12-21.3772 68.1888   6
  14  -8  12-64.1911 162.142   7
 -14   8 -12 17.6937 77.5022   4
  14  -8  13 21.4620 88.9377   6
  14  -8  13 128.900 160.116   7
 -14   8 -13 124.328 120.642   4
  -8  14 -21-17.2862 100.720   3
  -8  14 -22 17.3161 107.309   3
   8 -14  22-24.4553 153.468   5
  -8  14 -23-52.5779 102.929   3
   8 -14  23 98.9729 147.334   5
  14  -9   9-63.4388 157.564   7
  14  -9  10 21.1832 138.598   7
  14  -9  11 22.0177 153.674   7
  -9  14 -22-52.3054 112.458   3
   9 -14  22-98.5463 170.469   5
 -10  14 -22 17.5725 102.388   3
 -15   0   0-94.2034 533.586   1
  15   0   0-39.8033 136.357   7
 -15   0   0 15.5075 118.316   4
  15   0   0-38.0413 93.8934   6
  15   0   1 79.9200 146.067   7
  15   0  -1 99.1576 140.987   7
 -15   0  -1-47.4043 523.376   1
 -15   0  -1 31.1280 118.036   4
 -15   0   1-15.7760 117.427   4
 -15   0   1-23.4645 533.612   1
  15   0   1 95.4712 103.082   6
  15   0  -1 39.6392 106.529   6
 -15   0  -2 190.534 518.262   1
 -15   0   2-163.747 523.138   1
  15   0   2-40.1405 137.195   7
  15   0  -2 39.5981 154.062   7
 -15   0  -2-93.7782 123.496   4
 -15   0   2-31.4688 125.269   4
  15   0   2-19.1792 94.3982   6
  15   0  -2-39.5283 99.0517   6
  15   0   3-20.3189 133.985   7
  15   0  -3 19.7538 130.274   7
 -15   0  -3-15.1340 125.008   4
 -15   0   3-31.4057 108.264   4
  15   0   3-38.5488 101.538   6
  15   0  -3 19.7197 98.1844   6
 -15   0  -3 47.8805 506.719   1
  15   0  -4 39.3761 86.6208   6
  15   0   4 122.573 144.201   7
  15   0  -4-19.7179 144.638   7
 -15   0  -4 60.8454 115.049   4
 -15   0   4-16.0774 110.508   4
  15   0   4-36.7045 97.6554   6
  15   0  -5 19.6693 97.9860   6
  15   0  -5 39.3964 146.525   7
 -15   0  -5-15.2971 109.810   4
 -15   0   5-80.3279 99.9452   4
  15   0   5 92.3009 92.0146   6
  15   0  -6-58.9676 85.1084   6
  15   0   6-20.9279 129.736   7
 -15   0  -6 30.7822 124.126   4
  15   0  -6 59.9594 141.673   7
 -15   0   6 16.0614 88.8225   4
  15   0   6-37.1477 94.0580   6
  15   0  -7 39.3104 87.4353   6
  15   0   7 147.511 135.010   7
 -15   0  -7-44.7378 118.725   4
  15   0  -7 39.9790 143.014   7
  15   0   7 56.1046 97.1737   6
 -15   0   7 81.7592 97.9923   4
  15   0  -8 59.0023 91.1188   6
  15   0   8-127.344 148.227   7
 -15   0  -8-30.0304 115.488   4
  15   0  -8-60.0045 132.744   7
  15   0   8 18.2538 95.9959   6
 -15   0   8-114.540 85.3016   4
 -15   0  -8 24.6694 472.794   1
  15   0  -9 19.6929 70.5268   6
  15   0   9 21.6147 128.713   7
 -15   0  -9 15.1253 112.349   4
  15   0  -9-20.0269 144.692   7
  15   0   9 36.7835 94.8756   6
 -15   0   9-16.4256 67.2773   4
  15   0  10-43.5774 131.776   7
 -15   0 -10 30.4783 120.315   4
 -15   0 -10 75.1819 460.563   1
  15   0 -10-58.0277 137.319   7
  15   0  10 74.1549 97.7076   6
 -15   0  10 16.4617 65.8954   4
 -15   0  11-16.5060 61.3681   4
 -15   0 -11-75.8156 458.928   1
  15   0  11-21.9657 125.237   7
 -15   0 -11-15.3621 132.038   4
  15   0 -11-19.3934 142.735   7
  15   0  11 37.3763 98.1696   6
 -15   0 -12-484.331 475.932   1
  15   0  12-22.1821 132.366   7
 -15   0 -12-15.4902 124.245   4
  15   0 -12-19.4450 133.975   7
  15   0  12 18.8477 107.813   6
  15   0  13 22.3786 119.386   7
 -15   0 -13 60.7439 132.072   4
  15   0 -13 19.5133 148.425   7
  15   0  13 207.013 124.360   6
 -15   0 -14 51.9190 481.885   1
  15   0  14 22.5821 128.866   7
 -15   0 -14-30.6430 112.918   4
  15   0  14 37.9832 101.673   6
 -15   0 -15 235.839 433.515   1
  15   0  15 22.8329 116.343   7
 -15   0 -15-92.7567 126.482   4
  15   0  15-38.3329 98.7228   6
  15   0  16 23.0521 90.2959   7
 -15   0 -16 15.6037 121.190   4
  15   0  16 58.0632 110.029   6
 -15   0 -17 94.5268 137.303   4
  15   0  17 19.5449 112.076   6
 -15   0 -18-15.9080 135.481   4
  15   0  18-39.4670 100.013   6
 -15   0 -19 32.1263 124.943   4
  15   0  19 39.8793 103.929   6
   0  15 -23-70.1203 112.878   3
   0 -15  23 49.4796 143.251   5
   0  15 -23 19.6303 51.8837   2
 -15  -1   0-165.006 538.976   1
  15   1   0 79.9788 155.132   7
  15  -1   0-40.0665 148.941   7
 -15  -1   0-92.7945 120.095   4
 -15   1   0 111.368 124.533   4
  15   1   0 75.8717 98.0958   6
  15  -1   0-19.9966 93.3810   6
 -15   1  -1-189.825 530.697   1
 -15  -1   1-23.4639 525.821   1
  15   1   1-20.0944 129.592   7
  15   1  -1 118.566 147.059   7
  15  -1   1-20.0970 138.505   7
  15  -1  -1 19.9820 139.137   7
 -15  -1  -1 44.9266 136.543   4
 -15  -1   1-215.698 125.522   4
 -15   1  -1-47.8573 110.111   4
 -15  -1  -1-23.6898 502.551   1
 -15   1   1-15.8735 108.433   4
  15   1   1 18.0508 90.1048   6
  15   1  -1 18.8877 103.128   6
  15  -1   1 40.1187 105.787   6
  15  -1  -1-19.9504 107.063   6
  15  -1  -2-19.9125 106.919   6
 -15  -1  -2 23.7882 506.688   1
  15   1   2-60.5976 134.813   7
  15   1  -2-19.6879 155.431   7
 -15   1  -2-428.782 507.939   1
  15  -1   2 60.4410 156.448   7
  15  -1  -2 182.250 162.284   7
 -15  -1  -2 30.0987 122.450   4
 -15  -1   2 138.162 121.052   4
 -15   1  -2 16.0083 111.171   4
 -15   1   2 64.9993 105.641   4
  15   1   2 18.1440 96.1901   6
  15   1  -2 18.8158 99.5612   6
  15  -1   2 60.3902 116.902   6
  15  -1  -3-19.8874 100.989   6
 -15  -1   3-116.155 511.313   1
 -15  -1  -3-23.9317 504.313   1
  15   1   3 60.9453 144.204   7
  15   1  -3-78.5076 156.027   7
 -15  -1  -3 15.1315 125.010   4
  15  -1  -3 40.4473 166.900   7
 -15   1  -3-15.7487 104.013   4
 -15  -1   3 15.6206 130.880   4
 -15   1   3-16.2332 98.3566   4
  15   1   3 91.2365 108.975   6
  15  -1   3 19.3347 96.3119   6
  15   1  -3 39.2205 99.5921   6
  15  -1  -4-19.8712 88.9824   6
 -15  -1  -4-120.414 495.611   1
  15   1   4 82.7392 141.205   7
 -15  -1   4 23.1650 520.184   1
  15   1  -4 19.5709 140.533   7
 -15  -1  -4-29.3025 123.071   4
  15  -1  -4 20.2034 134.999   7
 -15   1  -4-15.8154 121.123   4
 -15  -1   4 31.1673 105.548   4
 -15   1   4 81.1080 94.6095   4
  15   1   4 18.3605 86.2814   6
  15  -1   4 38.8504 104.478   6
  15   1  -4-19.5588 101.545   6
  15  -1  -5-19.8680 78.8917   6
 -15  -1  -5 217.918 483.457   1
  15   1   5 104.118 138.616   7
  15  -1   5-102.912 147.279   7
 -15  -1   5-23.1093 500.754   1
 -15  -1  -5 14.7459 110.486   4
  15   1  -5-39.1048 130.158   7
  15  -1  -5-101.016 144.567   7
 -15   1  -5-15.8948 120.129   4
 -15  -1   5 15.5562 102.411   4
  15   1   5-17.9095 100.550   6
 -15   1   5 16.5126 86.7300   4
  15  -1   5 19.5225 92.9285   6
  15   1  -5 58.5588 90.8740   6
  15   1  -6-19.4935 84.3059   6
 -15  -1   6 23.0638 505.493   1
  15  -1  -6-19.8743 73.7820   6
  15  -1   6-20.6978 143.748   7
 -15  -1  -6 14.8447 119.653   4
  15   1  -6-39.0424 148.769   7
  15  -1  -6 60.6261 144.584   7
 -15   1  -6 30.8048 121.294   4
 -15  -1   6-79.6527 99.9645   4
  15   1   6 90.1677 96.3533   6
 -15   1   6 49.5732 91.2840   4
  15  -1   6 19.6308 95.4179   6
  15   1  -7-19.4723 89.1381   6
  15  -1  -7-139.282 88.8923   6
 -15   1  -7 293.958 494.025   1
  15   1   7-21.3516 120.282   7
  15  -1   7 41.6491 137.441   7
 -15  -1  -7 14.9508 119.119   4
  15   1  -7-78.0104 145.168   7
 -15   1  -7 15.4915 121.466   4
  15  -1  -7 19.5071 135.874   7
 -15  -1   7-31.8337 105.263   4
  15   1   7-18.1665 83.2441   6
  15  -1   7 18.7047 87.6598   6
 -15   1   7 16.5791 74.2894   4
  15   1  -8 19.4675 84.4674   6
  15  -1  -8-19.9297 81.8129   6
 -15   1  -8-443.888 501.463   1
  15   1   8 64.5590 117.142   7
  15  -1   8 63.6348 131.603   7
 -15  -1  -8-60.2561 119.761   4
 -15  -1  -8-445.915 465.095   1
  15   1  -8-58.4804 135.555   7
 -15   1  -8-15.5863 118.976   4
  15  -1  -8-19.5380 133.069   7
  15   1   8 109.850 94.6332   6
 -15  -1   8-129.614 106.845   4
  15  -1   8-18.8277 97.3036   6
 -15   1   8-33.2261 81.0367   4
 -15   1   9 83.2572 72.4225   4
  15   1  -9 58.4004 88.8416   6
 -15   1  -9-24.8372 486.077   1
 -15  -1  -9 399.629 450.227   1
  15   1   9-21.6969 110.033   7
  15  -1   9-64.0734 135.900   7
 -15  -1  -9-14.7560 110.798   4
  15   1  -9 19.5008 131.448   7
 -15   1  -9-15.6931 105.880   4
  15  -1  -9 19.5780 134.795   7
  15   1   9-36.5365 92.7386   6
  15  -1   9 56.8687 98.0287   6
 -15  -1   9 16.2053 88.3988   4
  15   1 -10-19.4846 82.0421   6
 -15  -1 -10 25.1915 429.283   1
  15   1  10-21.9009 128.566   7
  15  -1  10 129.090 138.353   7
 -15  -1 -10-29.7593 119.039   4
 -15   1 -10-47.4131 117.357   4
  15   1 -10-19.8125 125.882   7
  15  -1 -10-19.6311 132.114   7
  15   1  10 18.4199 98.4359   6
  15  -1  10 19.0946 92.8315   6
 -15  -1  10 16.2237 73.7907   4
 -15   1 -10 549.843 499.023   1
  15   1 -11-19.5100 77.6818   6
 -15  -1 -11 25.4145 436.049   1
  15   1  11-22.0930 122.204   7
  15  -1  11-43.8312 141.053   7
 -15  -1 -11-15.0048 128.216   4
 -15   1 -11 45.9744 119.885   4
  15   1 -11 79.3618 144.788   7
  15  -1 -11 19.6166 121.706   7
  15   1  11 18.5803 95.9939   6
  15  -1  11 76.9621 95.6537   6
 -15  -1  11-16.2909 70.7328   4
 -15  -1 -12 128.219 437.668   1
  15   1  12 200.652 130.610   7
  15  -1  12 22.0939 141.953   7
 -15  -1 -12 15.1376 121.444   4
 -15   1 -12 46.3306 143.782   4
 -15   1 -12 558.563 506.922   1
  15   1 -12 19.8794 139.273   7
  15  -1 -12 19.6904 158.657   7
  15   1  12 74.9949 102.674   6
  15  -1  12 75.1814 117.110   6
 -15  -1 -13-388.300 473.935   1
  15   1  13 67.6135 111.090   7
  15  -1  13 22.2769 120.445   7
 -15  -1 -13-15.2708 138.433   4
 -15   1 -13 77.8361 110.761   4
  15   1  13 18.9251 91.9213   6
  15  -1  13 94.7729 101.208   6
 -15  -1 -14-365.910 453.285   1
 -15   1 -14-335.879 544.727   1
  15   1  14 182.018 140.509   7
  15  -1  14 22.4961 127.751   7
 -15  -1 -14-30.8326 121.037   4
 -15   1 -14-15.7021 133.617   4
  15   1  14 19.1017 107.301   6
  15  -1  14 76.4834 104.000   6
 -15   1 -15-312.848 454.837   1
  15  -1  15 22.7001 115.462   7
 -15  -1 -15 15.4248 127.684   4
 -15   1 -15-15.8362 122.291   4
  15   1  15-38.5549 98.2567   6
  15  -1  15-38.5857 103.772   6
 -15  -1 -15 26.3850 391.099   1
  15  -1  16-22.9096 106.629   7
 -15  -1 -16 15.5699 127.553   4
 -15   1 -16-31.9560 128.855   4
  15   1  16 38.9422 99.2480   6
  15  -1  16 97.3420 101.097   6
 -15  -1 -16 293.096 391.877   1
  15  -1  17-23.1635 107.793   7
 -15  -1 -17 15.7219 129.570   4
 -15   1 -17 16.1262 126.992   4
  15   1  17-39.3196 91.4884   6
  15  -1  17 19.6482 99.4000   6
 -15   1 -18-241.416 417.809   1
  15  -1  18-23.3868 115.857   7
 -15   1 -18-16.2777 133.162   4
  15  -1  18 138.886 105.427   6
 -15   1 -19-15.9764 125.898   4
  15  -1  19 19.8304 100.428   6
 -15   1 -19 162.530 412.020   1
 -15   1 -20-16.1285 137.688   4
  15  -1  20 20.0282 97.3980   6
 -15   1 -21-32.5836 135.576   4
  15  -1  21-60.7017 123.459   6
   1  15 -22-51.8964 110.435   3
  -1  15 -23 52.6780 101.120   3
   1  15 -23-35.0173 108.057   3
   1 -15  23 49.5819 154.283   5
  -1 -15  23 49.4011 157.584   5
   1  15 -23-19.6042 66.1133   2
  -1  15 -23 58.9958 69.1202   2
   1  15 -24 35.0697 99.8731   3
  15  -2   0 20.1673 94.1568   6
 -15  -2   0-23.5700 535.867   1
  15   2   0-100.010 140.529   7
  15  -2   0-41.0176 142.636   7
 -15  -2   0 29.8237 114.851   4
 -15   2   0-16.4470 104.760   4
  15   2   0 17.9652 92.9275   6
  15  -2   1-20.2116 102.426   6
  15  -2  -1 40.2711 93.9588   6
 -15  -2  -1 23.7083 535.338   1
 -15  -2   1-23.4446 510.161   1
  15   2   1 223.875 165.323   7
  15   2  -1 79.5940 148.026   7
 -15  -2  -1 29.9876 126.605   4
  15  -2   1-40.4877 143.542   7
  15  -2  -1 20.4753 140.721   7
 -15  -2   1-14.8413 152.017   4
 -15   2  -1 32.9590 125.748   4
 -15   2   1 49.2632 111.925   4
  15   2   1 234.838 125.611   6
  15   2  -1 125.132 116.608   6
  15  -2  -2 120.699 94.4248   6
 -15  -2  -2 95.3074 496.585   1
  15   2   2 61.4281 132.235   7
  15   2  -2 257.474 244.953   7
 -15  -2  -2 14.5126 117.625   4
  15  -2  -2-40.9011 145.424   7
 -15  -2   2 15.3299 164.276   4
 -15  -2   2-46.6648 582.549   1
 -15   2  -2 16.1092 111.418   4
 -15   2   2 16.6991 97.3935   4
  15   2   2-52.8401 98.0776   6
  15   2  -2-37.5687 118.515   6
  15  -2   2-20.2683 92.9755   6
  15  -2  -3 40.2117 84.3928   6
  15   2   3 20.6107 129.094   7
  15   2  -3 138.073 250.564   7
 -15  -2  -3-116.831 121.832   4
  15  -2  -3-39.4299 135.423   7
 -15   2  -3 16.1606 104.392   4
  15   2   3-17.7284 104.290   6
 -15   2   3-16.6939 89.6586   4
  15   2  -3 336.749 160.786   6
 -15  -2  -3 47.9694 479.263   1
  15  -2   3 60.9984 117.418   6
 -15   2  -4-24.1347 487.258   1
  15  -2  -4 20.1081 82.5411   6
 -15  -2   4-46.3427 517.687   1
  15   2   4 62.9208 128.457   7
 -15  -2  -4-73.4970 114.109   4
  15   2  -4-97.5283 158.554   7
  15  -2   4 81.6958 150.434   7
  15  -2  -4 59.1490 138.489   7
 -15  -2   4-15.2196 114.208   4
 -15   2  -4 16.2180 110.524   4
 -15  -2  -4 120.772 456.637   1
  15   2   4-71.3944 87.0228   6
 -15   2   4 16.6995 78.0131   4
  15   2  -4 18.6396 88.9541   6
  15  -2   4-81.6376 112.950   6
  15  -2  -5 20.1235 79.9669   6
 -15   2  -5-509.231 509.240   1
 -15  -2   5-23.0911 501.942   1
  15   2   5 21.1260 124.069   7
 -15  -2  -5-14.3912 122.061   4
  15   2  -5 77.7792 143.132   7
  15  -2   5-102.571 139.593   7
  15  -2  -5-19.7265 132.804   7
 -15  -2  -5-24.3354 476.827   1
 -15   2  -5-15.9557 106.272   4
 -15  -2   5 46.4594 114.022   4
  15   2   5-17.9775 94.4696   6
 -15   2   5 33.5086 86.4713   4
  15  -2   5-20.4980 91.0424   6
  15   2  -5-38.8612 100.255   6
  15  -2  -6-20.1443 79.9584   6
  15   2   6 21.2885 119.489   7
 -15   2  -6 97.7176 502.600   1
 -15  -2  -6 28.9957 108.607   4
 -15  -2  -6-662.249 461.726   1
  15  -2   6-41.2234 141.688   7
  15   2  -6-38.7947 129.108   7
  15  -2  -6 118.502 135.767   7
 -15   2  -6 16.0307 113.593   4
 -15  -2   6 92.0986 509.781   1
 -15  -2   6-92.7329 116.790   4
  15   2   6-35.8554 90.7080   6
  15  -2   6 19.6992 89.5767   6
 -15   2   6 16.7815 70.6547   4
  15   2  -6 19.3827 101.769   6
 -15   2   7-16.8135 62.4325   4
 -15  -2   7-114.574 505.308   1
 -15   2  -7-417.634 507.770   1
 -15  -2  -7 29.2154 115.952   4
  15  -2   7 41.4514 137.947   7
  15   2  -7-58.0576 142.402   7
  15  -2  -7 19.7862 131.695   7
 -15   2  -7 16.1113 123.825   4
 -15  -2   7 77.1406 103.826   4
  15   2   7-54.2157 98.2165   6
  15  -2   7 39.6135 94.2545   6
  15   2  -7-19.3436 101.562   6
  15   2  -8-38.6340 96.7980   6
 -15   2   8 101.154 70.3098   4
 -15  -2   8-22.8735 513.181   1
  15   2   8 21.6639 127.892   7
 -15  -2  -8 29.4548 116.781   4
  15  -2   8 126.017 153.736   7
  15   2  -8-19.3251 133.539   7
  15  -2  -8 59.2605 129.241   7
 -15   2  -8 16.1992 138.931   4
 -15  -2   8-31.6044 101.317   4
  15   2   8-18.2197 99.9505   6
  15  -2   8-19.9209 101.704   6
  15   2  -9-19.2975 82.1205   6
 -15  -2   9 91.4026 529.884   1
 -15  -2  -9-25.1504 425.102   1
  15   2   9 21.8501 113.289   7
 -15  -2  -9-29.6998 123.856   4
 -15   2  -9-24.8402 498.559   1
  15  -2   9 21.1343 147.273   7
  15   2  -9 19.3315 133.427   7
 -15   2  -9-48.8929 126.864   4
  15  -2  -9-99.0547 140.885   7
  15   2   9-18.3752 86.3576   6
 -15  -2   9-15.7903 85.2238   4
  15  -2   9 20.0413 98.1554   6
  15   2 -10 38.5744 91.8370   6
 -15  -2 -10-482.188 443.334   1
 -15   2 -10 225.109 498.181   1
 -15  -2  10 136.974 522.427   1
  15   2  10-22.0452 115.788   7
 -15  -2 -10 14.8461 123.285   4
  15  -2  10-43.0538 135.123   7
  15   2 -10 19.3239 140.928   7
 -15   2 -10-15.8127 130.364   4
  15   2  10 37.0765 97.3862   6
 -15  -2  10-32.1389 93.0288   4
  15  -2  10 38.2196 90.9935   6
 -15  -2 -11-332.926 415.312   1
 -15   2 -11 201.549 508.122   1
  15   2  11 178.268 124.812   7
 -15  -2 -11-29.9587 121.968   4
  15  -2  11 21.6854 136.126   7
 -15   2 -11 15.9186 129.878   4
  15   2  11 93.5058 105.083   6
  15  -2  11 96.2096 112.700   6
 -15  -2 -12 25.8479 408.141   1
  15   2  12 22.4890 93.0324   7
 -15  -2 -12 15.1144 128.869   4
  15  -2  12-21.8471 127.145   7
 -15   2 -12-16.0327 119.838   4
  15   2  12-18.8738 111.644   6
  15  -2  12 96.9333 111.357   6
 -15   2 -12 709.890 518.137   1
  15  -2  13 44.4997 178.530   7
 -15   2 -13-16.1548 165.031   4
  15   2  13 228.705 142.413   6
  15  -2  13 293.075 159.349   6
 -15  -2 -13-234.880 422.020   1
  15  -2  14-67.3055 135.396   7
 -15   2 -14-16.2809 140.819   4
  15   2  14 76.9737 112.952   6
 -15  -2 -14 237.182 371.611   1
  15  -2  14 19.6947 107.025   6
 -15   2 -15 51.9822 488.670   1
  15  -2  15-22.6259 136.828   7
 -15   2 -15-16.4152 135.567   4
  15  -2  15 59.5820 100.856   6
  15  -2  16 45.7007 139.847   7
 -15   2 -16 63.7324 136.238   4
  15  -2  16 80.1451 119.221   6
 -15   2 -17-105.839 478.452   1
  15  -2  17 23.0581 133.834   7
 -15   2 -17-32.1560 127.075   4
  15  -2  17 58.7813 95.8498   6
 -15   2 -18 454.049 456.332   1
  15  -2  18 23.2766 115.582   7
 -15   2 -18 16.2178 125.897   4
  15  -2  18 79.0905 115.791   6
  15  -2  19 23.5362 114.808   7
 -15   2 -19-16.3696 118.634   4
  15  -2  19 59.8982 108.933   6
 -15   2 -20-16.5243 142.566   4
  15  -2  20-20.1636 106.642   6
   2  15 -22 17.2862 93.1331   3
  -2  15 -23 70.4057 123.509   3
   2  15 -23-17.4994 112.562   3
   2 -15  23 24.8597 153.061   5
  -2 -15  23 48.7128 146.060   5
   2  15 -23 19.5916 54.3696   2
   2  15 -24 35.0573 102.823   3
  15  -3   0 122.323 126.766   6
  15   3   0 101.530 170.196   7
 -15  -3   0 100.808 139.703   4
  15  -3   0 41.4557 160.499   7
  15   3   0 209.591 140.101   6
 -15   3   0-16.9143 142.775   4
 -15  -3   0-70.9276 500.561   1
  15  -3   1-20.4179 86.1074   6
 -15  -3   1-23.4967 515.534   1
  15  -3  -1-20.3734 78.4638   6
  15   3   1-41.3018 129.689   7
  15   3  -1-40.3655 131.413   7
 -15  -3   1 14.8780 120.036   4
  15  -3  -1-39.9503 140.235   7
 -15  -3  -1-190.390 489.082   1
 -15   3  -1-49.9153 93.5308   4
  15   3   1 105.442 98.7718   6
  15   3  -1 17.9128 102.229   6
 -15   3   1-16.9028 95.0122   4
  15  -3   2 81.8267 106.001   6
  15  -3  -2 20.3678 91.1198   6
 -15  -3   2-210.555 550.158   1
  15   3   2 187.137 159.898   7
  15   3  -2 60.2107 149.704   7
 -15  -3  -2-14.5822 128.064   4
 -15  -3   2 44.4062 132.163   4
  15  -3  -2 119.812 140.912   7
 -15  -3  -2 47.9261 471.660   1
 -15   3  -2 99.9988 134.800   4
  15   3   2 53.0818 110.178   6
  15   3  -2 178.169 127.807   6
 -15   3   2 50.7166 103.654   4
  15  -3   3 20.5031 86.5865   6
  15  -3  -3-40.7500 86.0488   6
 -15  -3   3 116.348 513.176   1
  15   3   3 20.9411 119.556   7
  15   3  -3-19.9684 141.655   7
 -15  -3  -3-42.8171 112.610   4
 -15  -3  -3-24.1386 446.816   1
  15  -3   3-41.0769 144.257   7
  15  -3  -3 39.9498 136.044   7
 -15   3  -3 50.1140 110.158   4
  15   3   3-35.2701 78.5581   6
  15   3  -3 17.7271 84.6373   6
 -15   3   3-50.8508 87.6633   4
  15  -3  -4-20.3949 70.4512   6
 -15  -3   4 69.4845 522.547   1
 -15  -3  -4-194.601 452.849   1
  15   3   4 42.1978 125.798   7
 -15  -3  -4 43.1267 109.782   4
  15   3  -4 39.2909 139.374   7
  15  -3   4 20.5988 138.790   7
  15  -3  -4-79.9572 131.742   7
 -15  -3   4 91.3139 132.685   4
 -15   3  -4-16.7530 101.351   4
  15   3   4-17.7672 91.8684   6
  15   3  -4 93.1705 99.8103   6
 -15   3   4 16.9705 84.4824   4
  15  -3   4-41.1346 102.274   6
 -15   3   5 16.9976 64.7134   4
 -15  -3  -5-171.618 453.336   1
  15   3   5 21.2873 116.568   7
 -15  -3   5 46.1150 502.964   1
 -15  -3  -5 14.4853 126.924   4
  15   3  -5 58.7015 142.060   7
  15  -3   5 41.3428 142.814   7
  15  -3  -5-19.9396 124.376   7
 -15  -3   5 15.1601 120.245   4
 -15   3  -5 81.9553 120.363   4
  15   3   5 107.444 113.280   6
 -15   3  -5 341.313 503.523   1
  15   3  -5-18.5572 94.9722   6
  15  -3   5-61.9162 99.2470   6
 -15   3   6 34.0708 56.3129   4
 -15   3  -6 538.739 510.238   1
 -15  -3  -6-173.030 430.433   1
  15   3   6-42.9186 106.589   7
 -15  -3  -6 14.6013 130.490   4
  15   3  -6 19.4970 140.927   7
  15  -3   6 41.5220 139.805   7
 -15  -3   6-114.853 515.204   1
  15  -3  -6-19.9790 131.594   7
 -15  -3   6 45.3301 117.209   4
 -15   3  -6 16.4540 116.705   4
  15   3   6 54.1536 101.453   6
  15   3  -6-55.4735 102.287   6
  15  -3   6-20.7210 100.857   6
 -15   3  -7-49.2058 523.601   1
 -15  -3  -7 324.092 418.386   1
  15   3   7 21.6452 115.981   7
 -15  -3  -7 29.1818 117.934   4
  15   3  -7-58.3061 137.986   7
  15  -3   7 20.8308 147.855   7
  15  -3  -7-60.0804 129.069   7
 -15  -3   7-61.5064 111.412   4
 -15   3  -7-33.0533 115.114   4
  15   3   7 18.1950 97.6106   6
 -15  -3   7-91.6970 512.701   1
  15  -3   7 20.8164 90.4524   6
  15   3  -7-38.5473 94.0914   6
 -15  -3   8 68.5626 511.745   1
 -15   3  -8 99.1919 521.510   1
 -15  -3  -8 58.8571 115.760   4
  15   3  -8 58.1500 120.873   7
  15  -3   8 20.9400 146.070   7
 -15   3  -8 16.6029 127.264   4
 -15  -3   8 30.6832 111.651   4
  15   3   8-36.7159 102.327   6
  15  -3   8 41.8381 104.670   6
  15   3  -8-19.2225 94.4256   6
  15   3  -9 19.1861 87.2826   6
 -15   3  -9 174.568 516.049   1
  15  -3   9-84.8458 134.786   7
  15   3  -9 19.1964 139.988   7
 -15   3  -9-16.3568 112.473   4
  15   3   9 18.5188 111.801   6
 -15  -3   9 15.7034 102.209   4
  15  -3   9-20.1199 89.3223   6
 -15  -3 -10 25.6152 374.802   1
  15   3  10 44.5350 90.1808   7
  15  -3  10-106.703 158.048   7
 -15   3 -10-32.8990 121.269   4
 -15   3 -10-376.417 530.213   1
  15   3  10-18.6911 106.432   6
  15  -3  10-20.2381 95.8804   6
 -15   3 -11 403.581 525.541   1
  15  -3  11-107.392 138.116   7
 -15   3 -11 66.2165 127.235   4
  15   3  11-56.5955 105.897   6
  15  -3  11 81.4817 116.116   6
 -15  -3 -11 336.123 369.969   1
 -15   3 -12-660.414 605.305   1
  15  -3  12 65.6496 177.446   7
 -15   3 -12 116.626 180.571   4
  15   3  12 133.320 152.459   6
 -15  -3 -12-391.586 395.371   1
  15  -3  12 369.100 184.187   6
  15  -3  13 176.327 226.445   7
  15  -3  13 144.560 177.103   6
  15  -3  14-66.6305 131.850   7
 -15   3 -14-33.7944 136.312   4
 -15   3 -14 360.632 536.904   1
  15  -3  14 187.274 137.024   6
  15  -3  15-67.8776 144.820   7
 -15   3 -15-16.4154 132.389   4
 -15   3 -15 415.419 529.316   1
  15  -3  15-59.5978 111.672   6
  15  -3  16-22.8148 128.006   7
 -15   3 -16 471.254 514.768   1
 -15   3 -16-16.5443 136.214   4
  15  -3  16 100.151 116.340   6
 -15   3 -17-211.288 542.410   1
  15  -3  17 276.188 273.174   7
 -15   3 -17 83.4081 237.294   4
  15  -3  17 504.995 260.324   6
 -15   3 -18-186.535 486.102   1
  15  -3  18-23.2393 119.953   7
 -15   3 -18 33.6551 142.768   4
  15  -3  18 20.3795 97.1500   6
 -15   3 -19 50.9313 131.987   4
   3  15 -22 69.1239 108.981   3
  -3 -15  22-48.7356 140.359   5
  -3  15 -23-17.6575 100.658   3
   3  15 -23-17.3162 97.2062   3
  -3 -15  23 73.0245 150.832   5
   3  15 -24-35.0603 104.528   3
  -3 -15  24 221.691 157.588   5
  15  -4   0 20.6562 79.9568   6
  15   4   0 123.892 137.766   7
 -15  -4   0-238.112 459.862   1
 -15  -4   0 14.4902 121.548   4
  15   4   0 52.7012 105.570   6
 -15   4   0-17.1320 105.843   4
  15  -4   1 20.6704 99.1851   6
  15  -4  -1-41.3092 77.7564   6
 -15  -4  -1-23.9820 445.302   1
  15   4   1 415.848 180.241   7
  15   4  -1 307.600 160.796   7
 -15  -4  -1-113.455 117.155   4
 -15  -4   1-115.202 132.529   4
 -15  -4   1 165.530 472.356   1
  15  -4  -1-60.7535 141.466   7
  15   4   1 210.111 142.320   6
  15   4  -1 453.793 160.734   6
 -15   4  -1 17.1399 144.680   4
 -15   4   1 17.1740 131.279   4
  15  -4   2-20.6922 87.6133   6
  15  -4  -2 20.6654 85.0651   6
 -15  -4  -2-24.1635 451.797   1
  15   4   2 20.9666 112.421   7
  15   4  -2 20.3791 118.275   7
 -15  -4  -2 28.5653 114.638   4
 -15  -4   2-14.3117 114.869   4
  15  -4   2 21.0405 138.793   7
  15  -4  -2-20.1770 125.373   7
 -15  -4   2-23.4982 485.776   1
  15   4   2 35.2755 94.7107   6
  15   4  -2 121.391 120.809   6
 -15   4  -2-17.1542 108.056   4
 -15   4   2-17.1869 66.7174   4
 -15   4   3 34.4126 83.3813   4
  15  -4   3-20.7314 79.5763   6
 -15  -4  -3-24.3555 455.560   1
  15   4   3 274.685 134.059   7
 -15  -4  -3-100.717 118.651   4
  15   4  -3 20.2611 124.015   7
 -15  -4   3 14.7876 123.508   4
  15  -4   3 21.0766 149.193   7
  15  -4  -3-20.1991 137.496   7
 -15  -4   3 70.0554 484.074   1
  15   4   3 177.742 116.545   6
 -15   4  -3-17.1789 103.486   4
  15   4  -3 142.326 113.944   6
 -15   4   4 68.9444 69.8912   4
  15  -4   4 62.3344 99.9009   6
 -15  -4  -4 24.5522 423.561   1
  15   4   4 42.6035 90.8060   7
 -15  -4  -4-57.4954 126.763   4
  15   4  -4 59.7982 133.436   7
 -15  -4   4-14.7106 120.324   4
  15  -4   4 105.627 138.186   7
  15  -4  -4-60.6869 122.921   7
  15   4   4 125.378 114.687   6
 -15   4  -4-16.9149 104.441   4
  15   4  -4-53.0806 98.7866   6
 -15  -4   4 92.8676 506.961   1
  15  -4   5-20.8324 88.5635   6
 -15  -4   5-69.2815 507.338   1
 -15  -4  -5-24.7583 398.550   1
  15   4   5-64.4396 105.137   7
 -15  -4  -5 57.9531 104.396   4
  15   4  -5-79.3331 126.607   7
  15  -4   5 21.1868 139.984   7
 -15  -4   5 43.9243 115.966   4
  15   4   5 36.1169 97.2783   6
 -15   4  -5 16.9595 103.100   4
  15   4  -5 105.634 94.8796   6
  15  -4   6 20.9039 110.934   6
 -15  -4  -6 24.9737 389.118   1
 -15  -4   6 23.0141 481.914   1
  15   4   6 238.671 125.773   7
  15   4  -6 118.448 152.234   7
  15  -4   6-20.9323 154.846   7
 -15  -4   6-30.2477 126.993   4
  15   4   6 54.6381 104.911   6
 -15   4  -6 68.0412 137.089   4
  15   4  -6 185.037 120.994   6
  15  -4   7-20.9808 83.6334   6
 -15   4  -7 767.828 523.087   1
 -15  -4  -7 554.375 389.804   1
 -15  -4   7 22.9156 486.624   1
  15   4   7-43.7795 97.4419   7
  15   4  -7 19.6581 129.611   7
  15  -4   7-21.0127 147.623   7
 -15  -4   7 15.0662 107.037   4
 -15   4  -7 34.1461 110.057   4
  15   4   7 18.3738 93.2834   6
  15   4  -7 18.4261 89.9035   6
  15   4  -8-78.3303 135.000   7
  15  -4   8 21.0826 143.769   7
 -15  -4   8 30.6386 113.189   4
 -15   4  -8 16.7151 112.948   4
  15   4   8 18.5415 96.1422   6
 -15   4  -8 621.934 536.894   1
  15   4  -8 19.1954 91.9152   6
 -15  -4  -8-25.4251 363.076   1
  15  -4   8 42.1437 105.039   6
 -15   4  -9-400.159 541.564   1
  15  -4   9-42.3693 133.744   7
 -15   4  -9-33.5827 106.387   4
  15   4   9-18.9112 105.498   6
  15  -4   9 21.1702 95.0788   6
 -15   4 -10 50.4118 551.645   1
  15  -4  10-21.2970 142.109   7
 -15   4 -10 101.256 127.026   4
  15  -4  10 42.5552 103.930   6
 -15   4 -11 50.7024 552.819   1
  15  -4  11 21.5782 156.789   7
 -15   4 -11 50.9021 139.950   4
  15  -4  11 128.380 123.292   6
  15  -4  12 217.120 244.185   7
 -15   4 -12 68.2727 204.617   4
  15  -4  13-131.148 165.742   7
 -15   4 -13-16.8349 137.423   4
  15  -4  13 151.724 118.604   6
 -15   4 -14-361.710 565.251   1
  15  -4  14-133.632 153.654   7
 -15   4 -14 33.8885 136.170   4
  15  -4  14 41.7434 106.402   6
  15  -4  15 112.166 167.649   7
 -15   4 -15 17.0625 160.690   4
  15  -4  15 147.183 138.291   6
 -15   4 -15 77.9879 548.039   1
  15  -4  16 182.837 141.013   7
 -15   4 -16-17.1901 134.248   4
 -15   4 -16 235.781 544.763   1
  15  -4  16-21.1869 102.868   6
  15  -4  17 69.1269 144.711   7
 -15   4 -17 26.4139 526.122   1
 -15   4 -17-34.6454 133.262   4
  15  -4  17-42.7069 101.780   6
 -15   4 -18 34.9188 139.610   4
   4  15 -22 17.2871 112.488   3
  -4 -15  22-24.3682 162.196   5
   4  15 -23 69.3163 115.863   3
  -4 -15  23 48.6940 157.011   5
   4  15 -24-17.5438 101.522   3
  -4 -15  24 98.5725 156.572   5
   4  15 -24-19.8480 52.1558   2
 -15  -5   0-48.0986 435.665   1
  15   5   0 125.083 139.016   7
 -15  -5   0-14.2130 128.031   4
  15   5   0 157.866 123.221   6
 -15   5   0 52.2825 128.539   4
 -15   5   1-17.4388 89.2979   4
  15  -5   1 83.8812 76.2775   6
 -15  -5  -1-24.2314 409.636   1
 -15  -5   1 167.073 431.692   1
  15   5   1 63.0297 107.182   7
  15   5  -1 62.0925 128.983   7
 -15  -5  -1-128.856 124.603   4
 -15  -5   1 14.1122 115.435   4
  15  -5   1-82.2327 146.315   7
  15   5   1 141.391 113.126   6
  15   5  -1 34.8227 103.128   6
 -15   5  -1-17.4222 101.733   4
  15  -5   2-20.9809 91.2259   6
 -15  -5  -2 122.141 395.711   1
 -15  -5   2-118.478 442.866   1
  15   5   2 275.306 141.089   7
  15   5  -2 41.1050 141.959   7
 -15  -5  -2-14.3011 123.170   4
 -15  -5   2 57.6826 131.236   4
  15  -5   2 20.5695 144.963   7
  15   5   2 142.427 124.423   6
  15   5  -2 174.742 116.231   6
 -15   5  -2 52.2818 103.735   4
  15  -5   3-21.0039 88.7667   6
 -15  -5  -3-24.6292 384.683   1
 -15  -5   3-70.6172 438.106   1
  15   5   3-21.3817 104.152   7
  15   5  -3 183.568 155.719   7
 -15  -5   3-14.3299 107.770   4
  15  -5   3 144.117 155.819   7
  15   5   3 17.9540 113.454   6
  15   5  -3 52.0675 113.800   6
 -15   5  -3 17.3983 107.340   4
 -15  -5  -4 24.8418 369.181   1
  15  -5   4-21.0342 76.7274   6
  15   5   4 43.1385 105.907   7
 -15  -5   4 70.1633 472.370   1
  15   5  -4-60.7997 126.464   7
 -15  -5   4 142.454 116.657   4
  15  -5   4 64.1565 146.232   7
  15   5   4 18.1044 96.2250   6
  15   5  -4-17.2488 90.1819   6
 -15   5  -4 17.4241 92.6992   4
  15  -5   5-21.0770 100.966   6
  15   5  -5 322.346 155.876   7
 -15  -5   5-46.4739 464.172   1
 -15  -5   5 88.2993 128.866   4
  15  -5   5 85.7212 156.443   7
  15   5   5 54.7839 129.485   6
  15   5  -5 35.3748 111.737   6
 -15   5  -5 17.4561 124.582   4
 -15  -5  -5-100.240 355.773   1
  15  -5   6-21.1300 76.7310   6
  15   5  -6-20.0308 124.810   7
 -15  -5   6 277.239 466.011   1
  15  -5   6-42.9711 142.014   7
 -15  -5   6-14.6362 119.592   4
  15   5   6 167.599 116.134   6
 -15   5  -6 17.4985 102.088   4
  15   5  -6 17.5912 91.6439   6
 -15  -5  -6 101.121 349.594   1
  15  -5   7 21.1924 94.7616   6
  15   5  -7 179.382 139.654   7
  15  -5   7 42.4483 162.154   7
 -15  -5   7-87.4044 117.528   4
 -15   5  -7 155.158 135.239   4
  15   5  -7 129.334 119.747   6
  15  -5   8 21.2674 85.0256   6
  15  -5   8 42.6015 146.777   7
 -15   5  -8-17.2977 113.007   4
  15  -5   9 21.3515 88.3072   6
 -15   5  -9 251.918 537.797   1
  15  -5   9 21.3867 153.557   7
 -15   5  -9 52.0887 110.415   4
  15  -5  10-42.9032 102.096   6
 -15   5 -10 202.517 551.408   1
  15  -5  10-21.4614 153.561   7
 -15   5 -10 52.3138 118.631   4
  15  -5  11 43.1208 125.238   6
  15  -5  11 43.1516 170.273   7
  15  -5  12-43.3774 159.205   7
 -15   5 -12 17.1775 139.263   4
  15  -5  12-21.6760 95.5532   6
  15  -5  13 65.9447 143.964   7
 -15   5 -13 34.5437 138.084   4
 -15   5 -13 206.488 598.606   1
  15  -5  13-21.7991 98.1279   6
 -15   5 -14 311.279 559.727   1
  15  -5  14-22.1249 145.627   7
 -15   5 -14 17.3761 136.856   4
  15  -5  14-21.9337 99.7527   6
  15  -5  15 67.6030 150.474   7
 -15   5 -15-34.9801 128.099   4
  15  -5  15-22.0810 114.489   6
  15  -5  16-22.6992 144.510   7
 -15   5 -16-17.6044 128.292   4
  15  -5  16-22.2349 96.7232   6
   5  15 -22 155.772 128.138   3
  -5 -15  22-24.0662 158.521   5
   5  15 -23-17.3504 101.885   3
  -5 -15  23 48.7377 143.068   5
   5  15 -24-87.8457 113.648   3
  -5 -15  24-24.6621 160.096   5
 -15  -6   0-170.406 386.569   1
  15   6   0 295.753 142.455   7
 -15  -6   0-14.2499 118.298   4
  15   6   0 70.9264 120.136   6
 -15   6  -1-17.7003 71.0150   4
 -15  -6   1-96.6254 426.527   1
  15   6   1 170.341 115.582   7
  15   6  -1 125.740 117.553   7
 -15  -6   1-85.6099 123.477   4
  15  -6   1-41.6155 139.984   7
  15   6   1 17.8758 92.7104   6
  15   6  -1 88.0049 106.748   6
 -15  -6  -1-122.722 368.267   1
 -15   6  -2-17.6931 104.955   4
 -15  -6   2-47.9357 390.044   1
  15   6  -2 124.777 114.346   7
 -15  -6   2-42.4886 128.669   4
  15  -6   2 145.631 152.674   7
  15   6   2 90.1310 129.723   6
  15   6  -2 34.9325 106.607   6
 -15  -6  -2 24.7489 366.606   1
 -15  -6   3 95.1539 402.781   1
  15   6  -3 20.6123 98.7683   7
 -15  -6   3-14.0666 114.830   4
  15  -6   3-62.6847 147.052   7
  15   6   3 18.1793 94.4438   6
  15   6  -3-52.0157 91.7712   6
 -15  -6  -3-24.9617 333.390   1
 -15   6  -3-17.6961 71.1914   4
  15  -6   4-21.3370 83.2597   6
 -15  -6   4 94.4739 410.887   1
  15   6  -4 163.753 143.518   7
 -15  -6   4-43.1131 133.033   4
  15  -6   4 188.242 157.617   7
  15   6   4 129.746 118.104   6
  15   6  -4 173.979 145.676   6
 -15   6  -4-17.7095 117.785   4
  15  -6   5-21.3621 77.3370   6
 -15  -6   5-23.4514 437.930   1
  15   6  -5-20.3286 101.543   7
 -15  -6   5-85.6667 119.953   4
  15  -6   5 41.8875 141.432   7
  15   6  -5 17.2837 91.5146   6
 -15   6  -5-17.7290 83.3558   4
  15  -6   6-21.4016 86.9025   6
  15   6  -6 100.966 126.851   7
  15  -6   6-108.808 163.946   7
  15   6  -6 177.150 119.223   6
 -15   6  -6 88.5764 131.544   4
  15  -6   7-21.4539 74.8892   6
  15  -6   7 87.2640 152.077   7
 -15   6  -7 17.7554 95.7649   4
  15  -6   8 43.0307 77.9979   6
  15  -6   8 21.8745 152.444   7
 -15   6  -8-17.8029 123.025   4
  15  -6   9-21.5835 83.2102   6
  15  -6   9 21.6224 145.654   7
 -15   6  -9-17.8562 103.521   4
  15  -6  10-43.3476 88.9180   6
  15  -6  10 151.934 172.407   7
 -15   6 -10-17.9198 102.356   4
  15  -6  11 21.7616 83.6534   6
 -15   6 -11-25.6524 573.637   1
  15  -6  11-21.8000 152.956   7
 -15   6 -11-17.6813 97.7003   4
  15  -6  12 43.7250 99.7448   6
 -15   6 -12 206.254 563.384   1
  15  -6  12-43.7579 142.584   7
 -15   6 -12 17.7600 130.940   4
  15  -6  13 21.9753 90.2104   6
  15  -6  13 21.9938 152.933   7
 -15   6 -13 17.8492 120.344   4
 -15   6 -14 313.611 569.886   1
  15  -6  14 22.0954 93.2477   6
  15  -6  14-66.8441 150.082   7
 -15   6 -14-17.9440 140.342   4
  15  -6  15 66.6842 102.335   6
  15  -6  15 156.920 168.611   7
 -15   6 -15 78.7783 582.292   1
 -15   6 -15-18.0440 116.517   4
   6  15 -22 51.4732 106.388   3
  -6 -15  22-96.3867 163.952   5
   6  15 -23-34.7628 113.953   3
  -6 -15  23-24.3989 163.904   5
   6  15 -24 17.6046 102.663   3
  -6 -15  24 98.8099 173.810   5
  15   7   0-35.9549 97.6224   6
  15   7   1 72.5071 114.729   6
  15   7  -1 71.3183 106.071   6
 -15  -7   2 14.2241 122.491   4
  15   7  -2-35.3751 94.8566   6
 -15  -7   2 24.3023 360.958   1
 -15  -7   3 56.9619 130.273   4
  15   7  -3 122.850 127.790   6
 -15  -7   3-96.4298 356.601   1
 -15   7  -4-17.9833 66.9617   4
 -15  -7   4-14.1388 106.959   4
  15  -7   4 63.4995 137.806   7
  15   7  -4 17.4201 113.453   6
 -15  -7   4-71.7560 381.207   1
 -15   7  -5 71.9817 134.973   4
  15   7  -5 144.093 144.309   7
  15  -7   5 21.2664 165.949   7
  15   7  -5 209.620 137.022   6
 -15   7  -6 54.0449 124.327   4
  15  -7   6 127.754 165.195   7
  15  -7   7 21.7587 79.2006   6
  15  -7   7 149.328 162.018   7
 -15   7  -7 36.0866 111.840   4
  15  -7   8-43.6106 79.0740   6
  15  -7   8-22.1730 154.537   7
 -15   7  -8 18.0787 97.4593   4
  15  -7   9-21.8641 71.9829   6
  15  -7   9-22.2344 148.000   7
 -15   7  -9 36.2490 96.8645   4
  15  -7  10-21.9353 84.0706   6
  15  -7  10 153.757 171.482   7
 -15   7 -10 54.4037 104.622   4
  15  -7  11 22.0137 84.7535   6
  15  -7  11-66.1381 157.815   7
 -15   7 -11 18.1965 119.870   4
  15  -7  12-22.1049 86.6990   6
 -15   7 -12 52.0573 558.931   1
  15  -7  12 88.5561 162.342   7
 -15   7 -12 36.5288 102.379   4
  15  -7  13 22.2035 84.0173   6
  15  -7  13 66.6293 153.530   7
 -15   7 -13-36.6857 100.999   4
  15  -7  14-22.3091 88.5427   6
  15  -7  14 111.614 161.240   7
 -15   7 -14-18.4275 109.702   4
  15   8  -2 107.740 134.045   6
 -15  -8   3 85.9705 122.172   4
  15   8  -3-17.8053 116.113   6
  15  -8   6-43.2823 147.131   7
  15  -8   7 21.6625 148.108   7
 -15   8  -8 18.3460 64.5225   4
  15  -8   8-65.1174 148.272   7
 -15   8  -9 36.7609 81.9750   4
  15  -8   9-22.5499 161.545   7
 -15   8 -10 18.4256 90.6481   4
  15  -8  10-67.8297 163.910   7
  15  -8  11-68.0494 162.852   7
 -15   8 -11 18.4766 85.0949   4
  15  -8  12-44.7705 66.7168   6
  15  -8  12 134.480 172.282   7
 -15   8 -12-18.5332 82.3038   4
  15  -8  13-22.4701 75.2920   6
  15  -8  13-45.0110 160.090   7
 -15   8 -13-422.996 594.834   1
 -15   8 -13 18.6009 87.7185   4
  15  -9   9-66.2910 152.526   7
  15  -9  10 114.805 185.393   7
  15  -9  11-23.0217 150.626   7
  15  -9  12 23.0894 157.865   7
  16   0   0 104.973 185.325   7
 -16   0   0-24.9073 527.302   1
 -16   0   0 116.837 148.018   4
  16   0   0 188.805 148.915   6
 -16   0   1-148.658 519.947   1
 -16   0  -1 49.9991 506.735   1
  16   0   1-42.1322 139.516   7
  16   0  -1-41.8697 153.428   7
 -16   0  -1-65.6328 113.863   4
 -16   0   1 16.6480 117.834   4
  16   0   1 20.1340 97.0663   6
  16   0  -1-20.9170 102.860   6
 -16   0  -2-125.527 507.067   1
  16   0   2 106.544 147.380   7
  16   0  -2-20.8821 141.462   7
 -16   0   2 197.648 506.775   1
 -16   0   2-33.2288 100.242   4
  16   0   2 40.4242 93.3354   6
  16   0  -2 41.7301 104.786   6
  16   0  -3 20.8252 107.571   6
 -16   0   3 221.868 514.830   1
  16   0   3 21.4034 134.471   7
  16   0  -3-20.8688 129.476   7
 -16   0  -3 49.6109 134.465   4
 -16   0  -3 25.2190 502.334   1
 -16   0   3-102.047 115.879   4
  16   0   3 81.1831 106.763   6
  16   0  -4 41.5877 100.331   6
  16   0   4-150.526 139.264   7
  16   0  -4-20.8368 154.216   7
 -16   0  -4 16.6103 126.605   4
 -16   0   4 16.9865 99.6692   4
  16   0   4-40.7798 102.509   6
  16   0  -5 20.7785 78.7692   6
  16   0  -5-41.6239 153.962   7
 -16   0  -5 16.0886 128.691   4
 -16   0   5 67.9108 105.055   4
  16   0   5 38.8196 97.6002   6
  16   0  -6 20.7715 94.2264   6
  16   0   6-153.965 146.075   7
  16   0  -6 20.8084 144.370   7
 -16   0  -6-16.1749 126.862   4
 -16   0   6-17.2721 97.4062   4
  16   0   6-19.5183 100.671   6
  16   0  -7 20.7721 92.1805   6
 -16   0  -7 128.559 495.313   1
  16   0   7-22.1233 133.524   7
  16   0  -7 63.3852 145.241   7
 -16   0  -7 16.2647 133.079   4
  16   0   7-39.2725 110.219   6
 -16   0   7-34.5533 98.4809   4
  16   0  -8-20.7853 88.1267   6
  16   0   8-66.8037 151.829   7
 -16   0  -8-65.4487 118.653   4
  16   0  -8 63.4243 148.693   7
  16   0   8 19.7583 102.406   6
 -16   0  -8 232.912 495.329   1
 -16   0   8-17.2916 82.9506   4
  16   0  -9-20.8114 72.3703   6
  16   0   9 67.9710 146.096   7
 -16   0  -9-31.7000 129.189   4
  16   0  -9 42.3352 136.549   7
  16   0   9 19.8894 106.836   6
 -16   0   9-34.7140 90.1569   4
  16   0  10 22.8100 155.960   7
 -16   0 -10-63.8272 138.061   4
  16   0 -10 127.180 158.396   7
  16   0  10 19.4066 101.997   6
 -16   0  10-17.3896 74.3460   4
 -16   0  11-17.4323 58.6537   4
 -16   0 -11-449.328 506.605   1
  16   0  11 22.9806 135.441   7
 -16   0 -11 16.0676 116.698   4
  16   0 -11 42.4778 158.163   7
  16   0  11-78.1973 113.756   6
 -16   0 -12-159.819 483.505   1
  16   0  12 162.227 151.845   7
 -16   0 -12-32.3757 129.885   4
  16   0 -12-63.8834 164.028   7
  16   0  12 196.964 125.127   6
 -16   0 -13 53.6835 471.906   1
  16   0  13-23.3594 118.200   7
 -16   0 -13 32.6201 136.374   4
  16   0  13-19.8495 98.4991   6
  16   0  14 164.850 141.747   7
 -16   0 -14-32.8732 141.987   4
  16   0  14 60.0308 105.556   6
 -16   0 -15-163.745 455.636   1
  16   0  15-23.7796 108.705   7
 -16   0 -15 99.4144 138.977   4
  16   0  15-80.7040 110.222   6
 -16   0 -16 247.696 438.474   1
  16   0  16 23.9890 114.479   7
 -16   0 -16 32.4770 129.368   4
  16   0  16 40.2657 114.069   6
 -16   0 -17-16.3744 138.828   4
  16   0  17 20.3090 108.540   6
 -16   0 -18 49.5446 156.363   4
  16   0  18 40.9777 113.263   6
 -16   0 -19-16.6538 130.353   4
  16   0  19-62.0222 119.782   6
  16   1   0 42.2148 143.090   7
  16  -1   0 63.3664 153.546   7
 -16  -1   0 48.9673 143.775   4
 -16   1   0 67.0895 111.222   4
 -16  -1   0-199.068 539.878   1
  16   1   0 20.0190 90.7488   6
 -16   1   0 74.8296 506.688   1
  16  -1   0 21.0797 97.4067   6
  16  -1  -1 84.1300 114.791   6
 -16  -1   1-74.3472 518.065   1
  16   1   1 63.5719 164.390   7
  16   1  -1 231.303 160.606   7
  16  -1   1 169.233 164.144   7
 -16  -1  -1-124.775 504.296   1
  16  -1  -1 42.1481 155.383   7
 -16   1  -1-50.0314 510.960   1
 -16  -1  -1 131.091 142.298   4
 -16  -1   1 16.2672 137.716   4
 -16   1   1-17.1640 120.900   4
  16   1   1 160.776 143.849   6
  16   1  -1-19.9439 113.992   6
  16  -1   1 169.069 118.948   6
  16  -1  -2 146.982 110.403   6
 -16   1  -2-803.263 520.657   1
 -16  -1   2 123.487 524.431   1
 -16  -1  -2 50.1459 520.055   1
  16   1   2 21.2899 140.244   7
  16   1  -2 20.8064 140.140   7
  16  -1   2 21.2207 141.366   7
  16  -1  -2-63.1143 147.719   7
 -16  -1  -2-15.8616 124.063   4
 -16  -1   2 33.1044 132.539   4
 -16   1  -2-16.8597 120.775   4
 -16   1   2-34.2784 106.368   4
  16   1   2-19.1172 98.7436   6
  16   1  -2 20.7856 96.9189   6
  16  -1   2 21.2056 91.9090   6
  16  -1  -3-20.9746 90.9573   6
 -16  -1  -3-25.2034 498.274   1
 -16   1  -3-884.133 536.402   1
  16   1   3-86.5967 145.834   7
  16  -1   3 21.2988 135.475   7
  16   1  -3 165.959 154.167   7
 -16  -1   3-123.132 521.214   1
  16  -1  -3-42.0230 138.443   7
 -16  -1  -3-15.9354 119.554   4
 -16   1  -3-49.7360 125.448   4
 -16  -1   3-49.5351 122.776   4
 -16   1   3 17.1244 107.664   4
  16   1   3 96.0534 97.4190   6
  16  -1   3 63.8310 99.2426   6
  16   1  -3 41.4572 96.6966   6
  16  -1  -4 20.9607 85.8117   6
  16   1   4-43.5326 133.165   7
  16   1  -4 82.8136 146.730   7
 -16  -1  -4 16.0171 141.285   4
  16  -1  -4-42.6358 145.040   7
 -16   1  -4 83.2193 112.049   4
 -16  -1   4-148.314 120.195   4
 -16   1   4 34.8316 97.8039   4
  16   1   4 38.6273 113.414   6
  16  -1   4 20.4369 99.3915   6
  16   1  -4 41.3684 106.688   6
 -16  -1   4-24.5075 526.584   1
  16   1  -5 20.6468 92.0194   6
  16  -1  -5-41.9153 83.6229   6
 -16  -1   5-97.8385 510.844   1
  16   1   5-21.8884 134.150   7
  16  -1   5 151.512 141.085   7
  16   1  -5-61.9960 139.328   7
 -16  -1  -5 64.4090 121.976   4
  16  -1  -5-85.2568 154.195   7
 -16   1  -5-16.7135 116.399   4
 -16  -1   5 16.8716 111.373   4
  16   1   5-19.4260 98.6574   6
 -16   1   5 17.4170 93.4601   4
  16  -1   5 82.1064 100.146   6
  16   1  -6-61.8640 100.662   6
  16  -1  -6 20.9632 88.7318   6
 -16  -1   6 97.7031 513.590   1
  16  -1   6 65.2723 138.535   7
  16   1  -6-20.6616 136.296   7
 -16  -1  -6 15.5920 124.107   4
 -16   1  -6 204.698 509.709   1
  16  -1  -6 21.3195 149.857   7
 -16   1  -6 50.3728 136.678   4
 -16  -1   6 50.5754 103.526   4
  16   1   6-37.8799 94.4170   6
 -16   1   6 17.4259 85.2098   4
  16  -1   6 41.2645 96.4650   6
  16   1  -7 20.6081 89.1400   6
  16  -1  -7-41.9714 83.3018   6
 -16   1  -7 154.350 511.735   1
  16  -1   7-43.7384 131.992   7
 -16  -1   7-195.211 523.736   1
 -16  -1  -7 31.3767 117.527   4
  16   1  -7 41.2869 138.922   7
  16  -1  -7-21.3374 142.021   7
 -16   1  -7-16.8774 133.970   4
 -16  -1   7-50.5556 97.5061   4
  16   1   7 114.368 103.598   6
  16  -1   7-20.7375 108.884   6
 -16   1   7-52.4654 79.5318   4
  16   1  -8 103.015 102.749   6
  16  -1  -8-21.0166 72.9991   6
  16   1   8 90.2393 129.011   7
  16  -1   8-89.0368 156.516   7
 -16  -1  -8 31.5833 109.060   4
 -16  -1  -8-207.725 492.288   1
  16   1  -8-61.9266 150.867   7
  16  -1  -8-21.3680 142.606   7
 -16   1  -8 32.7185 117.517   4
  16   1   8 38.3822 89.9290   6
 -16  -1   8 17.1496 98.3115   4
  16  -1   8-98.7732 109.635   6
 -16   1   8 122.627 82.2028   4
 -16   1   9-17.5544 76.1283   4
  16   1  -9 20.6108 81.2888   6
  16   1   9 22.7226 122.778   7
  16  -1   9-44.7891 159.726   7
 -16  -1  -9 47.6923 127.503   4
  16   1  -9-82.5982 155.757   7
 -16   1  -9-32.9087 130.865   4
  16  -1  -9 82.5779 154.366   7
  16   1   9 38.6585 104.885   6
  16  -1   9-79.4941 111.299   6
 -16  -1   9-137.244 98.0109   4
  16   1 -10-20.6256 104.744   6
  16   1  10 22.9118 136.077   7
  16  -1  10 67.6401 159.790   7
 -16  -1 -10-16.0131 130.957   4
  16   1 -10 103.320 164.234   7
 -16   1 -10 99.3330 180.810   4
  16  -1 -10-62.0844 161.868   7
  16   1  10-19.4701 112.769   6
  16  -1  10 240.023 136.994   6
 -16  -1  10 103.297 113.731   4
  16   1 -11-20.6531 83.3991   6
 -16  -1 -11 159.316 466.776   1
  16   1  11 253.966 145.330   7
  16  -1  11 68.8324 153.159   7
 -16  -1 -11-15.6806 131.748   4
  16   1 -11-103.456 145.969   7
 -16   1 -11 16.6662 141.668   4
  16  -1 -11-20.7478 143.432   7
 -16   1 -11-131.832 534.159   1
  16   1  11 38.8298 118.383   6
  16  -1  11 161.101 122.587   6
 -16  -1  11 34.4865 85.9583   4
 -16  -1 -12 26.7621 454.887   1
  16   1  12-23.2711 121.452   7
  16  -1  12 23.1037 133.029   7
 -16  -1 -12-15.8007 129.705   4
 -16   1 -12 185.888 506.458   1
 -16   1 -12-33.5552 137.558   4
  16  -1 -12-62.4728 150.182   7
  16   1  12-39.1392 108.014   6
  16  -1  12-40.5694 110.017   6
 -16  -1 -13-242.876 473.853   1
 -16   1 -13 294.314 510.128   1
  16   1  13 70.5046 124.628   7
  16  -1  13 46.5661 139.892   7
 -16  -1 -13-15.9239 157.299   4
 -16   1 -13 16.2676 140.354   4
  16   1  13 236.760 146.357   6
  16  -1  13 102.162 128.798   6
 -16   1 -14 188.773 489.974   1
  16   1  14 142.172 138.618   7
  16  -1  14 46.9720 129.314   7
 -16  -1 -14-16.0509 125.240   4
 -16   1 -14-32.7778 139.584   4
  16   1  14 19.8939 110.788   6
  16  -1  14 99.7702 111.096   6
 -16   1 -15-516.475 519.501   1
  16   1  15 71.6920 120.775   7
  16  -1  15 47.3380 122.077   7
 -16  -1 -15 48.5507 130.055   4
 -16   1 -15-16.5124 138.304   4
  16   1  15 180.563 141.593   6
  16  -1  15 80.4561 122.324   6
 -16  -1 -15 631.091 423.488   1
  16  -1  16 23.8642 118.434   7
 -16  -1 -16-16.3220 124.435   4
 -16   1 -16 16.6443 131.118   4
  16   1  16-20.2382 106.306   6
  16  -1  16 20.2765 100.646   6
 -16  -1 -16-83.0497 408.322   1
  16  -1  17-24.1040 134.550   7
 -16  -1 -17 32.9261 132.095   4
 -16   1 -17-33.5559 133.535   4
  16   1  17-20.4143 116.197   6
  16  -1  17 20.4494 97.1110   6
  16  -1  18-24.3118 128.151   7
 -16   1 -18 50.7551 142.892   4
  16  -1  18 20.6242 106.943   6
 -16   1 -19 17.0658 140.324   4
  16  -1  19 83.2032 122.960   6
 -16   1 -19 506.218 447.708   1
 -16   1 -20 17.2105 141.864   4
  16  -1  20-20.9923 115.993   6
 -16   1 -21 17.3620 138.437   4
  16  -1  21-105.901 123.269   6
  16  -2   0 63.7037 98.5612   6
 -16  -2   0 223.881 513.893   1
  16   2   0 149.528 174.544   7
  16  -2   0 21.2727 149.043   7
 -16  -2   0-94.4183 136.910   4
 -16   2   0 138.519 144.086   4
  16   2   0 132.694 120.619   6
  16  -2   1 21.2773 99.0657   6
  16  -2  -1-21.2038 89.3092   6
 -16  -2  -1-99.9973 489.199   1
 -16  -2   1-24.7644 507.720   1
  16   2   1 21.4616 136.378   7
  16   2  -1 21.0138 150.375   7
  16  -2   1 21.3111 151.029   7
  16  -2  -1-64.6876 140.319   7
 -16  -2  -1-63.2246 126.471   4
 -16  -2   1 16.2620 126.052   4
 -16   2  -1-17.3458 114.199   4
 -16   2   1 103.762 109.909   4
  16   2   1 57.1425 96.4122   6
  16   2  -1-39.8551 110.125   6
 -16  -2  -2 25.1012 496.924   1
  16  -2  -2 21.1800 106.786   6
  16   2   2 86.2908 155.249   7
 -16  -2   2 73.9858 531.187   1
  16   2  -2 20.9363 179.842   7
  16  -2   2-42.7333 162.448   7
 -16  -2  -2 142.967 138.614   4
  16  -2  -2 21.5407 170.478   7
 -16  -2   2 64.8110 145.527   4
 -16   2  -2-479.124 498.566   1
 -16   2  -2-33.9112 114.204   4
 -16   2   2 105.528 122.703   4
  16   2   2 191.454 144.820   6
  16   2  -2 158.839 120.835   6
  16  -2   2 149.286 121.078   6
  16  -2  -3-21.1738 91.5765   6
  16   2   3 43.3888 142.778   7
  16   2  -3-41.7227 153.501   7
 -16  -2  -3 15.3717 122.012   4
  16  -2  -3 86.1124 146.434   7
 -16  -2   3-16.1495 120.973   4
 -16  -2   3 24.5709 527.373   1
 -16   2  -3 17.0003 118.073   4
  16   2   3-55.9630 92.5460   6
 -16   2   3-52.7420 92.3044   4
 -16  -2  -3 100.978 479.816   1
  16   2  -3 19.7845 96.1692   6
  16  -2   3 21.3875 90.0341   6
  16  -2  -4-21.1718 82.3337   6
  16   2   4-22.0545 128.215   7
  16   2  -4-20.7976 124.451   7
 -16  -2  -4-61.8271 124.284   4
  16  -2   4-85.9167 141.923   7
  16  -2  -4-21.5282 140.632   7
 -16  -2   4-32.8734 118.275   4
 -16   2  -4-17.0543 134.896   4
 -16  -2  -4 203.176 500.948   1
  16   2   4 56.3007 102.766   6
 -16   2   4-87.9253 93.1851   4
 -16  -2   4-24.5218 531.506   1
  16   2  -4 41.2409 96.7908   6
  16  -2   4 21.4601 96.0572   6
  16  -2  -5-42.3700 94.0448   6
 -16  -2   5-146.715 545.191   1
  16   2   5-22.1922 128.419   7
  16   2  -5 41.4913 148.453   7
 -16  -2  -5-62.2115 121.538   4
  16  -2   5-43.1288 149.794   7
 -16  -2  -5 408.968 471.726   1
  16  -2  -5 83.0962 154.266   7
 -16   2  -5 25.5544 511.497   1
 -16   2  -5-17.1174 129.372   4
 -16  -2   5 49.2004 112.770   4
  16   2   5 18.8832 93.7215   6
 -16   2   5-88.2024 89.2920   4
  16  -2   5-21.5443 102.554   6
  16   2  -5 61.7090 108.030   6
  16  -2  -6-21.2059 67.4994   6
 -16   2  -6-924.114 540.980   1
 -16  -2   6 24.3967 537.012   1
  16   2   6 44.6792 115.729   7
 -16  -2  -6-77.2050 468.858   1
 -16  -2  -6-15.6518 120.823   4
  16  -2   6 238.273 166.857   7
  16   2  -6 20.5473 132.605   7
  16  -2  -6-20.7955 138.872   7
 -16   2  -6 33.6828 130.998   4
 -16  -2   6-16.3692 117.665   4
  16   2   6 19.0078 96.8314   6
  16  -2   6 21.6399 96.6890   6
 -16   2   6 52.9898 81.1105   4
  16   2  -6-20.5304 100.435   6
 -16   2   7-17.6948 70.9663   4
  16   2  -7 20.4933 90.9271   6
 -16  -2  -7 45.9370 116.484   4
  16  -2   7 65.7798 148.938   7
  16   2  -7 143.597 136.525   7
 -16  -2   7 48.7092 525.908   1
  16  -2  -7-20.8240 151.777   7
 -16   2  -7-16.9197 110.673   4
 -16  -2   7 16.7632 114.617   4
  16   2   7 114.843 115.739   6
  16  -2   7-20.7954 98.8843   6
 -16   2  -7-361.182 524.331   1
  16   2  -8 61.4208 88.6092   6
 -16   2   8 17.7338 58.4575   4
 -16  -2  -8 30.8424 127.139   4
  16  -2   8-66.1184 160.721   7
  16   2  -8-20.4895 149.424   7
 -16   2  -8 25.9032 531.689   1
  16  -2  -8-20.8691 138.937   7
 -16   2  -8 17.0035 121.700   4
 -16  -2   8-16.7511 102.508   4
  16   2   8-38.1532 98.4072   6
 -16  -2   8-145.590 555.811   1
  16  -2   8-20.9026 99.5182   6
  16   2  -9 20.4604 93.0416   6
 -16  -2   9 266.643 548.798   1
 -16  -2  -9 1578.02 529.392   1
 -16   2  -9-1458.86 651.628   1
  16   2   9-22.8542 131.840   7
 -16  -2  -9 15.5320 123.998   4
  16  -2   9-44.3301 152.133   7
  16   2  -9-40.9516 163.792   7
  16  -2  -9 104.613 148.190   7
 -16   2  -9 17.0914 142.323   4
  16   2   9 115.307 116.202   6
 -16  -2   9-17.0405 112.721   4
  16  -2   9 84.0819 135.085   6
  16   2 -10 61.3858 78.6533   6
 -16  -2 -10 79.5218 464.537   1
  16   2  10 23.0320 116.536   7
 -16  -2 -10 31.2958 139.740   4
  16  -2  10-67.7003 143.377   7
  16   2 -10 40.9490 134.761   7
 -16   2 -10-17.1904 143.726   4
  16   2  10-19.3666 110.398   6
  16  -2  10 21.1409 118.669   6
  16   2  11-46.5085 121.366   7
 -16  -2 -11-15.7703 118.605   4
  16  -2  11 22.7075 145.491   7
 -16   2 -11-51.8782 128.637   4
  16   2  11 175.695 116.135   6
  16  -2  11 63.8212 105.116   6
 -16  -2 -12 134.711 434.069   1
  16   2  12 46.8821 122.803   7
 -16  -2 -12 15.8925 154.184   4
  16  -2  12-68.5763 145.453   7
 -16   2 -12-16.7746 140.759   4
  16   2  12 354.322 149.913   6
 -16   2 -12-265.285 545.664   1
  16  -2  12 101.404 121.599   6
  16  -2  13-23.2670 229.382   7
 -16   2 -13 16.8841 232.560   4
 -16   2 -13 53.4308 562.029   1
  16   2  13 516.021 275.478   6
  16  -2  13-20.4231 214.075   6
 -16  -2 -14 128.099 175.459   4
  16  -2  14 70.3042 158.826   7
 -16   2 -14 80.7435 527.235   1
 -16   2 -14 17.0063 158.412   4
  16   2  14 180.085 151.188   6
  16  -2  14 205.688 152.904   6
 -16   2 -15 162.720 510.563   1
  16  -2  15 118.066 142.647   7
 -16   2 -15-68.5269 142.351   4
  16  -2  15-41.4478 107.029   6
  16  -2  16 142.956 130.220   7
 -16   2 -16-51.7831 150.641   4
  16  -2  16 83.5541 119.689   6
  16  -2  17-120.105 162.497   7
 -16   2 -17 34.7859 142.985   4
  16  -2  17-42.1161 133.028   6
  16  -2  18 24.2194 135.820   7
 -16   2 -18-70.1510 145.380   4
  16  -2  18 21.2304 117.720   6
 -16   2 -19-196.148 509.857   1
  16  -2  19-24.4598 119.984   7
 -16   2 -19-17.6804 150.747   4
  16  -2  19-21.4121 107.446   6
  16  -2  20 24.6799 108.262   7
 -16   2 -20-51.4877 154.319   4
  16  -2  20-43.1950 126.254   6
 -16   2 -20 28.2710 462.099   1
  16  -3   0 64.2973 103.405   6
  16   3   0 85.6469 132.070   7
 -16  -3   0 110.469 145.232   4
  16  -3   0-130.772 152.282   7
 -16  -3   0 49.8747 484.967   1
 -16   3   0 17.7835 110.740   4
  16   3   0 57.0174 96.3258   6
  16  -3   1-21.4592 109.079   6
  16  -3  -1-21.4178 100.285   6
  16   3   1 130.569 155.806   7
  16   3  -1 85.2247 158.666   7
 -16  -3  -1 30.5357 134.077   4
 -16  -3   1 31.4155 137.339   4
  16  -3   1-21.8237 142.051   7
  16  -3  -1 21.7793 171.600   7
 -16  -3  -1 25.0725 501.583   1
 -16   3  -1 52.4778 140.355   4
  16   3   1 277.720 135.477   6
  16   3  -1 359.342 148.988   6
 -16   3   1-17.7707 129.695   4
 -16  -3   1 49.6163 517.858   1
  16  -3   2 21.4979 95.6384   6
  16  -3  -2 85.6389 104.293   6
 -16  -3   2-98.7465 511.468   1
  16   3   2 21.8889 121.113   7
  16   3  -2-63.6213 134.903   7
 -16  -3  -2 30.7022 116.199   4
 -16  -3  -2 226.995 480.084   1
 -16  -3   2 31.2785 117.352   4
  16  -3  -2-62.9845 153.225   7
 -16   3  -2 70.0814 131.420   4
  16   3   2-18.6251 86.9506   6
  16   3  -2 18.8211 104.200   6
 -16   3   2-17.7680 82.9751   4
  16  -3   3-21.5486 95.6215   6
  16  -3  -3-21.4140 76.6155   6
 -16  -3   3-49.2302 515.177   1
  16   3   3 198.187 138.185   7
 -16  -3  -3-126.893 462.917   1
  16   3  -3 63.3692 159.611   7
 -16  -3  -3-108.074 119.644   4
  16  -3   3-86.3400 138.795   7
  16  -3  -3 20.9981 139.760   7
 -16  -3   3 32.3234 137.943   4
 -16   3  -3 17.5578 118.156   4
  16   3   3 37.4732 108.403   6
  16   3  -3-19.7948 114.524   6
 -16   3   3 17.8150 82.9152   4
  16  -3   4 21.6055 103.362   6
  16  -3  -4-21.4280 71.3235   6
 -16  -3   4 24.5176 540.207   1
 -16  -3  -4 25.5464 458.455   1
  16   3   4-22.1624 134.180   7
  16   3  -4 21.0409 141.992   7
 -16  -3  -4-31.0759 114.831   4
  16  -3   4-21.6486 141.252   7
  16  -3  -4-21.0084 150.687   7
 -16  -3   4 32.2067 124.221   4
 -16   3  -4-17.6004 116.328   4
  16   3   4-37.7124 103.030   6
 -16   3  -4-229.767 509.221   1
  16   3  -4-59.1552 100.331   6
 -16   3   4 17.8324 75.8268   4
 -16   3   5-53.5807 73.4439   4
 -16   3  -5-25.6201 524.691   1
 -16  -3  -5 257.246 458.755   1
 -16  -3   5 48.8547 509.575   1
  16   3   5 44.6741 121.615   7
 -16  -3  -5-15.1978 114.085   4
  16   3  -5-20.7238 142.647   7
  16  -3   5-65.1551 147.913   7
  16  -3  -5-63.0999 143.260   7
 -16  -3   5 32.1138 115.122   4
 -16   3  -5-17.2152 110.944   4
  16   3   5 75.1507 100.659   6
  16   3  -5-19.6525 89.6647   6
  16  -3   5-43.3597 96.4846   6
 -16   3   6-17.8915 65.1938   4
 -16   3  -6 282.969 539.142   1
 -16  -3  -6 259.061 457.066   1
  16   3   6 89.9874 132.629   7
 -16  -3   6 24.3501 530.539   1
 -16  -3  -6 15.3024 135.511   4
  16   3  -6 82.6599 145.505   7
  16  -3   6 43.5527 147.058   7
  16  -3  -6-21.0679 151.239   7
 -16  -3   6-32.6781 112.994   4
 -16   3  -6-17.2739 119.384   4
  16   3   6-18.9165 108.525   6
  16   3  -6 20.4873 87.1257   6
  16  -3   6 65.2632 106.462   6
 -16  -3  -7 234.875 458.557   1
  16   3   7-45.3190 126.907   7
 -16  -3  -7-15.4088 120.251   4
  16   3  -7-20.6078 141.721   7
  16  -3   7 131.218 165.144   7
 -16  -3   7 121.399 545.471   1
  16  -3  -7-21.0286 147.534   7
 -16   3  -7 25.8940 526.915   1
 -16   3  -7 17.3433 133.814   4
 -16  -3   7 16.3060 115.161   4
  16   3   7 152.463 108.986   6
  16  -3   7 21.8447 106.024   6
  16   3  -7 20.4353 107.407   6
 -16  -3  -8-31.0419 120.329   4
  16   3  -8 20.5723 151.416   7
  16  -3   8-21.9665 164.583   7
 -16   3  -8-34.8345 138.294   4
 -16  -3   8-32.5554 108.401   4
  16   3   8 57.6033 107.830   6
 -16  -3   8-48.5241 608.499   1
  16  -3   8 21.9420 108.913   6
  16   3  -8 40.8014 99.2284   6
  16   3  -9 61.1033 123.196   6
 -16  -3  -9 15.5013 145.317   4
  16  -3   9 88.9686 170.025   7
  16   3  -9 164.309 178.789   7
 -16   3  -9 17.4981 151.476   4
  16   3   9 38.7027 124.974   6
  16  -3   9 110.285 139.305   6
 -16  -3 -10 374.055 407.684   1
  16   3  10 23.2330 115.301   7
 -16  -3 -10 15.6233 132.862   4
  16  -3  10-134.172 158.724   7
 -16   3 -10 34.4770 137.540   4
  16   3  10-19.4946 107.464   6
  16  -3  10-177.349 128.663   6
 -16   3 -11-105.675 538.502   1
 -16  -3 -11-15.7460 110.751   4
  16  -3  11 22.4964 148.265   7
 -16   3 -11-17.3351 123.082   4
  16   3  11 19.6579 93.8719   6
  16  -3  11 42.6568 110.242   6
 -16  -3 -11 350.172 399.163   1
 -16   3 -12-531.718 541.439   1
  16  -3  12 114.507 148.092   7
 -16   3 -12 52.3067 148.636   4
  16   3  12-19.8217 105.248   6
 -16  -3 -12-271.639 380.508   1
  16  -3  12 21.4593 98.8295   6
 -16   3 -13-160.347 558.894   1
  16  -3  13 23.0504 154.197   7
 -16   3 -13-17.5446 140.016   4
  16  -3  13 194.377 130.485   6
  16  -3  14-92.8425 148.608   7
 -16   3 -14-17.6585 140.483   4
 -16   3 -14-376.842 555.525   1
  16  -3  14-65.2254 112.406   6
  16  -3  15 47.2551 144.527   7
 -16   3 -15 243.985 529.312   1
 -16   3 -15-17.7756 140.336   4
  16  -3  15 131.405 125.773   6
  16  -3  16-23.8058 131.552   7
 -16   3 -16-437.029 567.164   1
 -16   3 -16 53.7166 139.926   4
  16  -3  16-22.0593 97.9419   6
  16  -3  17 144.082 192.319   7
 -16   3 -17 17.3836 159.457   4
  16  -3  18-24.2030 120.511   7
 -16   3 -18 87.6062 152.893   4
  16  -3  18 21.2214 103.667   6
 -16   3 -19 17.6625 137.904   4
  16  -3  19-21.3951 105.354   6
  16  -4   0-21.6753 91.4641   6
 -16  -4   0-125.452 464.254   1
  16   4   0 174.056 144.934   7
 -16  -4   0-30.5382 126.016   4
  16   4   0 74.0490 107.870   6
 -16   4   0 17.9787 112.225   4
  16  -4   1 21.6925 77.7839   6
  16  -4  -1 21.6701 86.1663   6
 -16  -4  -1 176.717 466.604   1
  16   4   1-87.5488 117.063   7
  16   4  -1-43.2706 121.544   7
 -16  -4  -1-46.0720 118.144   4
 -16  -4   1-74.8338 477.364   1
 -16  -4   1 30.3772 109.837   4
  16  -4  -1-21.2526 147.696   7
  16   4   1-18.6192 115.488   6
  16   4  -1 18.4056 98.4843   6
 -16   4  -1 17.9891 89.3999   4
 -16   4   1-18.0194 89.5499   4
  16  -4   2 21.7159 88.3637   6
  16  -4  -2-43.3540 90.8244   6
 -16  -4  -2 101.601 450.659   1
  16   4   2 22.0447 136.074   7
  16   4  -2 64.5576 133.145   7
 -16  -4  -2 15.0163 130.724   4
 -16  -4   2 31.4056 137.864   4
  16  -4   2 66.2611 160.573   7
  16  -4  -2-42.5060 146.071   7
 -16  -4   2 124.054 484.204   1
  16   4   2 241.029 122.353   6
  16   4  -2 170.043 114.096   6
 -16   4  -2 72.0189 144.635   4
 -16   4   2 18.0288 95.5634   4
 -16   4   3-18.0434 64.5760   4
  16  -4   3 43.5027 89.0007   6
 -16  -4  -3 25.5717 458.788   1
  16   4   3-88.7591 128.386   7
  16   4  -3 64.2394 125.702   7
 -16  -4  -3-60.4515 115.189   4
 -16  -4   3-62.5189 122.118   4
  16  -4   3 110.621 138.841   7
  16  -4  -3 42.5418 135.145   7
 -16  -4   3-123.412 503.656   1
  16   4   3 74.6595 106.398   6
 -16   4  -3-18.0303 104.327   4
  16   4  -3-18.8053 93.3089   6
 -16   4   4 18.0730 78.2260   4
  16  -4   4-21.7987 94.3270   6
 -16  -4  -4 25.7531 431.358   1
  16   4   4-22.3465 127.403   7
  16   4  -4 84.3658 129.035   7
 -16  -4  -4 15.2096 109.905   4
  16  -4   4-43.6759 130.038   7
 -16  -4   4-15.5641 111.399   4
  16  -4  -4 21.2098 134.780   7
  16   4   4 18.7938 98.7187   6
 -16   4  -4-17.7521 99.6842   4
 -16  -4   4-98.2615 504.229   1
  16   4  -4 18.7216 87.1821   6
  16  -4   5-21.8580 95.6013   6
 -16  -4  -5 77.8184 432.411   1
  16   4   5-22.5030 112.541   7
 -16  -4  -5 15.3161 114.608   4
  16   4  -5-84.0112 127.553   7
  16  -4   5 21.8914 146.396   7
 -16  -4   5-160.837 136.153   4
  16   4   5 37.8499 103.829   6
 -16   4  -5-17.7920 119.273   4
  16   4  -5 19.6797 106.111   6
 -16  -4   5-73.3803 512.705   1
  16  -4   6 21.9216 89.8036   6
 -16  -4   6-146.201 539.518   1
 -16  -4  -6-574.914 468.868   1
  16   4   6-22.7090 105.787   7
 -16  -4  -6 15.2889 133.192   4
  16   4  -6-83.6933 143.902   7
  16  -4   6 131.782 171.651   7
 -16  -4   6 16.0317 118.058   4
  16   4   6 19.0683 116.720   6
 -16   4  -6-17.8446 120.173   4
  16   4  -6 19.6111 101.216   6
  16  -4   7-87.9941 117.905   6
 -16  -4  -7 579.195 472.931   1
 -16  -4   7-559.071 667.014   1
  16   4   7-45.7643 111.435   7
 -16  -4  -7-30.8026 138.718   4
  16   4  -7-41.7132 162.034   7
  16  -4   7-110.211 162.448   7
 -16  -4   7 31.9605 137.527   4
  16   4   7 76.8219 116.766   6
 -16   4  -7-17.9039 127.829   4
  16   4  -7-40.8611 113.533   6
  16   4   8 69.1894 105.751   7
 -16  -4  -8 15.5190 122.010   4
  16   4  -8 41.5897 157.722   7
  16  -4   8 44.2005 157.187   7
 -16   4  -8-35.9310 126.781   4
  16   4   8-38.7027 116.009   6
  16   4  -8-40.7535 115.182   6
  16  -4   8 22.0874 110.424   6
  16  -4   9 111.012 162.588   7
 -16   4  -9 35.1940 115.495   4
  16   4   9-19.5090 115.520   6
  16  -4   9 22.1791 97.1207   6
  16  -4  10-22.3072 157.219   7
 -16   4 -10-17.6754 128.553   4
  16  -4  10 111.427 100.021   6
  16  -4  11 45.1822 147.208   7
 -16   4 -11 17.7630 129.310   4
 -16   4 -11 451.229 565.925   1
  16  -4  11 22.4001 102.221   6
 -16   4 -12 26.6657 560.068   1
  16  -4  12-90.8785 158.136   7
 -16   4 -12 17.8597 138.790   4
  16  -4  12 22.5262 118.725   6
 -16   4 -13-375.634 571.786   1
  16  -4  13-46.2627 154.794   7
 -16   4 -13 17.9567 138.940   4
  16  -4  13-22.6575 104.271   6
 -16   4 -14-81.0115 562.058   1
  16  -4  14-116.394 155.193   7
 -16   4 -14 18.0669 154.458   4
  16  -4  14 114.009 120.045   6
  16  -4  15-23.4329 143.510   7
 -16   4 -15 35.6366 127.699   4
 -16   4 -15 54.2911 557.228   1
  16  -4  15-45.9126 107.089   6
  16  -4  16 47.7025 153.572   7
 -16   4 -16 17.9402 142.622   4
  16  -4  16-22.1063 114.251   6
  16  -4  17-144.144 217.859   7
 -16   4 -17-18.0610 174.761   4
  16  -4  17-44.5421 137.887   6
 -16   4 -18 638.364 555.362   1
 -16   4 -18 36.3924 149.297   4
 -16  -5   0 126.501 453.246   1
  16   5   0-43.8807 111.115   7
 -16  -5   0 44.8634 125.125   4
  16   5   0-18.4563 103.713   6
 -16   5   0-18.2503 72.6116   4
 -16   5   1 36.5124 87.0335   4
  16  -5   1 43.9251 87.3272   6
 -16  -5  -1-76.3958 467.948   1
 -16  -5   1 251.401 468.658   1
  16   5   1 88.3187 122.088   7
  16   5  -1 21.8054 129.916   7
 -16  -5  -1-60.1927 116.732   4
 -16  -5   1-61.1775 120.562   4
  16  -5   1-64.6107 152.691   7
  16   5   1-18.5733 104.381   6
  16   5  -1 74.1375 111.985   6
 -16   5  -1 18.2487 95.9566   4
  16  -5   2-43.9551 97.6423   6
 -16  -5  -2-179.464 466.281   1
 -16  -5   2-24.9897 502.052   1
  16   5   2 22.2318 114.721   7
  16   5  -2-21.6791 111.875   7
 -16  -5  -2-15.1451 118.421   4
 -16  -5   2 15.2132 117.991   4
  16  -5   2 43.0932 143.490   7
  16   5   2 130.907 120.348   6
  16   5  -2-18.4273 95.1298   6
 -16   5  -2-18.2574 79.1148   4
  16  -5   3-87.9937 97.6947   6
 -16  -5  -3-25.8218 474.987   1
 -16  -5   3-24.8494 523.464   1
  16   5   3 22.4229 108.980   7
  16   5  -3-64.6081 135.272   7
 -16  -5  -3-198.223 132.019   4
 -16  -5   3 60.5276 131.043   4
  16  -5   3 111.854 158.506   7
  16   5   3-94.1380 101.309   6
  16   5  -3 73.2954 112.793   6
 -16   5  -3-18.2290 106.243   4
 -16  -5  -4-130.041 447.680   1
  16  -5   4-22.0313 90.1249   6
 -16  -5   4-148.316 569.384   1
  16   5   4 90.3289 107.451   7
 -16  -5  -4-45.6578 135.057   4
  16   5  -4 21.4241 137.754   7
 -16  -5   4-109.505 129.856   4
  16  -5   4 179.243 161.832   7
  16   5   4-18.9533 95.8852   6
  16   5  -4-18.8085 115.034   6
 -16   5  -4 18.2527 94.0995   4
  16  -5   5-22.0762 85.8930   6
  16   5   5 45.5040 101.846   7
 -16  -5  -5-15.3276 128.845   4
  16   5  -5 149.212 150.149   7
 -16  -5   5 49.1901 588.838   1
  16  -5   5-22.4503 164.233   7
 -16  -5   5-249.104 144.706   4
  16   5   5-19.0955 95.6813   6
 -16   5  -5-18.2844 100.271   4
  16   5  -5 18.7192 110.697   6
 -16  -5  -5 26.2059 497.591   1
  16  -5   6 22.1309 98.7080   6
  16   5  -6-84.8962 130.194   7
  16  -5   6-133.010 170.662   7
 -16  -5   6 62.0232 129.103   4
  16   5   6-38.4828 119.641   6
 -16   5  -6-18.3279 103.353   4
  16   5  -6 59.0228 125.390   6
  16  -5   7 22.1935 96.8202   6
  16   5  -7-21.1360 139.680   7
  16  -5   7-44.4648 143.516   7
  16   5   7-19.3934 109.586   6
 -16   5  -7-36.7476 111.614   4
  16  -5   8 22.2715 106.016   6
  16  -5   8 44.6236 153.397   7
 -16   5  -8-18.1121 104.826   4
  16  -5   9 156.463 120.796   6
  16  -5   9 44.7449 164.108   7
 -16   5  -9-36.3530 118.341   4
  16  -5  10 44.8943 94.6168   6
  16  -5  10-67.3999 141.062   7
 -16   5 -10-18.2505 113.187   4
 -16   5 -10 132.505 567.603   1
  16  -5  11 22.5478 103.505   6
 -16   5 -11 160.155 591.753   1
  16  -5  11-22.5753 160.589   7
 -16   5 -11 54.9872 126.796   4
  16  -5  12 45.3206 98.0226   6
 -16   5 -12-402.454 580.162   1
  16  -5  12-22.8548 157.114   7
 -16   5 -12-18.4133 131.755   4
  16  -5  13 45.9639 151.657   7
 -16   5 -13-377.218 585.783   1
 -16   5 -13 55.5343 126.403   4
  16  -5  13-22.7799 101.687   6
 -16   5 -14 379.429 576.785   1
  16  -5  14-69.3283 160.774   7
 -16   5 -14 18.1537 105.447   4
  16  -5  14-22.9163 109.449   6
  16  -5  15-70.6126 155.802   7
 -16   5 -15-73.0364 142.471   4
  16  -5  15 69.1588 117.815   6
  16  -5  16-47.3698 172.581   7
 -16   5 -16 36.7485 161.229   4
  16  -5  16 162.411 138.153   6
 -16   5 -17 18.4939 125.106   4
 -16  -6   0-25.5713 466.034   1
  16   6   0 155.339 158.009   7
 -16  -6   0 135.935 160.439   4
  16   6   0 111.825 152.928   6
 -16  -6  -1 231.727 481.000   1
 -16   6  -1 36.9974 96.9998   4
 -16  -6   1 279.432 484.542   1
  16   6   1 111.712 126.139   7
  16   6  -1 44.0870 118.733   7
 -16  -6  -1 60.8078 130.883   4
 -16  -6   1 15.0072 133.585   4
  16  -6   1 21.8352 154.011   7
  16   6   1 18.7595 108.201   6
  16   6  -1 148.108 138.584   6
 -16   6  -2 18.4966 79.0994   4
 -16  -6   2 227.144 509.109   1
  16   6  -2-65.7118 124.535   7
 -16  -6  -2 121.376 133.651   4
 -16  -6   2 14.9160 131.505   4
  16  -6   2 65.5133 170.393   7
  16   6   2 56.6527 126.344   6
  16   6  -2 74.3536 118.883   6
 -16  -6  -2 51.8632 433.047   1
 -16  -6   3-150.492 475.480   1
  16   6  -3 217.393 144.864   7
 -16  -6   3-91.5438 139.745   4
  16  -6   3-43.7040 163.840   7
  16   6   3-19.0241 98.3379   6
  16   6  -3 36.9545 103.950   6
 -16  -6  -3 26.1194 418.717   1
 -16   6  -3 18.5043 80.3466   4
  16  -6   4 22.3060 66.4171   6
 -16  -6   4 24.9357 518.948   1
  16   6  -4-64.8325 115.478   7
 -16  -6   4 15.1753 125.078   4
  16  -6   4 87.5122 142.348   7
  16   6   4-38.3365 100.648   6
  16   6  -4-18.3681 98.1549   6
 -16   6  -4-18.5148 90.0092   4
  16  -6   5-89.3658 86.5270   6
 -16  -6   5-24.7942 513.174   1
  16   6  -5 21.4930 117.297   7
 -16  -6   5-60.3855 123.074   4
  16  -6   5 22.7166 154.892   7
  16   6  -5 150.793 104.683   6
 -16   6  -5 37.0849 80.9158   4
  16  -6   6-67.1537 78.4792   6
  16  -6   6-22.7616 158.837   7
 -16   6  -6 37.1445 119.000   4
  16  -6   7 22.4368 83.4955   6
  16  -6   7 22.8160 156.940   7
 -16   6  -7-18.5667 95.8951   4
  16  -6   8 22.4978 107.294   6
  16  -6   8 22.5330 145.060   7
 -16   6  -8 55.8486 103.852   4
  16  -6   9-22.5674 98.7120   6
  16  -6   9-22.6105 162.441   7
 -16   6  -9-18.6703 112.123   4
  16  -6  10 22.6489 108.335   6
  16  -6  10 90.7743 170.335   7
 -16   6 -10 18.7345 108.824   4
  16  -6  11 45.4851 106.470   6
  16  -6  11-68.2927 158.521   7
 -16   6 -11-18.8045 122.128   4
  16  -6  12-22.8368 89.4121   6
  16  -6  12 160.022 175.056   7
 -16   6 -12-37.1112 120.536   4
  16  -6  13 114.775 104.627   6
 -16   6 -13-217.143 602.809   1
  16  -6  13-91.8947 159.723   7
 -16   6 -13 18.6389 111.200   4
  16  -6  14 23.0734 124.395   6
  16  -6  14-46.5337 168.614   7
 -16   6 -14-187.322 160.922   4
  16  -6  15-92.7901 132.308   6
  16  -6  15-93.6024 182.801   7
 -16   6 -15-18.8358 170.891   4
 -16  -7   0-121.208 126.910   4
  16   7   0 169.617 119.474   6
 -16  -7   1-30.3697 128.252   4
  16   7   1-18.9807 96.5772   6
  16   7  -1 93.6266 107.223   6
 -16  -7   1 51.4285 369.851   1
 -16  -7   2 120.686 137.791   4
  16   7  -2 37.1967 124.786   6
 -16  -7   2-76.6104 376.735   1
 -16  -7   3 29.9909 119.072   4
  16   7  -3-18.4780 97.0703   6
 -16  -7   3 50.7472 381.801   1
 -16   7  -4-18.7688 66.0278   4
  16   7  -4 87.4390 107.180   7
 -16  -7   4-107.320 128.042   4
  16  -7   4-66.5355 156.230   7
  16   7  -4 18.5544 103.459   6
 -16  -7   4-100.853 392.599   1
 -16   7  -5 18.7837 91.7526   4
  16  -7   5 44.3951 157.103   7
 -16   7  -6 18.8057 77.4091   4
  16  -7   6 46.1058 169.324   7
  16  -7   7-22.7089 71.9121   6
  16  -7   7 46.1948 155.729   7
 -16   7  -7 37.6695 104.500   4
  16  -7   8-22.7637 82.2267   6
  16  -7   8-46.3011 161.185   7
 -16   7  -8 18.8737 96.1610   4
  16  -7   9 22.8268 74.9671   6
  16  -7   9 114.322 165.076   7
 -16   7  -9-18.9228 88.8412   4
  16  -7  10-22.8954 93.6915   6
  16  -7  10 22.9345 164.102   7
 -16   7 -10 18.9722 101.396   4
  16  -7  11-22.9712 88.7898   6
  16  -7  11 69.0356 161.726   7
 -16   7 -11 18.9925 96.5616   4
 -16   7 -11 27.0676 576.678   1
  16  -7  12-23.0645 86.4586   6
  16  -7  12 23.0818 159.112   7
 -16   7 -12-516.451 601.331   1
 -16   7 -12-19.0621 105.981   4
  16  -7  13-23.1648 111.671   6
  16  -7  13-69.5511 193.271   7
 -16   7 -13-19.1420 130.594   4
  16  -7  14 23.2709 98.6296   6
  16  -7  14 46.5832 168.627   7
 -16   7 -14 19.2215 133.990   4
  16   8  -1-37.9372 108.039   6
 -16  -8   2-30.3089 132.185   4
  16   8  -2-75.3535 118.314   6
 -16  -8   3-60.7473 131.866   4
  16   8  -3 18.7112 97.1560   6
  16  -8   7 90.3238 165.888   7
 -16   8  -8 19.1175 88.1391   4
  16  -8   8 23.4558 147.906   7
 -16   8  -9-19.1567 94.2481   4
  16  -8   9-23.5041 162.219   7
 -16   8 -10-19.2016 79.8592   4
  16  -8  10 141.417 168.152   7
  16  -8  11 23.2775 166.539   7
 -16   8 -11-19.2510 99.2480   4
  16  -8  12-46.6508 92.5703   6
  16  -8  12 93.4455 168.738   7
 -16   8 -12-19.3108 101.382   4
 -16   8 -13-551.138 638.846   1
  16  -8  13-93.6544 91.0676   6
  16  -8  13-23.4512 160.127   7
 -16   8 -13 38.7627 94.1984   4
  16  -9   9 143.015 188.613   7
  16  -9  10 47.7841 170.863   7
  16  -9  11 23.9465 163.725   7
  16  -9  12 70.9715 177.829   7
 -17   0   0-235.325 652.276   1
  17   0   0-66.0901 166.887   7
 -17   0   0-17.5118 138.422   4
  17   0   0 22.0079 107.636   6
 -17   0  -1-236.012 619.799   1
  17   0   1 111.308 154.749   7
  17   0  -1 175.817 175.989   7
 -17   0   1-260.771 605.388   1
 -17   0  -1-17.5595 151.236   4
 -17   0   1 17.4744 130.192   4
  17   0   1 22.0711 118.179   6
  17   0  -1 43.9118 113.501   6
 -17   0   2-25.9561 592.471   1
  17   0   2 268.045 183.372   7
  17   0  -2 109.650 163.736   7
 -17   0  -2 17.2620 154.589   4
 -17   0   2 17.4412 134.398   4
  17   0   2-21.1851 113.118   6
  17   0  -2 21.9095 116.332   6
  17   0  -3 109.356 139.071   6
 -17   0   3-233.155 592.375   1
  17   0   3-44.8470 178.790   7
  17   0  -3 43.7934 188.206   7
 -17   0  -3 17.3192 152.793   4
 -17   0   3-17.8622 135.089   4
  17   0   3 148.821 136.149   6
  17   0  -4-152.908 113.411   6
 -17   0   4 284.598 640.844   1
 -17   0  -4-742.017 618.435   1
  17   0   4-22.5144 156.938   7
  17   0  -4-43.7739 149.475   7
 -17   0  -4 17.3898 150.018   4
 -17   0   4 35.6943 109.976   4
  17   0   4 85.3811 110.858   6
  17   0  -5-21.8329 101.603   6
 -17   0   5-310.206 584.851   1
  17   0  -5 43.7503 159.487   7
 -17   0  -5 17.4634 137.524   4
 -17   0   5-35.6683 98.5185   4
  17   0   5 21.4404 108.468   6
  17   0  -6 109.147 118.396   6
  17   0  -6 21.8711 146.975   7
 -17   0   6 18.1506 101.431   4
  17   0   6 20.4051 109.315   6
  17   0  -7 65.4973 101.717   6
  17   0   7-92.4550 163.495   7
  17   0  -7-131.242 163.908   7
 -17   0  -7-67.9682 141.438   4
  17   0   7-61.5225 106.358   6
 -17   0   7 18.1571 98.6131   4
 -17   0  -7-268.612 519.748   1
  17   0  -8-43.6956 92.9582   6
  17   0   8-46.4940 138.825   7
  17   0  -8-21.8831 146.268   7
 -17   0  -8-17.0805 142.062   4
 -17   0  -8-27.0140 516.869   1
  17   0   8-61.8735 109.357   6
 -17   0   8-18.1737 93.7097   4
  17   0  -9-21.8700 87.1200   6
  17   0   9-23.6337 130.771   7
  17   0  -9 177.935 168.227   7
 -17   0  -9 17.1750 134.385   4
  17   0   9-20.7444 105.216   6
 -17   0   9-18.2427 70.5033   4
  17   0  10-23.7727 133.852   7
 -17   0 -10-27.3432 501.805   1
 -17   0 -10 17.2778 130.989   4
  17   0 -10-22.2767 156.649   7
  17   0  10-62.5995 106.105   6
 -17   0  10 18.2711 75.5061   4
 -17   0  11-73.2782 72.5696   4
 -17   0 -11 137.592 500.021   1
  17   0  11-23.9300 141.562   7
 -17   0 -11-16.7292 128.704   4
  17   0 -11 22.3189 152.829   7
  17   0  11 210.021 129.654   6
 -17   0 -12 360.146 491.829   1
  17   0  12-96.4444 142.032   7
 -17   0 -12-16.8366 133.130   4
  17   0 -12-22.3745 157.428   7
  17   0  12 20.4873 108.227   6
 -17   0 -13 390.463 494.260   1
  17   0  13 72.8324 140.586   7
 -17   0 -13-16.9485 130.399   4
  17   0  13-20.6299 102.527   6
  17   0  14 97.8112 144.436   7
 -17   0 -14 17.0668 144.847   4
  17   0  14 124.627 131.222   6
  17   0  15 394.675 243.779   7
 -17   0 -15 85.9144 212.561   4
  17   0  15 272.050 203.597   6
 -17   0 -16-427.582 514.120   1
  17   0  16 74.5584 122.326   7
 -17   0 -16 17.3081 141.876   4
  17   0  16 21.0799 104.257   6
 -17   0 -17 17.4363 145.784   4
  17   0  17-63.7313 124.750   6
 -17   0 -18 52.6941 157.056   4
  17   0  18 85.6157 127.788   6
 -17   0 -18 347.461 476.734   1
 -17   0 -19 53.1160 135.145   4
  17   0  19-64.7139 115.505   6
 -17   1   0-26.1626 563.786   1
  17   1   0 243.689 194.385   7
  17  -1   0 265.427 190.371   7
 -17  -1   0-234.758 631.163   1
 -17  -1   0-34.2628 154.312   4
 -17   1   0 18.0272 153.282   4
  17   1   0 168.026 149.673   6
  17  -1   0 88.4030 140.869   6
 -17   1  -1-1022.91 597.483   1
  17  -1  -1 44.1148 120.021   6
 -17  -1  -1 130.899 687.792   1
  17   1   1 155.604 169.449   7
  17   1  -1 176.683 174.018   7
 -17   1   1-130.539 561.076   1
  17  -1   1 110.873 185.438   7
  17  -1  -1-22.1048 162.742   7
 -17  -1  -1 137.479 144.745   4
 -17  -1   1-104.592 141.490   4
 -17   1  -1 17.6212 145.037   4
 -17   1   1-18.0008 131.993   4
 -17  -1   1 26.0322 633.283   1
  17   1   1 147.542 143.930   6
  17   1  -1 131.379 126.905   6
  17  -1   1 22.1494 116.393   6
  17  -1  -2 88.1031 115.717   6
 -17  -1   2 77.8737 642.192   1
  17   1   2 158.087 185.646   7
  17   1  -2 88.1001 177.581   7
  17  -1   2 88.9467 170.732   7
  17  -1  -2 66.2169 177.916   7
 -17  -1  -2 17.2496 172.936   4
 -17  -1   2 69.5564 148.311   4
 -17   1  -2 17.6647 142.920   4
 -17   1   2 17.9789 137.092   4
 -17  -1  -2 919.975 752.057   1
 -17   1   2-78.1849 558.018   1
  17   1   2 105.791 145.002   6
  17   1  -2 174.652 140.680   6
  17  -1   2 66.6317 135.673   6
  17  -1  -3 44.0056 111.110   6
 -17  -1  -3 4805.22 731.590   1
 -17   1  -3 3942.84 673.973   1
 -17  -1   3 207.142 655.001   1
  17   1   3-136.074 166.469   7
  17  -1   3 22.3083 171.195   7
  17   1  -3 21.8107 158.953   7
  17  -1  -3-22.0486 180.248   7
 -17  -1  -3 66.7685 145.369   4
 -17   1  -3-17.7170 145.463   4
 -17  -1   3-17.3530 120.113   4
 -17   1   3 179.644 130.195   4
  17   1   3 21.2464 128.424   6
  17  -1   3 22.2812 107.922   6
  17   1  -3 43.5746 133.187   6
  17  -1  -4-21.9947 100.871   6
 -17  -1   4 310.086 598.109   1
  17   1   4-45.5694 155.539   7
  17   1  -4-130.604 174.616   7
  17  -1  -4-22.0340 161.187   7
 -17  -1  -4-16.7653 146.557   4
 -17   1  -4-17.7729 124.139   4
 -17  -1   4 69.3108 129.327   4
 -17   1   4-18.2741 119.622   4
  17   1   4 101.074 117.690   6
  17  -1   4-44.7256 122.241   6
  17   1  -4 43.5007 116.958   6
  17   1  -5-43.4382 105.552   6
  17  -1  -5 21.9890 102.256   6
  17   1   5 160.264 143.472   7
  17   1  -5 108.705 152.511   7
  17  -1  -5-44.0557 163.496   7
 -17  -1  -5 16.8411 134.350   4
 -17   1  -5 17.4857 130.439   4
 -17  -1   5 53.2503 126.365   4
 -17  -1   5-129.007 603.445   1
  17   1   5 40.6334 110.654   6
 -17   1   5 73.0943 106.341   4
  17  -1   5 42.9469 110.737   6
  17   1  -6-21.6995 91.7627   6
  17  -1  -6 21.9951 93.0013   6
 -17  -1   6-205.718 573.394   1
 -17   1  -6 133.784 544.761   1
  17  -1   6 22.7449 142.992   7
  17   1  -6 43.4310 144.795   7
 -17  -1  -6 16.9292 133.605   4
  17  -1  -6 156.606 163.347   7
 -17   1  -6-17.5565 131.801   4
 -17  -1   6-53.2152 107.412   4
  17   1   6 40.8429 105.646   6
 -17   1   6 18.2909 89.3371   4
  17  -1   6-43.1316 105.189   6
  17   1  -7-21.6866 91.7535   6
  17  -1  -7 22.0133 90.5242   6
  17  -1   7-46.2493 143.577   7
  17   1  -7-21.7074 167.080   7
 -17  -1  -7-17.0192 141.576   4
  17  -1  -7-44.7807 167.970   7
 -17  -1   7 51.3827 559.104   1
 -17   1  -7-35.2719 120.312   4
 -17  -1   7 36.0998 103.289   4
  17   1   7 20.5347 115.620   6
  17  -1   7 65.0047 105.724   6
 -17   1   7-165.128 95.0395   4
  17   1  -8 65.0567 98.5948   6
 -17   1  -8-378.301 532.147   1
 -17  -1   8 282.566 551.346   1
  17   1   8 117.682 134.143   7
  17  -1   8 23.2454 142.168   7
 -17  -1  -8-27.0852 499.131   1
 -17  -1  -8 49.4240 125.550   4
  17   1  -8-65.1899 134.637   7
  17  -1  -8-112.104 169.410   7
 -17   1  -8 17.7182 125.539   4
  17   1   8 40.0392 106.962   6
 -17  -1   8-54.1470 96.4330   4
  17  -1   8-87.1185 120.311   6
 -17   1   8 36.7544 72.9312   4
 -17   1   9-36.8245 70.8728   4
 -17   1  -9 488.445 544.491   1
  17   1  -9-43.3947 88.8555   6
 -17  -1  -9-218.024 492.689   1
  17   1   9-71.0542 137.083   7
  17  -1   9-23.3698 141.097   7
 -17  -1  -9-49.7088 128.464   4
  17   1  -9 65.2221 165.734   7
  17  -1  -9 157.210 162.269   7
 -17   1  -9 17.1690 114.344   4
 -17  -1   9 25.6931 570.016   1
  17   1   9-60.4362 111.362   6
  17  -1   9 65.6848 108.695   6
 -17  -1   9-18.0627 91.4734   4
  17   1 -10 21.7157 83.7099   6
 -17  -1 -10 27.4314 481.544   1
  17   1  10 47.7182 134.073   7
  17  -1  10 47.0051 145.773   7
 -17  -1 -10 16.6751 112.406   4
  17   1 -10 21.7587 148.148   7
  17  -1 -10-45.0067 159.583   7
 -17   1 -10-17.2636 133.940   4
  17   1  10-20.2729 96.6917   6
 -17   1 -10 191.071 535.539   1
  17  -1  10 62.5589 126.024   6
 -17  -1  10-36.2474 84.6032   4
  17   1  11-48.0384 124.284   7
  17  -1  11-47.8011 140.690   7
 -17  -1 -11-16.7829 141.689   4
  17   1 -11-65.3532 153.199   7
 -17   1 -11-34.7167 117.289   4
  17  -1 -11-65.2903 148.413   7
 -17   1 -11 274.585 547.675   1
  17   1  11-20.4068 105.741   6
  17  -1  11 146.862 112.599   6
 -17  -1 -12 27.8048 468.194   1
  17   1  12 72.5593 132.274   7
  17  -1  12 216.491 162.567   7
 -17  -1 -12-33.7796 139.033   4
 -17   1 -12-17.4656 133.839   4
  17  -1 -12 21.8264 155.705   7
  17   1  12 20.5494 116.975   6
  17  -1  12 126.646 130.476   6
 -17  -1 -13-84.0299 479.028   1
 -17   1 -13-83.4763 525.352   1
  17   1  13 24.3996 113.995   7
  17  -1  13 24.2108 134.123   7
 -17  -1 -13 17.0080 131.099   4
 -17   1 -13-52.7233 137.666   4
  17   1  13-41.3956 112.930   6
  17  -1  13 127.501 121.536   6
  17   1  14-49.1511 118.633   7
  17  -1  14-146.405 172.373   7
 -17  -1 -14-66.5887 132.796   4
 -17   1 -14 17.6904 153.240   4
  17   1  14-61.8926 126.797   6
  17  -1  14 21.3945 120.463   6
  17   1  15-74.2789 157.762   7
  17  -1  15 294.919 220.030   7
 -17  -1 -15 33.5357 198.729   4
 -17   1 -15 160.293 205.055   4
  17   1  15 62.3536 144.902   6
  17  -1  15 538.506 218.129   6
 -17   1 -16-255.808 514.799   1
  17  -1  16 173.247 139.648   7
 -17  -1 -16 33.7885 146.829   4
 -17   1 -16-51.7879 139.882   4
  17   1  16 62.8351 106.932   6
  17  -1  16-65.1052 108.613   6
 -17  -1 -16 429.672 442.341   1
  17  -1  17-24.9785 120.469   7
 -17  -1 -17 17.0174 133.326   4
 -17   1 -17-34.7714 149.681   4
  17   1  17 63.3158 116.366   6
  17  -1  17 63.5595 120.524   6
 -17   1 -18-288.530 518.720   1
  17  -1  18-25.1704 120.955   7
 -17   1 -18 17.5155 146.377   4
  17  -1  18-42.6964 107.247   6
 -17   1 -19 88.2396 147.161   4
  17  -1  19 21.5108 114.486   6
 -17   1 -20 17.7810 140.715   4
  17  -1  20 21.6838 104.111   6
 -17   1 -21 71.6840 155.039   4
  17  -1  21 21.8574 118.856   6
  17  -2   0 111.199 124.358   6
  17   2   0 22.4187 168.985   7
  17  -2   0-22.2776 179.228   7
 -17  -2   0-17.1348 147.868   4
 -17   2   0 18.1349 139.551   4
  17   2   0 126.047 139.970   6
  17  -2   1-22.2738 115.289   6
  17  -2  -1 22.2109 112.919   6
 -17  -2  -1 1256.83 699.591   1
 -17  -2   1 416.161 696.414   1
  17   2   1 22.5100 164.214   7
  17   2  -1 245.689 181.626   7
  17  -2   1 22.3189 168.913   7
  17  -2  -1-44.4962 169.883   7
 -17  -2  -1 16.5764 148.953   4
 -17  -2   1 222.041 163.660   4
 -17   2  -1 36.3291 147.351   4
 -17   2   1-18.1153 145.914   4
 -17   2  -1 1501.84 575.790   1
  17   2   1 159.789 134.366   6
  17   2  -1 230.196 137.997   6
  17  -2   2 44.6533 118.099   6
  17  -2  -2 22.1876 91.9041   6
 -17  -2   2 829.615 670.896   1
  17   2   2-45.2166 166.975   7
  17   2  -2 43.9957 161.029   7
  17  -2   2-111.738 154.289   7
  17  -2  -2 88.9117 155.046   7
 -17  -2  -2-16.6461 142.802   4
 -17  -2   2 51.0792 145.051   4
 -17   2  -2 145.579 125.915   4
 -17   2   2-18.4253 107.566   4
  17   2   2-20.0604 116.947   6
  17   2  -2-41.7303 112.410   6
 -17  -2  -2-157.828 641.554   1
  17  -2  -3-44.3592 97.8263   6
  17   2   3 113.584 152.253   7
 -17  -2   3-51.6848 611.074   1
  17   2  -3 241.263 172.481   7
 -17  -2  -3-50.1647 153.727   4
  17  -2  -3 112.786 163.957   7
 -17  -2   3 155.947 155.225   4
 -17   2  -3 17.7928 132.448   4
  17   2   3 141.068 127.002   6
 -17   2   3-18.4179 108.116   4
  17   2  -3 65.2474 115.949   6
  17  -2   3 67.1492 127.015   6
  17  -2  -4-44.3599 99.2302   6
  17   2   4 92.2934 141.547   7
  17   2  -4 65.6518 157.123   7
 -17  -2  -4-33.5988 138.776   4
  17  -2  -4 45.1265 147.287   7
 -17  -2   4-25.7782 615.404   1
 -17  -2  -4-345.471 562.359   1
 -17  -2   4 17.2929 130.883   4
 -17   2  -4 17.8428 120.145   4
  17   2   4 40.5138 105.583   6
 -17   2   4 128.954 108.027   4
  17   2  -4 108.454 122.486   6
  17  -2   4 22.4507 109.805   6
  17  -2  -5 22.1890 88.0905   6
 -17   2  -5 347.523 558.239   1
  17   2   5-92.8180 147.433   7
  17   2  -5-65.5246 143.762   7
  17  -2   5 45.1086 148.452   7
 -17  -2  -5 16.2563 124.954   4
  17  -2  -5-22.5658 158.329   7
 -17   2  -5 35.7929 115.095   4
 -17  -2   5-34.5191 118.662   4
  17   2   5-19.7362 107.276   6
 -17  -2   5-25.7491 589.243   1
 -17   2   5-18.4788 87.9570   4
  17  -2   5 22.5296 104.870   6
  17   2  -5-21.6491 107.421   6
 -17   2  -6-161.032 544.126   1
  17  -2  -6-44.4273 87.6950   6
 -17  -2   6-25.7045 548.525   1
 -17  -2  -6 537.415 492.711   1
  17   2   6 70.0099 154.893   7
  17  -2   6 91.2591 153.170   7
  17   2  -6 43.5996 155.762   7
 -17  -2  -6 16.3451 126.176   4
  17  -2  -6-112.933 158.147   7
 -17   2  -6-17.9631 130.080   4
 -17  -2   6 35.3552 109.971   4
  17   2   6 79.3918 123.045   6
  17  -2   6 22.6127 94.6634   6
 -17   2   6 129.504 92.1438   4
  17   2  -6 43.2270 102.571   6
 -17   2   7 55.5809 73.5390   4
  17   2  -7-21.5950 100.503   6
 -17  -2   7 25.6736 562.692   1
  17   2   7 23.4710 131.736   7
  17  -2   7-114.548 155.832   7
  17   2  -7 64.8406 148.573   7
 -17  -2  -7-16.4347 117.589   4
  17  -2  -7-87.2485 143.555   7
 -17   2  -7 18.0339 127.784   4
 -17   2  -7-296.547 548.151   1
 -17  -2   7 35.3244 109.443   4
  17   2   7 99.8382 123.726   6
  17  -2   7-22.7123 129.455   6
  17   2  -8-21.5771 100.414   6
 -17  -2   8-179.506 557.993   1
 -17   2  -8-270.525 557.212   1
  17  -2   8-23.0162 154.879   7
 -17  -2  -8-66.1426 136.279   4
  17   2  -8 21.5952 151.504   7
  17  -2  -8 87.4009 148.623   7
 -17   2  -8-17.7511 128.217   4
 -17  -2   8-35.3037 99.0735   4
  17   2   8-20.0891 99.6603   6
  17  -2   8 130.914 124.359   6
  17   2  -9 21.5661 91.0892   6
 -17  -2  -9 712.057 480.774   1
 -17   2  -9 734.121 558.786   1
  17   2   9 23.7970 125.158   7
  17  -2   9-23.4085 145.232   7
 -17  -2  -9-16.6377 137.324   4
  17   2  -9-107.944 145.466   7
  17  -2  -9 43.7909 153.792   7
 -17   2  -9-17.8355 130.251   4
 -17  -2   9 102.540 577.790   1
  17   2   9-20.2238 111.969   6
 -17  -2   9-35.9177 99.4896   4
  17  -2   9-43.8585 113.302   6
 -17  -2 -10-275.656 474.755   1
  17   2  10 47.9148 117.530   7
  17  -2  10 23.5289 162.515   7
 -17  -2 -10-16.2766 128.149   4
 -17   2 -10 17.9223 130.428   4
  17   2  10-20.1492 101.216   6
  17  -2  10 176.381 120.865   6
  17   2  11 48.3275 122.688   7
  17  -2  11 212.935 164.646   7
 -17  -2 -11-16.3873 137.393   4
 -17   2 -11 18.0170 140.001   4
  17   2  11 20.2833 101.159   6
  17  -2  11-22.1687 108.255   6
 -17  -2 -12 363.477 444.745   1
  17   2  12 48.6800 108.158   7
  17  -2  12-23.8002 135.776   7
 -17  -2 -12-16.4969 127.969   4
 -17   2 -12-36.2390 133.453   4
  17   2  12-61.2943 116.597   6
 -17   2 -12 359.037 545.997   1
  17  -2  12 133.814 123.340   6
  17   2  13 122.579 131.328   7
  17  -2  13-24.2076 142.405   7
 -17  -2 -13-16.6172 135.282   4
 -17   2 -13 18.2300 141.581   4
 -17   2 -13-222.400 548.254   1
  17   2  13-20.5782 110.355   6
  17  -2  13 67.3076 107.174   6
 -17  -2 -13-788.598 470.997   1
  17  -2  14-146.179 211.286   7
 -17  -2 -14 16.7371 152.067   4
 -17   2 -14-17.6803 166.200   4
  17   2  14 20.7331 113.716   6
  17  -2  14 21.3803 122.825   6
  17  -2  15-24.5290 186.509   7
 -17   2 -15 17.7930 168.582   4
  17  -2  15-86.0981 142.539   6
 -17   2 -16 28.3704 529.232   1
  17  -2  16-24.7250 148.575   7
 -17   2 -16-17.9130 140.279   4
  17  -2  16-43.3562 109.434   6
 -17   2 -17-342.911 532.381   1
  17  -2  17-49.8137 132.632   7
 -17   2 -17 18.0348 144.858   4
  17  -2  17-43.6730 112.680   6
 -17   2 -18-143.930 532.779   1
  17  -2  18-25.0910 119.407   7
 -17   2 -18-36.3286 144.189   4
  17  -2  18 43.9935 111.302   6
 -17   2 -19 261.054 498.361   1
  17  -2  19 50.6497 123.530   7
 -17   2 -19 91.4836 161.596   4
  17  -2  19-22.1607 119.478   6
  17  -2  20 51.0482 129.029   7
 -17   2 -20 55.3105 158.247   4
  17  -2  20 22.3335 109.129   6
 -17   2 -20-262.998 483.168   1
  17  -3   0-22.4160 103.019   6
  17   3   0 181.651 177.731   7
  17  -3   0 136.808 174.019   7
 -17  -3   0 33.1133 153.658   4
 -17  -3   0-209.307 608.326   1
 -17   3   0-18.6011 143.286   4
  17   3   0 299.060 140.833   6
  17  -3   1-22.4424 94.5444   6
  17  -3  -1-44.8026 96.9535   6
  17   3   1 45.6179 151.853   7
  17   3  -1 89.4816 145.590   7
 -17  -3  -1-16.6271 128.898   4
  17  -3   1-22.4831 160.900   7
  17  -3  -1-45.5713 158.292   7
 -17  -3   1-16.4909 136.942   4
 -17  -3  -1-78.8411 564.076   1
 -17   3  -1-18.6190 112.431   4
  17   3   1 60.0741 107.057   6
  17   3  -1-19.8515 107.945   6
 -17  -3   1-338.607 647.095   1
 -17   3   1-18.5874 95.9004   4
 -17  -3   2-129.706 622.503   1
  17  -3   2 22.4807 94.6351   6
  17  -3  -2 44.7837 94.2611   6
  17   3   2-45.8497 150.876   7
  17   3  -2 133.737 164.008   7
 -17  -3  -2-660.391 540.929   1
 -17  -3  -2-64.2971 140.853   4
  17  -3  -2 113.868 154.905   7
 -17  -3   2 85.2569 135.344   4
 -17   3  -2-18.3226 110.582   4
  17   3   2-60.3689 109.358   6
  17   3  -2-83.5250 113.478   6
 -17   3   2-18.5889 94.0471   4
  17  -3   3-22.5298 92.3032   6
  17  -3  -3-44.7838 91.7400   6
 -17  -3   3-258.523 596.606   1
 -17  -3  -3-531.144 517.690   1
  17   3   3 23.0407 133.391   7
  17   3  -3 22.2089 142.890   7
 -17  -3  -3-32.3152 125.307   4
  17  -3   3-203.150 153.616   7
  17  -3  -3 113.876 166.126   7
 -17  -3   3 33.9885 138.105   4
 -17   3  -3 18.3534 113.830   4
  17   3   3 98.0035 103.028   6
  17   3  -3-20.8114 107.410   6
 -17   3   3-18.6361 84.8833   4
  17  -3   4-22.5836 95.1715   6
  17  -3  -4-22.4060 89.0376   6
 -17  -3   4-77.4164 592.762   1
 -17   3  -4-80.0943 563.790   1
 -17  -3  -4-560.831 510.377   1
  17   3   4 92.6638 123.857   7
  17   3  -4-22.1445 139.029   7
 -17  -3  -4 32.4820 127.978   4
  17  -3   4 22.6270 148.982   7
  17  -3  -4-65.9325 144.709   7
 -17  -3   4-50.8356 122.479   4
 -17   3  -4 36.7979 116.975   4
  17   3   4-19.7088 97.8769   6
  17   3  -4 165.969 116.526   6
 -17   3   4-18.6463 82.8602   4
  17  -3   5-67.9463 108.481   6
 -17   3   5-37.3439 79.4495   4
 -17  -3   5-180.107 536.553   1
 -17  -3  -5-402.867 484.531   1
 -17   3  -5-723.170 559.088   1
  17   3   5-46.6507 127.122   7
  17   3  -5 22.0856 152.482   7
 -17  -3  -5-16.3309 138.847   4
  17  -3   5-430.832 183.184   7
  17  -3  -5-65.9806 153.438   7
 -17  -3   5-51.7488 130.309   4
 -17   3  -5 36.8968 138.763   4
  17   3   5 99.1118 125.944   6
  17   3  -5 43.2620 106.288   6
 -17   3   6 56.0997 69.5688   4
 -17  -3  -6 297.221 484.790   1
 -17  -3   6-205.279 548.998   1
  17   3   6-70.4055 129.721   7
  17   3  -6-43.5366 152.784   7
 -17  -3  -6 16.4220 126.287   4
  17  -3   6 91.0118 154.828   7
  17  -3  -6-22.0210 153.004   7
 -17  -3   6-34.4336 123.261   4
 -17   3  -6 54.1411 117.501   4
 -17   3  -6 754.446 568.993   1
  17   3   6 39.8871 110.263   6
  17   3  -6-43.1694 105.011   6
  17  -3   6-22.7252 105.852   6
 -17  -3  -7 163.192 461.934   1
 -17   3  -7 27.0493 555.225   1
 -17  -3   7 153.658 563.036   1
  17   3   7 141.723 130.574   7
 -17  -3  -7 16.0623 142.622   4
  17   3  -7-43.4652 141.477   7
  17  -3   7-22.8334 148.634   7
  17  -3  -7-66.1913 154.868   7
 -17   3  -7 18.1075 130.883   4
 -17  -3   7-223.449 120.686   4
  17   3   7 19.8587 113.291   6
  17  -3   7 45.6227 98.7751   6
  17   3  -7 86.1746 119.110   6
  17   3  -8-21.5087 93.7167   6
 -17   3  -8-244.479 553.104   1
  17   3   8 23.7737 120.811   7
 -17  -3  -8-16.1621 133.687   4
  17   3  -8 21.6973 136.626   7
  17  -3   8 92.4196 162.495   7
 -17  -3   8-102.263 562.735   1
 -17   3  -8-18.1805 118.831   4
 -17  -3   8-17.6058 120.294   4
  17   3   8 19.9875 103.673   6
  17  -3   8 114.515 107.191   6
 -17  -3  -9 16.2675 132.132   4
  17  -3   9-92.8296 145.644   7
 -17   3  -9 109.001 558.025   1
 -17   3  -9 18.2563 136.771   4
  17   3   9 100.611 114.712   6
  17  -3   9-69.0105 116.400   6
  17   3  10 72.4249 112.754   7
 -17  -3 -10-16.3726 119.753   4
  17  -3  10-46.6328 158.883   7
 -17   3 -10-18.3376 129.005   4
  17   3  10 40.5272 110.533   6
  17  -3  10 23.1173 108.005   6
 -17   3 -11 55.0702 566.073   1
 -17  -3 -11-16.4885 140.739   4
  17  -3  11-47.4377 158.719   7
 -17   3 -11 18.4306 131.623   4
  17   3  11-40.8098 104.535   6
  17  -3  11-23.2319 114.115   6
 -17  -3 -11-139.765 429.063   1
 -17   3 -12-221.538 577.523   1
 -17  -3 -12 32.9150 150.893   4
  17  -3  12-71.5439 174.254   7
 -17   3 -12-18.1558 147.379   4
  17   3  12 287.821 150.486   6
 -17  -3 -12-506.656 426.855   1
  17  -3  12 268.107 141.114   6
  17  -3  13 47.9759 154.168   7
 -17   3 -13-18.2545 148.975   4
  17  -3  13-89.8880 122.312   6
  17  -3  14 439.068 278.218   7
 -17   3 -14 91.8257 249.963   4
  17  -3  14 226.078 228.635   6
  17  -3  15-24.5563 160.947   7
 -17   3 -15-112.689 605.162   1
 -17   3 -15-18.4744 155.996   4
  17  -3  15-136.504 141.398   6
  17  -3  16-74.1542 148.694   7
 -17   3 -16 37.1837 155.554   4
  17  -3  16 114.532 122.497   6
 -17   3 -17 57.1065 553.002   1
  17  -3  17-24.9154 142.179   7
 -17   3 -17 18.7129 145.175   4
  17  -3  17-23.0575 109.937   6
 -17   3 -18 28.7619 534.831   1
  17  -3  18 25.0852 148.002   7
 -17   3 -18-18.8412 149.129   4
  17  -3  18 46.4527 104.141   6
  17  -3  19 25.2806 131.167   7
 -17   3 -19-18.9792 144.167   4
  17  -3  19-23.3921 107.379   6
  17  -4   0 90.5310 109.056   6
 -17  -4   0 210.384 498.089   1
  17   4   0-68.4216 133.060   7
 -17  -4   0 16.0045 121.110   4
  17  -4   0 23.0238 147.274   7
  17   4   0 97.0239 115.190   6
 -17   4   0-18.8181 89.2449   4
  17  -4   1-45.3049 91.7436   6
  17  -4  -1-22.6316 94.3776   6
  17   4   1 45.8862 148.608   7
  17   4  -1 249.719 145.370   7
 -17  -4   1 78.5332 518.300   1
 -17  -4  -1-16.0838 130.910   4
 -17  -4   1 16.5564 141.414   4
  17  -4  -1 23.0141 155.889   7
  17   4   1 214.467 122.716   6
  17   4  -1 39.8519 115.529   6
 -17   4  -1 18.7815 106.100   4
 -17   4   1 18.8153 109.506   4
  17  -4   2 45.3538 103.198   6
 -17  -4  -2 26.5744 479.701   1
  17   4   2 23.0651 114.506   7
  17   4  -2-22.6015 124.931   7
 -17  -4  -2 16.1626 119.007   4
 -17  -4   2 52.1131 536.092   1
  17  -4   2-92.2796 181.727   7
 -17  -4   2-280.345 144.568   4
  17  -4  -2 66.5919 177.610   7
  17   4   2 117.635 108.395   6
  17   4  -2 19.8434 100.486   6
 -17   4  -2 37.6063 112.021   4
 -17   4   2-18.8223 93.4785   4
 -17   4   3 18.8379 85.7292   4
  17  -4   3 45.4249 103.331   6
 -17  -4  -3-187.103 458.571   1
  17   4   3 69.5969 121.850   7
  17   4  -3-90.0444 144.790   7
 -17  -4  -3 129.981 137.780   4
  17  -4   3-68.2722 156.473   7
 -17  -4   3-82.1466 137.399   4
  17  -4  -3-111.026 151.082   7
 -17  -4   3 25.9464 507.735   1
  17   4   3-39.4273 103.562   6
 -17   4  -3-18.8290 105.742   4
  17   4  -3 59.2929 100.056   6
 -17   4   4 75.4344 79.8383   4
  17  -4   4-45.5193 98.7960   6
 -17  -4  -4-268.822 463.569   1
  17   4   4-23.3285 118.325   7
  17   4  -4 89.7238 122.192   7
 -17  -4  -4-31.7669 134.912   4
  17  -4   4 113.991 153.646   7
  17  -4  -4-88.9168 148.192   7
 -17  -4   4-33.9688 126.389   4
 -17  -4   4-25.8475 535.539   1
  17   4   4-19.6184 91.6929   6
 -17   4  -4-18.8586 97.5956   4
  17   4  -4-83.1577 116.990   6
  17  -4   5 22.8114 90.6715   6
 -17   4  -5 970.171 559.595   1
 -17  -4  -5 135.223 464.773   1
  17   4   5-93.9031 127.673   7
  17   4  -5-44.2262 156.761   7
 -17  -4  -5-31.9460 114.391   4
  17  -4   5-22.8578 158.829   7
 -17  -4   5 135.489 133.467   4
  17   4   5 59.2257 110.916   6
 -17   4  -5 18.5738 110.684   4
 -17  -4   5 154.562 545.193   1
  17   4  -5-20.7252 98.7448   6
  17  -4   6 22.8730 88.9891   6
 -17  -4  -6 435.485 467.929   1
 -17   4  -6 189.232 569.755   1
  17   4   6 23.6580 115.831   7
 -17  -4  -6-32.1460 139.717   4
  17   4  -6-66.1489 149.026   7
  17  -4   6-160.456 154.873   7
 -17  -4   6 33.7745 126.152   4
  17   4   6-59.5919 119.066   6
 -17   4  -6-18.6216 127.425   4
  17   4  -6 20.6602 105.444   6
 -17  -4   6-102.713 545.994   1
  17  -4   7-22.9475 119.337   6
 -17  -4  -7 520.556 455.929   1
 -17   4  -7-433.915 562.045   1
  17   4   7 119.060 119.161   7
 -17  -4  -7-16.1742 131.308   4
  17   4  -7 21.9908 130.026   7
  17  -4   7 183.769 171.269   7
 -17  -4   7 51.5710 128.590   4
  17   4   7-59.9781 116.719   6
 -17   4  -7 18.6767 122.517   4
  17   4  -7-21.5410 105.868   6
  17  -4   8-46.0620 110.496   6
  17   4   8 47.9496 99.0910   7
 -17  -4  -8-32.5595 130.988   4
  17  -4   8 92.2336 163.989   7
 -17   4  -8-327.395 574.384   1
 -17   4  -8-18.7432 116.992   4
  17   4   8-100.640 128.651   6
 -17  -4  -8 27.5863 445.768   1
  17  -4   9 23.1211 104.285   6
 -17   4  -9 465.791 578.247   1
 -17  -4  -9-48.7241 132.243   4
  17  -4   9-46.2945 151.755   7
 -17   4  -9 18.8107 126.589   4
  17   4   9-20.2621 100.250   6
  17  -4  10-23.4282 144.497   7
 -17   4 -10 18.4191 133.094   4
  17  -4  10 46.4537 102.168   6
  17  -4  11-23.5326 153.288   7
 -17   4 -11 220.978 577.513   1
 -17   4 -11 55.5077 135.109   4
  17  -4  11-69.9869 118.262   6
 -17   4 -12-249.892 610.076   1
  17  -4  12 141.933 171.876   7
 -17   4 -12-37.1825 141.707   4
  17  -4  12 23.4495 115.492   6
  17  -4  13 24.0723 209.587   7
  17  -4  13 23.5738 138.980   6
  17  -4  14-145.243 205.272   7
 -17   4 -14 37.5738 164.685   4
  17  -4  14-71.1137 154.544   6
  17  -4  15-73.0536 151.622   7
 -17   4 -15-18.8960 130.750   4
 -17   4 -15-28.2170 585.421   1
  17  -4  15 23.8461 121.565   6
  17  -4  16-99.0614 153.502   7
 -17   4 -16-19.0082 143.686   4
  17  -4  16 23.9987 111.759   6
  17  -4  17 99.7137 144.278   7
 -17   4 -17-171.516 586.073   1
 -17   4 -17-38.2486 138.199   4
  17  -4  17-24.1551 112.489   6
 -17   4 -18-604.329 567.981   1
 -17   4 -18-37.7287 146.241   4
  17  -4  18-46.5203 119.169   6
 -17   5   0 19.0229 97.7783   4
 -17  -5   0 185.456 479.999   1
  17   5   0 160.859 144.098   7
 -17  -5   0 16.1127 123.785   4
  17   5   0 19.5269 109.070   6
 -17   5   1-19.0304 73.1917   4
  17  -5   1 22.8939 85.0453   6
 -17  -5  -1-79.9248 489.542   1
 -17  -5   1-26.3551 504.334   1
  17   5   1-23.1002 107.543   7
  17   5  -1 68.5726 132.270   7
 -17  -5  -1 48.5881 128.588   4
 -17  -5   1 16.0309 123.239   4
  17  -5   1 22.4559 157.570   7
  17  -5  -1-67.3556 151.112   7
  17   5   1-58.8864 93.4487   6
  17   5  -1-38.8568 107.368   6
 -17   5  -1 19.0245 82.3331   4
  17  -5   2-114.561 93.9332   6
 -17  -5  -2-26.7869 453.402   1
 -17  -5   2-52.4525 492.363   1
  17   5   2 139.617 136.724   7
  17   5  -2-22.7502 123.785   7
 -17  -5  -2-174.097 132.459   4
 -17  -5   2 63.8530 122.837   4
  17  -5   2 93.1904 173.085   7
  17   5   2 19.5379 106.355   6
  17   5  -2 39.9049 112.154   6
 -17   5  -2-19.0301 75.7780   4
  17  -5   3-22.9350 91.0366   6
 -17  -5  -3 512.104 462.399   1
 -17  -5   3-156.605 492.704   1
  17   5   3 23.4043 98.5319   7
  17   5  -3 67.9389 125.111   7
 -17  -5  -3-15.9144 120.261   4
 -17  -5   3 33.0188 136.072   4
  17  -5   3 93.3160 165.303   7
  17   5   3-39.3064 103.193   6
  17   5  -3-19.8615 96.5532   6
 -17   5  -3-38.1026 90.6664   4
 -17  -5  -4 650.785 447.755   1
  17  -5   4-22.9694 93.9621   6
 -17  -5   4 25.9928 503.372   1
  17   5   4 47.1000 112.055   7
  17   5  -4-22.5237 134.081   7
 -17  -5  -4-16.0095 112.316   4
  17  -5   4 23.3638 158.916   7
 -17  -5   4 16.4447 133.548   4
  17   5   4 39.5451 107.449   6
  17   5  -4-79.0947 114.394   6
 -17   5  -4 19.0308 92.5000   4
  17  -5   5 23.0138 88.5421   6
  17   5   5-71.0905 117.636   7
 -17  -5   5 25.8822 516.795   1
  17   5  -5 22.4395 126.017   7
 -17  -5  -5-16.1069 138.465   4
  17  -5   5-46.1139 168.160   7
 -17  -5   5 16.3872 137.067   4
  17   5   5-79.5815 108.205   6
 -17   5  -5 19.0653 96.5515   4
  17   5  -5 83.2027 116.825   6
 -17  -5  -5-27.2879 421.188   1
  17  -5   6 69.2137 109.810   6
 -17  -5  -6-32.1308 124.519   4
  17   5  -6-89.4354 131.266   7
  17  -5   6 23.1156 163.804   7
 -17  -5   6-101.667 136.604   4
  17   5   6 20.0165 117.520   6
 -17   5  -6-19.1013 112.150   4
  17   5  -6 124.356 126.789   6
  17  -5   7 23.1307 98.0018   6
 -17  -5  -7-16.1649 122.650   4
  17  -5   7 115.883 173.962   7
 -17   5  -7 27.3033 561.835   1
  17   5   7 20.1536 118.819   6
 -17  -5  -7 27.6498 386.171   1
 -17   5  -7-19.1550 112.985   4
  17  -5   8-46.4082 107.773   6
  17  -5   8-92.8930 161.140   7
 -17   5  -8 19.2098 109.143   4
  17  -5   9-23.2861 103.179   6
  17  -5   9-93.2392 165.065   7
 -17   5  -9-18.9333 108.610   4
  17  -5  10 23.3720 102.070   6
 -17   5 -10-359.702 606.599   1
  17  -5  10-23.3974 152.883   7
 -17   5 -10 76.0231 117.104   4
  17  -5  11-23.4693 109.388   6
  17  -5  11-46.9987 166.605   7
 -17   5 -11-19.0817 128.584   4
  17  -5  12 23.5781 126.054   6
  17  -5  12 71.3590 179.783   7
 -17   5 -12-19.1630 192.068   4
  17  -5  13-47.3873 128.177   6
  17  -5  13-71.7058 186.274   7
 -17   5 -13-19.2474 163.853   4
 -17   5 -14-394.494 615.790   1
  17  -5  14 24.3169 172.676   7
 -17   5 -14-19.3473 133.485   4
  17  -5  14-23.8183 106.305   6
 -17   5 -15-595.206 612.637   1
  17  -5  15-24.4523 164.900   7
 -17   5 -15-18.9687 139.136   4
  17  -5  15-71.8484 117.118   6
  17  -5  16 98.3988 164.021   7
 -17   5 -16 95.3694 146.082   4
 -17   5 -16 170.850 591.155   1
  17  -5  16 48.1722 118.009   6
 -17   5 -17-343.818 599.732   1
 -17   5 -17 19.1880 133.610   4
  17  -5  17 24.2408 105.277   6
 -17  -6   0-374.252 435.836   1
  17   6   0 46.3984 110.513   7
 -17  -6   0-15.7922 116.319   4
  17   6   0 19.4837 102.426   6
 -17  -6  -1 53.7827 415.982   1
 -17   6  -1 96.2366 95.8356   4
 -17  -6   1 132.945 439.130   1
  17   6   1-23.3347 108.902   7
  17   6  -1 46.1435 105.221   7
 -17  -6  -1-206.442 137.599   4
 -17  -6   1 96.9970 121.373   4
  17  -6   1 136.333 176.264   7
  17   6   1 19.5973 110.297   6
  17   6  -1-19.5791 115.217   6
 -17   6  -2-19.2493 87.6492   4
 -17  -6   2-132.239 458.285   1
  17   6  -2-68.8579 113.962   7
 -17  -6  -2-15.9733 122.850   4
 -17  -6   2 16.0825 124.713   4
  17  -6   2-90.9179 167.310   7
  17   6   2 19.7117 107.224   6
  17   6  -2 77.9128 104.179   6
 -17  -6  -2-108.204 409.701   1
 -17  -6   3 105.263 458.212   1
  17   6  -3 45.6140 117.578   7
 -17  -6  -3-16.0641 134.295   4
 -17  -6   3-16.0092 125.066   4
  17  -6   3 23.5883 158.727   7
  17   6   3 39.6570 98.3642   6
  17   6  -3-58.1540 101.769   6
 -17  -6  -3 136.072 391.275   1
 -17   6  -3-19.2593 78.7849   4
  17  -6   4-23.2153 80.0786   6
 -17  -6   4-130.933 461.894   1
  17   6  -4-45.3980 105.850   7
 -17  -6  -4-32.0409 122.278   4
 -17  -6   4 99.3495 138.593   4
  17  -6   4-23.6103 164.115   7
  17   6   4-39.8936 108.608   6
  17   6  -4 39.8133 115.364   6
 -17   6  -4-38.5484 83.6320   4
  17  -6   5 23.2492 86.7746   6
  17   6  -5-22.5943 127.359   7
  17  -6   5 94.6128 166.071   7
  17   6  -5 118.890 117.894   6
 -17   6  -5 38.5933 97.8534   4
  17  -6   6-23.2922 73.0792   6
  17  -6   6 71.0941 169.547   7
 -17   6  -6-19.3311 93.9595   4
  17  -6   7-23.3494 94.5224   6
  17  -6   7-140.323 186.553   7
 -17   6  -7-19.3279 97.5249   4
  17  -6   8-23.4078 85.1300   6
  17  -6   8-23.4574 168.525   7
 -17   6  -8-19.3726 101.045   4
  17  -6   9-46.9551 97.3257   6
 -17   6  -9-221.601 579.305   1
  17  -6   9 23.5287 160.812   7
 -17   6  -9-19.4269 103.202   4
  17  -6  10-23.5589 128.494   6
  17  -6  10-212.274 206.937   7
 -17   6 -10-19.4870 161.777   4
  17  -6  11 47.3040 149.577   6
  17  -6  11 142.011 191.674   7
 -17   6 -11 19.5546 159.171   4
  17  -6  12-23.7445 105.519   6
  17  -6  12-23.7749 173.436   7
 -17   6 -12 19.6338 123.340   4
  17  -6  13 23.8485 114.050   6
  17  -6  13 48.1187 178.939   7
 -17   6 -13 19.3742 129.495   4
  17  -6  14-71.8929 115.326   6
  17  -6  14 24.1778 161.839   7
 -17   6 -14 141.634 619.811   1
 -17   6 -14-19.4654 107.179   4
  17  -6  15 24.0845 101.391   6
 -17   6 -15-113.889 629.762   1
  17  -6  15-48.6018 161.742   7
 -17   6 -15 19.5552 139.915   4
 -17   6 -16 39.3214 136.483   4
 -17  -7   0 79.7983 139.872   4
  17   7   0-19.6826 104.575   6
 -17  -7  -1 80.2443 144.818   4
 -17  -7   1 95.2017 138.067   4
  17   7   1-19.7980 117.412   6
  17   7  -1 136.975 131.480   6
 -17  -7   1 107.483 391.008   1
 -17  -7   2-15.7873 124.371   4
  17   7  -2 19.4597 100.380   6
 -17  -7   2 53.4526 399.522   1
 -17  -7   3-80.8044 129.122   4
  17   7  -3-39.1194 118.034   6
 -17  -7   3 26.5760 404.342   1
  17   7  -4-22.9306 118.437   7
  17  -7   4-23.0487 163.469   7
  17   7  -4 58.3740 105.987   6
 -17   7  -5 19.5132 67.4461   4
  17  -7   5 47.8429 178.801   7
 -17   7  -6-19.5449 76.3341   4
  17  -7   6 71.8627 158.236   7
  17  -7   7-144.013 181.765   7
 -17   7  -7 19.5769 87.7205   4
  17  -7   8-47.3148 121.688   6
  17  -7   8-142.166 186.402   7
 -17   7  -8 39.2171 107.854   4
  17  -7   9 23.7158 126.965   6
  17  -7   9 95.0464 190.215   7
 -17   7  -9 98.2988 137.911   4
  17  -7  10-23.7813 107.279   6
  17  -7  10 47.6570 191.577   7
 -17   7 -10-19.7148 109.666   4
  17  -7  11 95.4530 113.104   6
  17  -7  11-47.8239 170.778   7
 -17   7 -11 19.7299 102.094   4
 -17   7 -11 450.061 625.651   1
 -17   7 -12-367.050 624.505   1
  17  -7  12 23.9521 92.0591   6
  17  -7  12 23.9764 156.001   7
 -17   7 -12-19.7939 92.1337   4
  17  -7  13 24.0452 96.7712   6
 -17   7 -13-397.900 637.275   1
  17  -7  13-144.427 201.868   7
 -17   7 -13-39.7487 120.898   4
  17  -7  14-24.1506 104.262   6
 -17   7 -14 285.491 630.611   1
  17  -7  14 121.796 172.454   7
 -17   7 -14 19.9534 110.876   4
 -17  -8   1-112.397 135.156   4
  17   8  -1 19.7994 112.189   6
 -17  -8   2-95.8305 147.508   4
  17   8  -2-39.3578 108.179   6
  17  -8   7-24.2856 185.841   7
 -17   8  -8-19.8332 84.1890   4
  17  -8   8-48.6621 170.468   7
 -17   8  -9-19.8719 87.2670   4
  17  -8   9 73.1658 184.901   7
 -17   8 -10-19.9138 76.5385   4
  17  -8  10 24.0828 165.548   7
  17  -8  11 144.937 166.473   7
 -17   8 -11-19.9720 91.4276   4
 -17   8 -12 541.288 632.990   1
  17  -8  12-121.181 178.511   7
 -17   8 -12-20.0341 97.5634   4
  17  -8  13 24.2765 80.9663   6
 -17   8 -13-343.277 634.135   1
  17  -8  13-72.8874 167.524   7
 -17   8 -13-20.1004 96.5468   4
  17  -9  10-24.7394 167.355   7
  17  -9  11-122.154 215.754   7
  17  -9  12 24.5093 172.784   7
 -18   0   0 109.208 567.584   1
  18   0   0 23.1703 154.363   7
 -18   0   0-36.5581 119.120   4
  18   0   0 45.9454 114.167   6
 -18   0   1-136.189 567.506   1
  18   0   1-69.6814 154.621   7
  18   0  -1 22.9528 161.057   7
 -18   0  -1 36.6415 132.367   4
 -18   0   1-18.2474 129.328   4
  18   0   1 69.0846 111.974   6
  18   0  -1-45.8501 101.768   6
  18   0  -2 137.306 123.661   6
 -18   0   2 407.840 583.322   1
  18   0   2 23.2968 172.249   7
  18   0  -2 114.542 156.903   7
 -18   0  -2 466.113 559.847   1
 -18   0  -2-18.3693 140.802   4
 -18   0   2 18.6853 127.764   4
  18   0   2 46.1889 115.928   6
  18   0  -3-22.8513 106.597   6
 -18   0  -3 605.182 561.364   1
  18   0   3-23.3747 143.150   7
  18   0  -3 183.051 165.435   7
 -18   0  -3-18.0576 125.628   4
 -18   0   3 18.6652 114.395   4
 -18   0   3-244.353 580.913   1
  18   0   3-44.3183 105.695   6
  18   0  -4 68.4878 106.256   6
 -18   0   4-135.264 565.561   1
 -18   0  -4 27.6102 537.497   1
  18   0   4-23.7355 145.179   7
  18   0  -4-45.7039 153.785   7
 -18   0  -4 18.1161 130.866   4
 -18   0   4-18.6516 104.699   4
  18   0   4 22.2350 114.646   6
  18   0  -5-22.8184 106.123   6
  18   0   5-23.8275 165.300   7
  18   0  -5-91.3808 171.079   7
 -18   0  -5-36.3635 138.010   4
 -18   0   5-486.576 588.011   1
 -18   0   5-37.9422 102.071   4
  18   0   5 22.3206 103.911   6
  18   0  -6 22.8191 108.954   6
  18   0  -6-22.8654 149.036   7
 -18   0  -6-54.7475 136.995   4
 -18   0   6-513.470 581.348   1
 -18   0   6 37.9521 106.886   4
  18   0   6-22.4160 122.149   6
  18   0  -7-22.8251 98.7202   6
  18   0   7-24.0339 143.077   7
  18   0  -7 91.4840 152.224   7
 -18   0  -7 36.6595 142.042   4
 -18   0   7 432.500 578.941   1
  18   0   7-45.0254 111.688   6
 -18   0   7-18.9851 92.2873   4
  18   0  -8 45.6750 96.6794   6
  18   0   8 24.4144 154.257   7
  18   0  -8 114.444 173.219   7
 -18   0  -8 124.229 162.926   4
 -18   0  -8 589.414 548.127   1
  18   0   8 42.8576 118.208   6
 -18   0   8 95.2405 110.977   4
  18   0  -9-45.7359 96.7785   6
  18   0   9-73.6150 163.145   7
  18   0  -9 22.9068 162.600   7
 -18   0  -9-35.6648 147.611   4
  18   0   9-129.178 123.589   6
 -18   0   9 38.1458 89.0701   4
 -18   0  10-76.4090 93.8540   4
  18   0  10-98.6573 183.632   7
  18   0 -10-68.8302 174.593   7
 -18   0 -10-17.9244 151.185   4
  18   0  10-64.9401 139.683   6
  18   0  11 595.355 337.045   7
  18   0 -11 206.877 300.494   7
 -18   0 -11 252.258 304.698   4
  18   0  11 239.395 283.125   6
 -18   0 -12 229.544 562.149   1
  18   0  12-24.9735 151.865   7
 -18   0 -12-54.3525 157.605   4
  18   0  12-87.5800 137.970   6
 -18   0 -13-28.8618 536.987   1
  18   0  13-50.2497 133.969   7
 -18   0 -13-36.4460 146.525   4
  18   0  13-22.0190 115.909   6
  18   0  14-25.2851 128.396   7
 -18   0 -14-17.6389 129.078   4
  18   0  14 22.1585 114.771   6
 -18   0 -15-204.570 536.669   1
  18   0  15-50.9689 134.012   7
 -18   0 -15 17.7529 130.994   4
  18   0  15-108.052 115.282   6
  18   0  16 230.883 141.968   7
 -18   0 -16-17.8636 130.668   4
  18   0  16-21.7495 118.070   6
 -18   0 -17 17.9737 146.539   4
  18   0  17 43.7985 115.029   6
 -18   0 -18-18.0965 137.974   4
  18   0  18 22.0446 109.438   6
  18   0  19-22.2055 109.024   6
  18  -1   0-23.0543 117.865   6
  18   1   0-92.5415 164.790   7
  18  -1   0-46.1662 162.827   7
 -18  -1   0-18.2534 132.435   4
 -18   1   0 18.8048 117.012   4
 -18   1   0-273.747 569.121   1
  18   1   0-22.9244 115.012   6
  18  -1  -1 115.064 114.160   6
 -18  -1  -1-136.615 569.274   1
 -18   1   1-163.525 576.149   1
 -18   1  -1 54.8671 561.113   1
  18   1   1 23.4732 159.660   7
  18   1  -1 115.366 163.481   7
  18  -1   1-92.5145 176.258   7
  18  -1  -1 23.0435 155.061   7
 -18  -1   1-217.370 566.753   1
 -18  -1  -1-17.9319 131.942   4
 -18  -1   1-72.8372 125.166   4
 -18   1  -1-37.6856 125.408   4
 -18   1   1-18.7829 113.354   4
  18   1   1-21.9965 104.662   6
  18   1  -1 45.7474 111.177   6
  18  -1   1-23.0970 99.8866   6
  18  -1  -2-45.9699 97.6665   6
 -18   1   2 598.872 573.708   1
 -18  -1  -2 383.847 566.197   1
 -18   1  -2 879.899 577.579   1
  18   1   2 23.5566 150.244   7
  18   1  -2-69.0761 148.649   7
  18  -1   2 92.7315 156.568   7
  18  -1  -2-115.062 165.180   7
 -18  -1  -2 17.9907 143.417   4
 -18  -1   2 90.8796 123.032   4
 -18   1  -2 36.8290 132.419   4
 -18  -1   2-325.733 559.911   1
 -18   1   2-18.7643 117.026   4
  18   1   2 88.2586 135.605   6
  18   1  -2-22.8163 124.704   6
  18  -1   2 69.4566 106.106   6
 -18  -1   3-243.804 576.491   1
  18  -1  -3-22.9653 102.212   6
 -18  -1  -3-27.4841 542.003   1
 -18   1   3 217.525 554.237   1
  18   1   3 47.2807 144.806   7
  18  -1   3 117.110 172.524   7
  18   1  -3 45.9558 158.148   7
  18  -1  -3-46.0406 166.467   7
 -18  -1  -3-18.0501 147.893   4
 -18   1  -3-18.4617 123.133   4
 -18  -1   3 36.2861 114.127   4
 -18   1   3-38.1685 107.408   4
  18   1   3 44.2889 112.314   6
  18  -1   3 23.2163 119.956   6
  18   1  -3-68.3289 110.994   6
  18   1  -4-22.7404 95.7676   6
  18  -1  -4-22.9604 96.6934   6
 -18  -1   4 622.075 581.140   1
  18   1   4 23.7359 145.198   7
  18   1  -4 22.7711 159.778   7
  18  -1  -4 23.0045 161.416   7
 -18  -1  -4 90.5900 138.106   4
 -18   1  -4 18.5114 139.903   4
 -18  -1   4-18.5846 126.443   4
 -18   1   4-19.0757 96.5492   4
  18   1   4-22.2315 108.097   6
  18  -1   4 23.2911 115.579   6
  18   1  -5-45.4446 96.4546   6
  18  -1  -5-45.9130 94.7326   6
 -18  -1   5 27.0096 579.230   1
  18   1   5 47.6788 146.333   7
  18   1  -5 22.7526 158.508   7
  18  -1  -5-115.035 160.269   7
 -18  -1  -5-52.5887 123.609   4
 -18   1  -5-37.1504 128.289   4
 -18  -1   5-92.8435 120.043   4
 -18  -1  -5 498.925 535.518   1
  18   1   5 21.1463 103.535   6
 -18   1   5 57.2563 99.1788   4
  18  -1   5 23.3690 109.462   6
  18   1  -6-22.7091 95.6800   6
  18  -1  -6-22.9641 91.2296   6
 -18   1  -6 83.5320 558.017   1
  18   1   6-96.8055 151.917   7
  18  -1   6 23.6675 142.893   7
  18   1  -6 90.9312 156.315   7
  18  -1  -6-46.0282 169.387   7
 -18  -1  -6 17.6085 143.060   4
 -18  -1   6-80.9578 573.626   1
 -18   1  -6 54.8029 146.180   4
 -18  -1  -6 250.619 524.943   1
 -18  -1   6-18.5621 115.084   4
  18   1   6 106.200 121.127   6
 -18   1   6 19.1401 91.1664   4
  18  -1   6-44.8752 122.001   6
  18   1  -7 22.7014 94.6538   6
  18  -1  -7 22.9835 93.0325   6
 -18   1  -7 195.712 547.408   1
  18  -1   7 24.0489 161.102   7
  18   1  -7 181.804 165.162   7
  18  -1  -7-23.0264 160.964   7
 -18  -1  -7-35.3769 133.756   4
 -18   1  -7-18.3339 126.041   4
 -18  -1   7 18.8931 102.591   4
  18   1   7-21.3410 123.003   6
  18  -1   7 180.250 133.511   6
 -18   1   7-19.1605 82.7060   4
 -18  -1   7 26.9129 577.931   1
  18   1  -8-22.7061 98.4501   6
 -18   1  -8 476.776 553.761   1
 -18  -1   8 161.463 568.928   1
  18   1   8 48.8867 141.585   7
  18  -1   8 48.3198 159.156   7
  18   1  -8-45.4592 165.866   7
 -18  -1  -8 35.5505 139.042   4
  18  -1  -8-23.4121 154.240   7
 -18   1  -8 92.0647 149.699   4
  18   1   8-64.3510 120.596   6
 -18  -1   8 132.272 111.137   4
  18  -1   8-45.2520 116.858   6
 -18   1   8-19.1810 83.2522   4
 -18   1   9-19.2156 71.5566   4
  18   1  -9-45.4328 93.0976   6
 -18  -1  -9 282.847 518.996   1
  18   1   9 122.890 160.002   7
  18  -1   9-48.5434 150.492   7
  18   1  -9-136.440 162.790   7
 -18  -1  -9 17.8619 137.387   4
  18  -1  -9-46.8878 175.697   7
 -18  -1   9 188.453 591.283   1
 -18   1  -9 18.4946 139.858   4
  18   1   9 21.5674 109.255   6
  18  -1   9 22.7386 101.049   6
 -18  -1   9 37.8276 107.946   4
  18   1 -10-22.7390 105.360   6
  18   1  10-49.4743 167.133   7
  18  -1  10-246.560 219.330   7
  18   1 -10 45.5746 165.825   7
 -18  -1 -10-51.8663 167.942   4
  18  -1 -10-93.9517 195.851   7
 -18   1 -10-74.3290 173.151   4
  18   1  10-63.0503 133.986   6
  18  -1  10-22.8513 142.998   6
 -18  -1  10 18.9806 99.7057   4
  18   1  11 24.8799 187.324   7
  18  -1  11 322.247 241.839   7
 -18  -1 -11 69.5366 184.865   4
  18  -1 -11 47.0893 199.982   7
 -18   1 -11 108.015 207.423   4
  18   1  11 21.1374 158.625   6
  18  -1  11 298.542 186.670   6
 -18  -1 -12-604.414 551.633   1
  18   1  12-25.0328 129.630   7
  18  -1  12 174.450 162.597   7
 -18   1 -12-544.106 603.505   1
 -18  -1 -12 17.4791 129.190   4
 -18   1 -12-36.1894 143.018   4
  18   1  12-42.5329 108.279   6
  18  -1  12-65.6257 117.514   6
 -18  -1 -13-231.668 506.993   1
 -18   1 -13 316.826 570.387   1
  18   1  13 75.6938 132.815   7
  18  -1  13-75.2182 169.062   7
 -18  -1 -13 105.516 153.583   4
 -18   1 -13 18.1938 144.471   4
  18   1  13 107.006 128.065   6
  18  -1  13 131.997 123.745   6
 -18  -1 -14-204.011 498.045   1
 -18   1 -14-463.719 547.609   1
  18   1  14 101.561 128.170   7
  18  -1  14 100.999 141.485   7
 -18  -1 -14 35.3845 142.417   4
 -18   1 -14-18.3000 143.777   4
  18   1  14 64.6057 119.409   6
  18  -1  14-22.1289 133.851   6
 -18   1 -15-320.739 563.291   1
  18   1  15 51.1142 116.699   7
  18  -1  15 25.3987 145.161   7
 -18  -1 -15-35.6086 149.235   4
 -18   1 -15-36.8199 153.200   4
  18   1  15 43.3519 108.070   6
  18  -1  15 22.2696 111.000   6
 -18  -1 -15 615.819 507.391   1
  18  -1  16 153.420 141.644   7
 -18  -1 -16 35.8386 144.819   4
 -18   1 -16 37.0400 142.720   4
  18   1  16 21.8124 112.946   6
  18  -1  16-67.2202 113.846   6
 -18  -1 -16-236.231 458.689   1
 -18   1 -17-413.567 513.442   1
  18  -1  17 51.5537 135.773   7
 -18  -1 -17 36.0659 151.201   4
 -18   1 -17 18.6368 141.142   4
  18   1  17 43.9333 112.470   6
  18  -1  17 67.6686 108.595   6
  18  -1  18-25.9536 126.806   7
 -18   1 -18 18.7607 148.301   4
  18  -1  18-45.4101 113.370   6
 -18   1 -19-18.8803 164.541   4
  18  -1  19-114.292 139.586   6
  18  -2   0-23.1774 101.619   6
 -18  -2   0 408.533 565.410   1
 -18   2   0 301.643 563.384   1
  18   2   0 140.477 161.734   7
  18  -2   0 23.2274 167.004   7
 -18  -2   0-35.7845 138.921   4
 -18   2   0 75.6028 125.517   4
  18   2   0 109.672 120.820   6
  18  -2   1-23.2074 94.4066   6
  18  -2  -1-23.1512 107.282   6
 -18  -2   1 380.604 566.799   1
  18   2   1 211.395 169.321   7
  18   2  -1 116.686 161.749   7
  18  -2   1-46.4663 150.818   7
  18  -2  -1 23.2005 157.489   7
 -18  -2  -1-17.9453 127.592   4
 -18  -2   1 71.3778 130.547   4
 -18   2  -1-659.212 574.595   1
 -18   2  -1-18.9271 119.091   4
 -18   2   1 19.2159 108.156   4
  18   2   1 88.0183 132.622   6
  18   2  -1 65.5913 106.078   6
 -18  -2  -1 409.947 558.718   1
  18  -2   2-23.2571 96.6605   6
  18  -2  -2 69.3797 104.026   6
 -18   2  -2 523.117 573.242   1
 -18  -2   2 487.937 572.042   1
  18   2   2 117.884 152.555   7
  18   2  -2-69.8147 167.370   7
  18  -2   2-93.1343 164.237   7
  18  -2  -2 69.5259 175.943   7
 -18  -2  -2-17.3575 135.583   4
 -18  -2   2 53.3967 133.249   4
 -18   2  -2 18.9565 114.132   4
 -18  -2  -2 82.2903 543.879   1
 -18   2   2-19.2076 105.767   4
  18   2   2 88.3484 104.195   6
  18   2  -2 22.7929 94.7920   6
  18  -2   3 23.3088 125.278   6
  18  -2  -3 69.3691 106.089   6
 -18  -2   3-189.313 582.169   1
  18   2   3 167.480 177.996   7
  18   2  -3 91.7765 166.381   7
  18  -2  -3 46.3423 159.893   7
 -18  -2  -3 17.4233 136.332   4
 -18  -2   3 54.3718 134.419   4
 -18  -2  -3 165.281 533.944   1
 -18   2  -3 19.0010 125.801   4
  18   2   3 168.019 123.083   6
 -18   2   3-19.2008 101.624   4
  18   2  -3-22.7507 120.424   6
  18  -2  -4-23.1207 89.3531   6
  18   2   4 144.192 141.380   7
 -18  -2   4 620.688 575.572   1
  18   2  -4 114.502 165.683   7
  18  -2  -4-23.5245 158.585   7
 -18  -2  -4-17.4962 133.676   4
 -18  -2  -4-221.344 520.925   1
 -18  -2   4 18.0976 122.153   4
 -18   2  -4-18.5759 116.951   4
  18   2   4-21.0904 109.145   6
 -18   2   4-19.2557 92.1169   4
  18   2  -4-22.7016 103.654   6
  18  -2   4 70.1143 135.543   6
  18  -2  -5 23.1295 91.4757   6
 -18   2  -5 139.134 562.158   1
  18   2   5 241.419 158.550   7
 -18  -2  -5-166.785 498.423   1
  18   2  -5 114.339 172.655   7
  18  -2   5-23.6497 157.140   7
 -18  -2  -5 17.5713 140.055   4
  18  -2  -5-47.0662 164.865   7
 -18  -2   5 565.757 572.437   1
 -18   2  -5-18.6242 129.836   4
 -18  -2   5 18.0674 118.170   4
  18   2   5 84.7375 129.667   6
 -18   2   5 57.8027 90.2374   4
  18  -2   5-70.3339 113.635   6
  18   2  -5 45.3289 114.498   6
  18   2  -6 67.9124 116.214   6
 -18  -2  -6-530.827 524.332   1
  18   2   6 48.5182 145.242   7
  18  -2   6 47.4547 172.227   7
  18   2  -6-22.8403 156.549   7
 -18  -2  -6 52.9561 157.193   4
  18  -2  -6 164.824 189.160   7
 -18   2  -6 74.7445 136.325   4
 -18  -2   6 92.5682 122.045   4
 -18  -2   6 134.655 620.880   1
  18   2   6-21.2866 115.940   6
  18  -2   6 47.0411 126.895   6
 -18   2   6 57.8486 91.3976   4
 -18  -2   7 26.9116 577.834   1
 -18   2   7 38.6275 75.9231   4
  18   2  -7-22.6160 104.065   6
 -18  -2  -7 421.183 499.377   1
  18   2   7 97.6411 140.044   7
  18  -2   7-119.112 159.357   7
 -18   2  -7-615.935 563.355   1
  18   2  -7 22.8185 162.468   7
 -18  -2  -7-17.0745 130.004   4
  18  -2  -7 23.5784 152.449   7
 -18   2  -7 37.5021 137.644   4
 -18  -2   7 74.0204 118.646   4
  18   2   7 20.7379 113.826   6
  18  -2   7 118.035 127.142   6
  18   2  -8 45.2252 98.3482   6
 -18  -2   8-26.8917 604.387   1
 -18   2  -8 702.949 575.882   1
  18  -2   8 23.9211 150.465   7
  18   2  -8-67.9164 157.573   7
 -18  -2  -8 188.748 146.819   4
  18  -2  -8-23.6156 153.996   7
 -18   2  -8 37.6456 132.464   4
 -18  -2   8-73.9849 102.706   4
  18   2   8-62.5559 109.969   6
  18  -2   8 71.1079 127.070   6
  18   2  -9-22.6079 92.4838   6
 -18   2  -9-338.893 627.780   1
  18   2   9-24.6808 131.867   7
  18  -2   9 24.3057 158.132   7
  18   2  -9-45.2691 158.794   7
 -18  -2  -9-17.2493 145.216   4
  18  -2  -9-47.3308 175.705   7
 -18   2  -9-18.5179 141.122   4
  18   2   9 62.8991 126.532   6
 -18  -2   9 56.4873 104.014   4
  18  -2   9 23.8079 115.719   6
  18   2  10-74.4729 165.740   7
  18  -2  10-24.4243 187.115   7
 -18  -2 -10-17.3449 173.856   4
 -18   2 -10 37.2071 185.782   4
  18   2  10-21.0876 135.997   6
  18  -2  10-68.6341 159.065   6
  18   2  11 100.056 142.596   7
  18  -2  11-122.737 223.233   7
 -18  -2 -11 52.3374 173.976   4
 -18   2 -11 18.6931 164.869   4
  18   2  11-63.6480 120.956   6
  18  -2  11 68.9696 144.289   6
  18   2  12 100.661 131.132   7
  18  -2  12-49.8845 157.669   7
 -18  -2 -12-70.2137 145.918   4
 -18   2 -12-18.7787 135.700   4
  18   2  12-21.3427 107.582   6
  18  -2  12-69.3328 124.945   6
  18   2  13-50.6457 125.620   7
  18  -2  13 50.1441 151.310   7
 -18  -2 -13-17.1649 134.096   4
 -18   2 -13-18.8811 136.378   4
  18   2  13-21.2537 113.557   6
  18  -2  13 23.2333 108.119   6
 -18  -2 -13-116.337 486.284   1
  18  -2  14-25.2241 150.699   7
 -18  -2 -14-17.2726 143.947   4
 -18   2 -14-18.9813 150.022   4
  18   2  14-21.3913 124.411   6
 -18  -2 -14 117.105 455.751   1
  18  -2  14 23.3694 111.929   6
  18  -2  15-25.3981 138.567   7
 -18   2 -15 19.0927 154.384   4
  18  -2  15 23.5104 117.277   6
  18  -2  16-25.5532 143.440   7
 -18   2 -16 38.4027 152.427   4
  18  -2  16 23.6480 114.971   6
 -18   2 -17-295.001 544.455   1
  18  -2  17 154.335 139.914   7
 -18   2 -17-37.2442 159.052   4
  18  -2  17-45.0872 118.510   6
  18  -2  18 77.6608 139.416   7
 -18   2 -18-37.4831 139.008   4
  18  -2  18 45.3830 113.922   6
  18  -2  19 26.1013 107.634   7
 -18   2 -19-18.8573 147.842   4
  18  -2  19 114.174 125.460   6
  18  -3   0-46.6647 89.1102   6
  18   3   0 142.254 152.066   7
  18  -3   0 116.892 158.701   7
 -18  -3   0 17.2812 145.979   4
 -18  -3   0 136.548 531.364   1
 -18   3   0-19.3633 103.790   4
  18   3   0 20.8107 105.338   6
  18  -3   1-23.3575 92.9634   6
  18  -3  -1-46.6370 95.6491   6
  18   3   1 47.5875 139.837   7
  18   3  -1 23.3693 137.349   7
  18  -3   1 93.6472 157.696   7
  18  -3  -1-46.7278 173.609   7
 -18  -3  -1-17.3435 131.236   4
 -18  -3   1 178.711 155.746   4
 -18  -3   1-272.172 553.448   1
 -18   3  -1-19.3800 101.988   4
  18   3   1 41.7823 105.922   6
  18   3  -1 43.7951 111.003   6
 -18   3   1-19.3488 94.3080   4
  18  -3   2 46.7889 101.368   6
  18  -3  -2-23.3064 98.3259   6
  18   3   2 71.6746 138.275   7
  18   3  -2 93.1903 171.550   7
 -18  -3  -2-770.846 542.010   1
 -18  -3  -2 17.4105 128.033   4
  18  -3  -2 142.262 176.109   7
 -18  -3   2-17.8210 136.785   4
 -18   3  -2 19.4061 109.864   4
  18   3   2 104.851 121.913   6
 -18  -3   2 217.022 539.499   1
  18   3  -2 21.8243 112.997   6
 -18   3   2-19.3953 129.888   4
 -18  -3   3 324.503 555.735   1
  18  -3   3-23.4416 98.8720   6
  18  -3  -3-46.6153 86.7512   6
 -18  -3  -3 442.408 517.647   1
  18   3   3 240.021 154.457   7
  18   3  -3-23.2294 144.064   7
 -18  -3  -3-17.4807 148.314   4
  18  -3  -3-142.268 191.220   7
 -18  -3   3 159.991 142.333   4
 -18   3  -3-19.0971 125.837   4
  18   3   3-21.0668 106.761   6
  18   3  -3 21.7669 103.760   6
 -18   3   3 19.3988 96.4362   4
  18  -3   4 70.4756 100.021   6
 -18  -3   4-26.9757 577.324   1
 -18   3  -4-277.933 579.923   1
 -18  -3  -4 27.7836 501.731   1
  18   3   4 168.946 136.288   7
  18   3  -4-69.5151 147.972   7
  18  -3   4-70.5478 153.730   7
 -18  -3  -4-33.7953 128.560   4
  18  -3  -4 94.8845 170.376   7
 -18  -3   4-18.0954 131.564   4
 -18   3  -4 19.1406 111.747   4
  18   3   4 20.5097 108.720   6
  18   3  -4 22.6993 109.048   6
 -18   3   4 58.2402 87.4401   4
  18  -3   5-47.1060 134.520   6
 -18   3   5 19.4292 77.5955   4
 -18  -3   5-107.803 563.490   1
 -18  -3  -5-474.709 497.989   1
  18   3   5 24.2555 127.636   7
  18   3  -5-23.1251 141.700   7
  18  -3   5-70.7563 157.213   7
 -18  -3  -5 50.9283 135.022   4
  18  -3  -5 71.2268 159.999   7
 -18  -3   5 18.0633 124.467   4
 -18   3  -5 19.1857 129.394   4
 -18   3  -5-139.653 574.025   1
  18   3   5 20.6117 94.1152   6
  18   3  -5 90.6152 123.412   6
  18  -3   6 70.8752 111.233   6
 -18  -3  -6 56.1332 477.861   1
 -18  -3   6-134.475 586.262   1
 -18   3  -6-196.159 575.520   1
  18   3   6 97.5291 141.686   7
  18   3  -6 277.002 182.769   7
 -18  -3  -6 34.1230 133.018   4
  18  -3   6 47.3016 174.830   7
  18  -3  -6-22.9247 162.012   7
 -18  -3   6-108.239 135.172   4
 -18   3  -6-19.2341 125.587   4
  18   3   6 289.968 134.091   6
  18   3  -6 22.6132 128.574   6
 -18   3  -7-843.611 588.100   1
 -18  -3  -7-620.767 497.126   1
 -18  -3   7 161.154 579.170   1
  18   3   7-24.5096 127.394   7
  18   3  -7 22.7762 142.051   7
 -18  -3  -7 17.1461 133.851   4
  18  -3   7 47.8218 166.853   7
 -18   3  -7-301.089 143.112   4
 -18  -3   7 92.3666 130.613   4
  18   3   7-62.4793 114.333   6
  18  -3   7 118.493 127.655   6
  18   3  -7 22.5839 103.955   6
  18   3  -8-45.1314 107.409   6
  18   3   8 49.2917 140.496   7
  18   3  -8 68.2718 149.796   7
 -18  -3  -8-51.7099 144.126   4
  18  -3   8 71.9951 164.984   7
 -18   3  -8 18.8825 129.825   4
  18   3   8-20.9418 109.980   6
  18  -3   8 47.5683 108.174   6
 -18  -3  -9-33.6949 208.662   4
  18  -3   9-96.3778 191.852   7
 -18   3  -9-18.9533 180.034   4
  18   3   9-20.8452 123.305   6
  18  -3   9 47.7565 124.047   6
  18   3  10 49.9571 140.554   7
 -18  -3 -10 169.455 210.901   4
  18  -3  10 121.004 198.254   7
 -18   3 -10 57.0971 190.039   4
  18   3  10-104.821 116.247   6
  18  -3  10-47.9649 147.024   6
 -18  -3 -11-51.1291 158.532   4
  18  -3  11-172.185 188.521   7
 -18   3 -11 19.1131 160.965   4
 -18  -3 -11-462.173 494.594   1
  18  -3  11-48.1773 135.107   6
 -18  -3 -12-17.1447 127.921   4
  18  -3  12-24.7265 172.193   7
 -18   3 -12 19.1989 156.430   4
  18   3  12 106.138 112.163   6
 -18  -3 -12-494.151 466.086   1
  18  -3  12-24.2134 113.390   6
  18  -3  13-74.5722 150.281   7
 -18   3 -13 19.2961 138.765   4
  18  -3  13-72.9953 116.339   6
  18  -3  14 75.7603 159.035   7
 -18   3 -14 550.485 593.113   1
 -18   3 -14 114.019 146.095   4
  18  -3  14-23.4018 117.628   6
  18  -3  15-76.2065 169.774   7
 -18   3 -15 291.401 574.805   1
 -18   3 -15 38.2217 132.277   4
  18  -3  15-47.0696 110.614   6
 -18   3 -16-29.3094 580.286   1
  18  -3  16-102.211 165.479   7
 -18   3 -16-19.2201 139.917   4
  18  -3  16-23.6732 114.752   6
 -18   3 -17-265.421 577.915   1
  18  -3  17-25.7305 135.456   7
 -18   3 -17-38.6521 153.722   4
  18  -3  17 23.8161 125.436   6
  18  -3  18 129.483 140.918   7
 -18   3 -18-58.3405 143.275   4
  18  -3  18-23.9658 126.032   6
  18  -3  19 26.0645 139.014   7
 -18   3 -19 19.5692 150.850   4
  18  -3  19 96.4797 120.168   6
  18  -4   0-23.5236 93.7990   6
 -18  -4   0 27.4395 506.282   1
  18   4   0 118.966 162.054   7
 -18  -4   0 17.3499 144.141   4
  18  -4   0 191.486 188.660   7
  18   4   0 20.8825 112.458   6
 -18   4   0-19.5606 105.704   4
  18  -4   1 47.0906 90.4778   6
  18  -4  -1-47.0433 80.8454   6
 -18  -4  -1 358.218 508.529   1
  18   4   1-71.7609 144.361   7
  18   4  -1 142.194 146.840   7
 -18  -4  -1 17.4154 132.721   4
  18  -4  -1 23.9253 169.520   7
 -18  -4   1-17.2857 141.424   4
  18   4   1 20.9729 115.858   6
  18   4  -1-41.6127 101.132   6
 -18   4  -1 19.5291 84.4608   4
 -18   4   1-19.5560 93.0543   4
  18  -4   2-47.1389 96.6725   6
 -18  -4  -2-166.083 498.182   1
  18   4   2 48.0507 130.748   7
  18   4  -2-23.6144 134.772   7
 -18  -4   2 353.996 525.307   1
 -18  -4  -2 117.842 132.757   4
  18  -4  -2-23.9248 169.661   7
 -18  -4   2 86.1417 145.209   4
  18   4   2-40.8305 118.315   6
  18   4  -2-41.4645 105.120   6
 -18   4  -2 19.5450 104.663   4
 -18   4   2 19.5612 70.3279   4
 -18   4   3 19.5746 80.3048   4
  18  -4   3-47.2099 107.494   6
 -18  -4  -3 305.927 485.079   1
  18   4   3 120.676 129.095   7
  18   4  -3-23.5396 142.191   7
 -18  -4  -3-50.7290 122.289   4
  18  -4   3 47.3130 166.074   7
 -18  -4   3-108.552 529.024   1
  18  -4  -3 46.1697 162.066   7
 -18  -4   3-53.4652 144.859   4
  18   4   3 20.5082 118.799   6
 -18   4  -3 19.5704 106.523   4
  18   4  -3 43.6309 110.531   6
  18  -4   4 23.6508 97.6968   6
 -18   4  -4-167.694 560.269   1
 -18  -4  -4-307.411 487.583   1
  18   4   4-72.7715 138.917   7
  18   4  -4-117.343 149.708   7
 -18  -4  -4-16.9831 132.298   4
  18  -4   4 23.6953 158.287   7
  18  -4  -4 23.0984 167.389   7
 -18  -4   4-53.3165 132.646   4
 -18  -4   4-54.1144 558.764   1
  18   4   4 20.6113 107.122   6
 -18   4  -4 19.5974 110.823   4
  18   4  -4-21.7560 104.405   6
  18  -4   5-23.7003 109.067   6
 -18  -4  -5-561.747 493.299   1
 -18   4  -5 28.0145 570.542   1
  18   4   5 73.1527 124.507   7
  18   4  -5 70.2247 151.453   7
 -18  -4  -5 51.2083 142.691   4
  18  -4   5 71.2610 170.779   7
 -18  -4   5 17.7356 133.915   4
 -18  -4   5 107.923 559.841   1
  18   4   5-20.7120 99.9838   6
 -18   4  -5-19.6411 111.517   4
  18   4  -5 65.1009 104.622   6
  18  -4   6-23.7594 106.057   6
 -18   4  -6 589.941 590.046   1
  18   4   6-49.1032 124.746   7
  18   4  -6 69.3137 145.441   7
 -18  -4  -6-16.6742 144.686   4
  18  -4   6-95.1517 163.924   7
 -18  -4   6 18.0588 130.952   4
  18   4   6-61.8341 116.260   6
 -18   4  -6 38.6878 126.383   4
 -18  -4   6 134.582 578.449   1
  18   4  -6 22.6315 105.954   6
  18  -4   7-47.6617 128.038   6
  18   4   7 74.0599 118.235   7
  18   4  -7-23.0597 159.080   7
 -18  -4  -7-83.8132 151.203   4
  18  -4   7-119.302 177.665   7
 -18   4  -7-56.4852 586.584   1
  18   4   7 20.7261 115.284   6
 -18   4  -7-19.3985 122.468   4
  18   4  -7 22.5877 115.064   6
  18  -4   8-47.8223 208.686   6
  18   4   8 124.154 220.061   7
 -18  -4  -8-16.8552 245.420   4
  18  -4   8 71.8011 251.624   7
 -18   4  -8-58.3600 228.860   4
  18   4   8 83.3816 204.711   6
  18  -4   9-23.9938 124.913   6
 -18  -4  -9 135.626 227.580   4
  18  -4   9-48.4107 183.719   7
 -18   4  -9-58.5504 175.137   4
  18   4   9-62.8934 129.393   6
  18  -4  10-24.0869 117.251   6
  18  -4  10 72.9015 185.273   7
 -18   4 -10 78.3561 135.520   4
 -18   4 -11 257.777 619.783   1
  18  -4  11-24.4064 158.708   7
 -18   4 -11-38.3585 125.576   4
  18  -4  11-48.3815 119.943   6
 -18   4 -12 489.207 625.013   1
  18  -4  12-24.8060 175.165   7
 -18   4 -12 77.0407 141.389   4
  18  -4  12 48.5940 129.201   6
 -18   4 -13 318.110 620.797   1
  18  -4  13 24.9308 150.862   7
 -18   4 -13-19.3526 147.896   4
  18  -4  13 24.4096 111.529   6
  18  -4  14 25.0543 153.294   7
 -18   4 -14 19.4401 129.457   4
  18  -4  14-49.0751 133.413   6
  18  -4  15 76.3867 163.724   7
 -18   4 -15-19.5430 139.827   4
 -18   4 -15-262.727 586.447   1
  18  -4  15-24.6715 117.399   6
  18  -4  16-51.2264 166.643   7
 -18   4 -16 410.933 591.825   1
 -18   4 -16 58.9441 149.740   4
  18  -4  16-24.8077 110.080   6
 -18   4 -17 88.5859 560.792   1
  18  -4  17 77.2817 154.498   7
 -18   4 -17 59.2711 151.734   4
  18  -4  17-49.8979 117.615   6
  18  -4  18-25.9447 146.334   7
 -18   4 -18-19.8749 138.791   4
  18  -4  18 100.404 130.215   6
 -18   5   0 39.4818 76.7684   4
 -18  -5   0-55.2354 497.159   1
  18   5   0-95.7883 149.522   7
 -18  -5   0 16.7929 134.599   4
  18   5   0 183.186 128.074   6
 -18   5   1 98.7291 93.9590   4
 -18  -5  -1 83.1922 481.677   1
 -18  -5   1 82.5019 517.340   1
  18   5   1 120.267 127.793   7
  18   5  -1 119.246 147.175   7
 -18  -5  -1-118.042 134.236   4
 -18  -5   1 52.1402 129.377   4
  18  -5  -1-23.3000 151.093   7
  18   5   1 81.7767 110.978   6
  18   5  -1-20.9098 113.427   6
 -18   5  -1-19.7454 95.9776   4
  18  -5   2-47.5594 94.4103   6
 -18  -5  -2-585.198 480.471   1
 -18  -5   2-136.896 508.202   1
  18   5   2-24.2053 117.681   7
  18   5  -2 47.5070 147.200   7
 -18  -5  -2 84.6946 136.558   4
 -18  -5   2 69.2583 141.683   4
  18  -5   2-72.5774 171.432   7
  18   5   2-41.0827 101.936   6
  18   5  -2 20.8322 107.431   6
 -18   5  -2-19.7517 87.6802   4
  18  -5   3 23.8032 89.0709   6
 -18  -5  -3-784.062 501.745   1
 -18  -5   3 163.692 542.145   1
  18   5   3 24.3280 111.175   7
  18   5  -3 94.6692 135.354   7
 -18  -5  -3-17.0179 146.650   4
  18  -5   3-24.2177 161.570   7
 -18  -5   3-69.0237 135.270   4
  18   5   3-61.9055 108.911   6
  18   5  -3-62.2540 117.002   6
 -18   5  -3 19.7747 90.6024   4
  18  -5   4-23.8384 105.793   6
 -18  -5   4-271.879 606.773   1
  18   5   4 24.4549 105.781   7
  18   5  -4-23.5612 147.859   7
 -18  -5  -4 49.8622 131.939   4
  18  -5   4-23.8861 178.932   7
 -18  -5   4 17.1999 127.719   4
  18   5   4 61.5943 117.037   6
  18   5  -4-21.8401 106.176   6
 -18   5  -4 19.7534 83.1762   4
  18  -5   5-47.7665 113.049   6
 -18  -5   5-216.780 712.108   1
  18   5   5-49.1700 147.804   7
  18   5  -5-46.9760 159.398   7
 -18  -5  -5-16.7084 154.225   4
  18  -5   5-119.667 194.013   7
 -18  -5   5-17.7982 158.307   4
  18   5   5 41.2751 114.038   6
 -18   5  -5 19.7795 105.880   4
  18   5  -5-65.3174 129.457   6
  18  -5   6-47.8650 141.966   6
  18   5  -6-23.4186 177.020   7
 -18  -5  -6-100.783 200.465   4
  18  -5   6-215.836 213.770   7
  18   5   6-20.7524 138.077   6
 -18   5  -6 39.6471 140.228   4
  18  -5   7-47.9813 137.225   6
 -18  -5  -7 557.146 283.591   4
  18  -5   7 168.162 216.112   7
  18   5   7 104.354 146.250   6
 -18   5  -7 19.8678 172.982   4
  18  -5   8 24.0595 115.807   6
  18  -5   8-72.2632 185.934   7
 -18   5  -8-59.7633 139.337   4
  18  -5   9-24.1392 104.879   6
  18  -5   9 72.5066 166.436   7
 -18   5  -9 39.2593 118.892   4
  18  -5  10 24.2215 105.374   6
 -18   5 -10 487.846 618.661   1
  18  -5  10-24.2572 163.629   7
 -18   5 -10 19.7001 112.862   4
  18  -5  11 24.3149 107.904   6
  18  -5  11-24.5341 163.298   7
 -18   5 -11-19.7691 120.924   4
 -18   5 -11 489.724 626.832   1
  18  -5  12 48.8393 100.315   6
  18  -5  12-98.5636 164.254   7
 -18   5 -12 173.376 627.516   1
 -18   5 -12-19.8469 118.502   4
  18  -5  13 24.5308 108.650   6
 -18   5 -13 406.375 625.919   1
  18  -5  13 49.4917 175.153   7
 -18   5 -13 59.7803 128.009   4
  18  -5  14 24.6445 103.736   6
  18  -5  14 25.1656 153.912   7
 -18   5 -14-20.0159 133.215   4
  18  -5  15 24.7694 110.594   6
  18  -5  15-101.178 166.925   7
 -18   5 -15-20.1144 145.809   4
  18  -5  16 50.8406 161.998   7
 -18   5 -16-20.2172 136.645   4
 -18   5 -16-382.629 602.852   1
  18  -5  16-49.7822 105.556   6
  18  -5  17 25.8469 161.327   7
 -18   5 -17-266.329 627.938   1
 -18   5 -17 19.8189 136.205   4
  18  -5  17 50.0783 125.731   6
  18   6   0-24.1598 161.146   7
 -18  -6   0-16.9181 152.403   4
  18   6   0 61.4927 123.136   6
  18   6   1-24.2750 156.211   7
  18   6  -1 24.0529 163.789   7
 -18  -6  -1-214.746 159.293   4
 -18  -6   1-33.6871 147.870   4
  18   6   1-20.5890 109.768   6
  18   6  -1-20.4067 121.356   6
 -18   6  -2 19.9468 93.9766   4
 -18  -6   2-165.538 668.416   1
  18   6  -2 95.7926 161.815   7
 -18  -6  -2-248.851 166.881   4
 -18  -6   2-16.7784 147.749   4
  18  -6   2-48.8516 188.288   7
  18   6   2-40.9589 117.640   6
  18   6  -2 81.2689 121.833   6
 -18   6  -3-19.9529 111.061   4
 -18  -6   3-357.256 674.503   1
  18   6  -3 333.406 195.768   7
 -18  -6  -3-200.096 180.899   4
 -18  -6   3-17.3654 149.713   4
  18  -6   3 244.475 242.931   7
  18   6   3-41.1648 128.997   6
  18   6  -3-20.8792 145.969   6
  18   6  -4 189.818 249.609   7
 -18  -6  -4 201.103 263.451   4
 -18  -6   4 294.202 237.614   4
  18  -6   4 513.940 274.452   7
 -18  -6   4 848.404 837.519   1
  18   6   4 165.528 203.661   6
  18   6  -4 228.827 224.007   6
 -18   6  -4 79.8997 198.861   4
  18  -6   5-24.0939 117.132   6
  18  -6   5 98.0678 206.412   7
 -18   6  -5-40.0022 112.279   4
  18  -6   6-193.110 135.750   6
  18  -6   6-48.3658 205.146   7
 -18   6  -6-20.0344 119.093   4
  18  -6   7 24.1859 96.5992   6
  18  -6   7 48.4846 159.913   7
 -18   6  -7-20.0698 107.782   4
  18  -6   8 72.7574 117.959   6
  18  -6   8-24.3017 173.920   7
 -18   6  -8-20.0682 110.943   4
  18  -6   9 48.6433 99.9714   6
 -18   6  -9 143.515 625.282   1
  18  -6   9-73.0377 165.883   7
 -18   6  -9-40.2370 118.491   4
  18  -6  10 48.7873 96.8937   6
  18  -6  10-24.4235 178.112   7
 -18   6 -10-20.1817 118.528   4
 -18   6 -10 86.5945 617.559   1
  18  -6  11-24.4810 97.6399   6
 -18   6 -11-173.804 623.139   1
  18  -6  11 24.5082 163.403   7
 -18   6 -11 60.7298 124.189   4
  18  -6  12 49.1516 100.789   6
 -18   6 -12-552.581 636.807   1
  18  -6  12-24.7920 166.981   7
 -18   6 -12 20.3142 112.446   4
  18  -6  13-24.6773 103.820   6
  18  -6  13 124.477 167.457   7
 -18   6 -13-87.6381 615.303   1
 -18   6 -13 40.7895 123.806   4
  18  -6  14-49.5632 115.868   6
 -18   6 -14 29.3066 613.271   1
  18  -6  14 175.014 192.443   7
 -18   6 -14 40.9702 124.904   4
  18  -6  15-74.7007 101.355   6
 -18   6 -15 500.592 639.803   1
  18  -6  15-50.8552 163.101   7
 -18   6 -15 20.2157 127.266   4
  18  -6  16 50.0568 110.677   6
 -18   6 -16 40.6235 140.128   4
 -18  -7   0 16.5928 148.500   4
  18   7   0-40.9174 122.199   6
 -18  -7  -1-16.6668 154.166   4
 -18  -7   1-101.965 150.447   4
  18   7   1-20.5614 115.768   6
  18   7  -1-61.7437 122.848   6
 -18  -7   2 67.6765 137.405   4
  18   7  -2-40.9700 113.165   6
 -18  -7   2-167.024 536.258   1
 -18  -7   3 16.8493 132.838   4
  18   7  -3-20.3954 107.261   6
 -18  -7   3-249.477 546.625   1
  18  -7   4-98.9254 189.789   7
 -18   7  -5 20.1944 66.4663   4
  18  -7   5-24.7560 168.391   7
 -18   7  -6-20.2195 96.3071   4
  18  -7   6-123.975 182.475   7
  18  -7   7-146.797 184.255   7
 -18   7  -7 20.2505 98.0607   4
  18  -7   8-24.4713 95.9407   6
  18  -7   8 49.0400 174.772   7
 -18   7  -8 60.8604 94.1800   4
  18  -7   9-73.5925 84.5911   6
 -18   7  -9-115.698 612.169   1
  18  -7   9 98.3216 175.994   7
 -18   7  -9 61.0195 101.135   4
  18  -7  10-73.7917 109.751   6
 -18   7 -10 261.157 630.768   1
  18  -7  10-147.915 197.505   7
 -18   7 -10-20.3913 109.225   4
  18  -7  11-24.6747 88.3966   6
 -18   7 -11-58.2166 625.446   1
  18  -7  11 49.4089 189.917   7
 -18   7 -11-20.4451 93.0781   4
  18  -7  12-99.0416 104.543   6
 -18   7 -12 146.408 645.380   1
  18  -7  12-24.7861 172.325   7
 -18   7 -12-20.4685 105.693   4
  18  -7  13-24.8468 92.4883   6
 -18   7 -13-499.688 634.947   1
  18  -7  13 74.6642 165.782   7
 -18   7 -13-41.0730 117.244   4
  18  -7  14-24.9508 100.529   6
  18  -7  14-25.1807 170.329   7
 -18   7 -14-147.546 658.153   1
 -18   7 -14-20.6199 111.528   4
 -18   7 -15-118.436 640.126   1
 -18  -8   1 50.0611 141.282   4
  18   8  -1 82.2678 130.896   6
 -18  -8   2-49.8275 130.204   4
  18   8  -2 81.8884 122.348   6
  18  -8   7-50.1942 186.262   7
  18  -8   8-125.732 207.586   7
 -18   8  -9-123.161 116.319   4
  18  -8   9-74.4370 179.139   7
 -18   8 -10-20.5706 85.2139   4
  18  -8  10 74.6525 173.342   7
 -18   8 -11-20.6242 90.0860   4
  18  -8  11-124.769 188.974   7
 -18   8 -12-529.907 662.268   1
  18  -8  12-100.034 171.102   7
 -18   8 -12 20.6879 92.4121   4
  18  -8  13 25.0609 92.3422   6
  18  -8  13 125.436 189.209   7
 -18   8 -13 355.412 632.970   1
 -18   8 -13 41.4981 111.001   4
  18  -9  10-50.2663 170.872   7
  18  -9  11-151.221 213.078   7
  19   0   0 24.0732 171.404   7
 -19   0   0-56.9660 153.326   4
  19   0   0-23.8627 145.139   6
  19   0  -1 23.8224 124.101   6
  19   0   1 168.852 184.690   7
  19   0  -1 96.1287 188.588   7
 -19   0  -1-19.0226 152.035   4
 -19   0   1-38.8858 161.226   4
  19   0   1-23.9103 128.989   6
  19   0  -2 23.7843 119.617   6
  19   0   2-24.1830 174.131   7
  19   0  -2 285.784 210.932   7
 -19   0  -2-38.1321 160.601   4
 -19   0   2 19.4254 142.986   4
  19   0   2 95.8831 145.995   6
  19   0  -3 213.848 161.884   6
  19   0   3-49.0804 196.986   7
  19   0  -3 166.567 227.821   7
 -19   0  -3 38.2343 183.140   4
 -19   0   3 19.4076 192.283   4
  19   0   3 96.1292 159.778   6
  19   0  -4-47.4891 181.460   6
  19   0   4 73.8402 221.346   7
  19   0  -4-47.5565 237.375   7
 -19   0  -4 225.418 237.988   4
 -19   0   4 174.587 204.537   4
  19   0   4 72.3052 184.311   6
  19   0  -5-71.2031 152.216   6
  19   0   5-74.0851 183.661   7
  19   0  -5-118.824 198.343   7
 -19   0  -5-94.2145 194.598   4
 -19   0   5-39.4826 158.215   4
  19   0   5-46.2610 149.073   6
  19   0  -6 47.4802 97.2951   6
  19   0  -6-95.0811 179.705   7
 -19   0  -6-37.8025 146.584   4
 -19   0   6-19.7441 117.683   4
  19   0   6 116.081 134.440   6
  19   0  -7-47.4999 105.065   6
  19   0   7 24.8792 153.760   7
  19   0  -7-71.3234 177.894   7
 -19   0  -7-18.9735 156.798   4
  19   0   7-23.3018 124.316   6
 -19   0   7 19.7523 92.4893   4
  19   0  -8-47.5319 92.8623   6
  19   0   8 25.2571 151.292   7
  19   0  -8 95.2634 169.581   7
 -19   0   8-112.641 616.791   1
 -19   0  -8 19.0465 156.735   4
 -19   0  -8 261.305 574.919   1
  19   0   8-23.3960 121.784   6
 -19   0   8 99.1002 107.227   4
 -19   0   9 140.973 615.501   1
  19   0   9 25.3683 140.557   7
 -19   0  -9 320.835 582.459   1
  19   0  -9-119.212 162.536   7
 -19   0  -9-19.1256 142.415   4
  19   0   9 23.4983 132.330   6
 -19   0   9-19.8476 79.5151   4
 -19   0  10-19.8789 76.3391   4
 -19   0 -10 58.5980 566.246   1
  19   0  10-25.4803 155.009   7
  19   0 -10-23.8758 152.932   7
 -19   0 -10-55.5319 143.592   4
  19   0  10-22.3605 110.426   6
 -19   0 -11 117.775 565.724   1
  19   0  11-51.2694 156.890   7
  19   0 -11 23.9210 174.499   7
 -19   0 -11 18.5998 145.421   4
  19   0  11-22.4647 120.167   6
  19   0  12 25.7630 153.553   7
 -19   0 -12 18.6883 137.719   4
  19   0  12-67.7289 124.945   6
 -19   0 -13 37.5522 141.878   4
  19   0  13-22.6955 112.595   6
  19   0  14 45.6394 113.104   6
  19  -1   0-47.8660 132.965   6
  19   1   0 24.3275 171.258   7
  19  -1   0 23.9688 203.675   7
 -19  -1   0-18.9665 167.853   4
 -19   1   0-19.5299 133.593   4
  19   1   0 71.4599 121.336   6
  19  -1   1 95.8873 137.402   6
  19  -1  -1 95.5957 132.822   6
 -19   1  -1-3218.63 759.476   1
 -19  -1  -1-3009.67 831.501   1
  19   1   1-48.7655 181.617   7
  19   1  -1-143.935 181.846   7
  19  -1   1 408.103 231.379   7
  19  -1  -1 215.384 221.945   7
 -19  -1  -1-38.0224 156.221   4
 -19  -1   1-37.8643 158.942   4
 -19   1   1-1533.14 699.275   1
 -19   1  -1-19.5570 162.994   4
 -19   1   1 39.0122 138.975   4
  19   1   1 214.935 138.927   6
  19   1  -1 47.5595 123.457   6
  19  -1  -2 238.727 192.395   6
 -19   1   2-2149.81 709.896   1
  19   1   2-73.3600 171.204   7
  19   1  -2 119.753 197.325   7
  19  -1   2 290.828 213.536   7
  19  -1  -2 478.093 233.551   7
 -19  -1  -2 37.3512 172.338   4
 -19  -1   2 56.7102 181.209   4
 -19   1  -2 19.5913 171.573   4
 -19   1   2 39.6674 155.905   4
  19   1   2-68.7136 120.949   6
 -19   1  -2-2426.50 760.393   1
  19   1  -2-47.4608 135.314   6
  19  -1   2 96.0755 130.383   6
  19   1  -3 142.195 236.052   6
  19  -1  -3 453.285 262.435   6
  19   1   3 343.393 277.978   7
  19  -1   3-48.5885 253.545   7
  19   1  -3 47.8220 263.789   7
  19  -1  -3 215.028 295.824   7
 -19   1   3-1752.77 733.306   1
 -19  -1  -3 74.9049 269.726   4
 -19  -1   3 3806.39 876.959   1
 -19   1  -3 57.4443 249.327   4
 -19  -1   3 735.779 277.094   4
 -19   1   3 59.4756 238.137   4
  19   1   3 91.9180 233.517   6
  19  -1   3 337.088 252.547   6
  19   1  -4 71.0129 156.669   6
  19  -1  -4-95.4090 169.444   6
  19   1   4-24.6119 201.863   7
  19  -1   4 24.3641 207.425   7
  19   1  -4-47.7547 208.194   7
  19  -1  -4 23.9050 212.398   7
 -19  -1  -4 18.7853 196.904   4
 -19   1  -4 38.3821 190.007   4
 -19  -1   4-19.3438 195.920   4
 -19   1   4 19.8256 153.751   4
  19   1   4 161.347 165.460   6
  19  -1   4-24.1453 162.297   6
 -19   1   5 5338.91 763.133   1
  19   1  -5-70.9681 134.040   6
  19  -1  -5-23.8505 128.755   6
 -19  -1   5 5007.10 917.359   1
  19   1   5-49.9359 163.481   7
  19   1  -5 71.5785 176.521   7
  19  -1  -5-71.7331 206.273   7
 -19  -1  -5-56.5521 167.250   4
 -19   1  -5-57.7465 146.605   4
 -19  -1  -5-2872.12 744.392   1
 -19  -1   5-19.3339 163.804   4
  19   1   5-138.808 148.120   6
 -19   1   5-19.8284 122.661   4
  19  -1   5-48.4298 137.147   6
  19   1  -6 47.2850 105.476   6
  19  -1  -6-47.7204 106.437   6
  19   1   6 50.1243 153.673   7
  19  -1   6 173.643 182.853   7
  19   1  -6 94.7039 168.111   7
  19  -1  -6 95.6826 168.175   7
 -19  -1  -6 18.2336 150.671   4
 -19   1  -6-19.3076 139.890   4
 -19  -1   6-216.377 138.436   4
  19   1   6 139.328 132.804   6
 -19   1   6-59.6588 101.202   4
  19  -1   6 24.2938 118.590   6
  19   1  -7 47.2843 100.392   6
  19  -1  -7-23.8816 89.6353   6
 -19   1  -7-231.250 599.669   1
  19  -1   7 49.7941 162.517   7
  19   1  -7-23.6754 174.703   7
  19  -1  -7 47.8582 170.060   7
 -19  -1  -7 18.3037 148.123   4
 -19   1  -7-18.9791 140.272   4
 -19  -1   7 19.6792 105.971   4
  19   1   7-66.2450 112.490   6
  19  -1   7-24.3822 114.232   6
 -19   1   7-59.7243 93.5825   4
 -19   1   8-19.9333 84.0052   4
  19   1  -8-23.6459 93.9298   6
  19  -1   8-24.9982 158.862   7
  19   1  -8 189.433 177.416   7
  19  -1  -8-47.9243 166.467   7
 -19  -1  -8-18.3803 157.980   4
 -19  -1   8-253.148 643.074   1
 -19   1  -8-38.1018 142.760   4
  19   1   8-44.3580 116.510   6
 -19  -1   8 19.6867 107.059   4
  19  -1   8 23.4085 116.195   6
 -19   1  -8-58.0365 590.740   1
 -19   1   9 19.9705 64.2902   4
  19   1  -9-47.3376 89.0373   6
 -19  -1  -9 58.4456 547.998   1
  19   1   9-50.8434 138.895   7
  19  -1   9 150.594 178.416   7
  19   1  -9 94.7792 173.352   7
  19  -1  -9-71.9818 180.303   7
 -19  -1  -9 18.4560 138.993   4
 -19   1  -9 76.4910 155.963   4
 -19   1  -9 87.4223 587.022   1
  19   1   9 22.2840 121.949   6
  19  -1   9-47.0042 126.392   6
 -19  -1   9 138.245 111.773   4
 -19  -1   9-56.1455 620.464   1
 -19  -1 -10-29.3655 549.457   1
  19   1  10 51.0821 133.808   7
  19  -1  10-152.872 174.929   7
  19   1 -10-94.8916 172.995   7
 -19  -1 -10 18.5458 154.686   4
  19  -1 -10-73.2222 172.878   7
 -19   1 -10-57.6049 145.788   4
 -19   1 -10-292.740 594.991   1
  19   1  10-22.3879 123.969   6
  19  -1  10 47.2085 130.462   6
 -19  -1 -11-501.590 563.119   1
  19   1  11 51.3368 139.624   7
  19  -1  11 25.5990 148.223   7
 -19   1 -11 352.883 584.279   1
 -19  -1 -11 55.9012 149.178   4
  19  -1 -11-73.3732 171.695   7
 -19   1 -11 38.5609 159.018   4
  19   1  11-89.9954 143.065   6
  19  -1  11-23.7149 124.655   6
  19  -1  12 102.876 153.118   7
 -19  -1 -12-56.1616 168.204   4
 -19   1 -12-19.3735 146.402   4
  19   1  12-67.8504 120.858   6
  19  -1  12 71.4755 120.551   6
  19  -1  13-51.7476 150.075   7
 -19  -1 -13-18.1150 154.192   4
 -19   1 -13 19.4665 164.919   4
  19   1  13-286.419 147.481   6
  19  -1  13-23.9440 142.959   6
 -19   1 -14 18.8498 144.229   4
  19  -1  14 45.5889 110.814   6
  19  -2   0 408.726 292.880   6
 -19   2   0-142.347 676.723   1
  19   2   0 121.658 291.323   7
  19  -2   0 890.677 354.672   7
 -19  -2   0 37.1841 298.056   4
 -19   2   0 99.7647 265.826   4
  19   2   0 113.968 271.240   6
  19  -2   1 361.022 237.846   6
  19  -2  -1 504.367 244.615   6
 -19   2  -1-826.758 677.456   1
 -19   2   1-341.213 662.694   1
  19   2   1 73.1830 231.060   7
  19   2  -1 97.0682 236.579   7
  19  -2   1 192.867 259.911   7
  19  -2  -1 505.522 300.395   7
 -19  -2  -1-18.6419 233.238   4
 -19  -2   1 94.6614 239.802   4
 -19   2  -1 58.8898 199.993   4
 -19   2   1 19.9366 189.314   4
  19   2   1-22.8518 203.553   6
  19   2  -1 71.2977 203.165   6
  19  -2   2 24.1140 201.419   6
  19  -2  -2 96.0106 211.985   6
  19   2   2 98.9292 232.734   7
  19   2  -2 121.063 245.643   7
  19  -2   2 386.322 287.243   7
  19  -2  -2 48.1032 259.303   7
 -19  -2  -2 56.0857 209.590   4
 -19  -2   2 642.409 267.959   4
 -19   2  -2-19.6558 210.502   4
 -19   2   2-19.9289 193.650   4
  19   2   2 137.536 215.784   6
  19   2  -2 94.8518 209.380   6
  19  -2   3 24.1605 132.171   6
  19  -2  -3-47.9866 162.240   6
  19   2   3-99.2730 176.232   7
  19   2  -3 48.3373 181.670   7
  19  -2   3 24.1933 184.986   7
  19  -2  -3-240.472 236.708   7
 -19  -2  -3 18.7488 169.111   4
 -19  -2  -3 657.177 720.201   1
 -19  -2   3 18.8645 183.936   4
 -19   2  -3-19.6967 143.763   4
  19   2   3 92.0074 160.973   6
 -19   2   3 39.8642 118.652   4
  19   2  -3-47.3405 145.801   6
  19  -2   4-24.2180 147.977   6
  19  -2  -4-23.9920 142.863   6
  19   2   4 24.9110 177.637   7
  19   2  -4-71.5403 192.330   7
  19  -2  -4-168.318 228.822   7
 -19  -2  -4-36.2695 181.525   4
 -19  -2   4-263.800 175.513   4
 -19   2  -4 39.4639 152.177   4
  19   2   4 21.8578 130.207   6
 -19   2   4-19.9813 131.857   4
  19   2  -4-236.326 148.616   6
  19   2  -5 47.2217 111.236   6
  19  -2  -5-48.0033 115.514   6
  19   2   5-25.0063 151.906   7
  19   2  -5 142.903 169.641   7
  19  -2   5-220.508 177.816   7
  19  -2  -5 96.2188 179.435   7
 -19  -2  -5-18.1993 152.063   4
 -19   2  -5-38.5851 140.424   4
 -19  -2   5-77.2086 151.786   4
  19   2   5-43.8973 118.545   6
 -19   2   5 19.9937 94.6458   4
  19  -2   5 24.2852 114.337   6
  19   2  -6-47.1739 102.024   6
 -19  -2  -6-318.047 545.794   1
  19   2   6 100.434 167.121   7
  19  -2   6-24.5709 172.389   7
  19   2  -6 23.8001 151.210   7
 -19   2  -6-490.988 620.561   1
  19  -2  -6 73.3363 176.578   7
 -19  -2  -6-36.5386 150.576   4
 -19   2  -6-38.6851 125.856   4
 -19  -2   6-19.2872 106.561   4
  19   2   6 66.1136 115.714   6
  19  -2   6-48.7070 110.742   6
 -19   2   6 20.0153 68.8184   4
 -19   2   7 20.0397 77.1292   4
  19   2  -7-23.5806 107.301   6
 -19  -2  -7 58.0916 536.829   1
 -19   2  -7-231.863 617.415   1
  19   2   7-50.4913 146.116   7
  19  -2   7 24.6504 162.287   7
  19   2  -7-71.3802 165.303   7
 -19  -2  -7-18.3461 151.261   4
  19  -2  -7-24.4699 180.102   7
 -19  -2   7 224.187 646.103   1
 -19   2  -7-19.4001 124.817   4
 -19  -2   7-19.2870 110.013   4
  19   2   7-22.1277 107.642   6
  19  -2   7 122.161 135.036   6
  19   2  -8 23.5726 105.403   6
  19  -2   8-50.0693 165.272   7
  19   2  -8-118.891 170.620   7
 -19  -2  -8 18.4220 155.636   4
  19  -2  -8 49.0025 172.383   7
 -19   2  -8-19.4669 138.545   4
 -19  -2   8 196.417 660.098   1
 -19  -2   8 157.043 125.389   4
  19   2   8 44.4643 138.366   6
  19  -2   8-24.5199 122.334   6
 -19   2  -9-350.475 610.295   1
  19  -2   9-50.2697 168.760   7
 -19  -2  -9 35.6339 131.793   4
  19  -2  -9 24.5499 180.366   7
 -19   2  -9 19.5400 140.226   4
  19   2   9 43.2949 121.636   6
  19  -2   9 123.039 133.348   6
 -19  -2 -10-500.776 542.932   1
  19   2  10 25.6115 141.804   7
  19  -2  10-25.2355 162.544   7
 -19  -2 -10-17.9011 134.432   4
 -19   2 -10-19.6135 141.992   4
  19   2  10-21.7548 110.475   6
  19  -2  10 24.7144 112.776   6
 -19   2 -10-380.765 612.396   1
  19   2  11 25.7855 126.781   7
  19  -2  11-50.6915 149.994   7
 -19  -2 -11-17.9837 149.439   4
 -19   2 -11 77.1926 135.383   4
  19   2  11 87.4742 135.108   6
  19  -2  11 24.8212 111.780   6
  19  -2  12 51.4768 155.713   7
 -19  -2 -12-18.0783 137.034   4
 -19   2 -12-19.3777 140.388   4
  19   2  12 21.9801 125.748   6
  19  -2  12 23.8452 123.413   6
 -19   2 -13-19.4721 153.268   4
  19  -2  13 143.793 135.053   6
 -19   2 -14-39.1269 166.983   4
  19  -2  14-72.2474 121.004   6
  19  -3   0-507.711 215.474   6
  19   3   0 24.6341 204.280   7
  19  -3   0-145.422 257.403   7
 -19  -3   0-260.764 196.648   4
 -19   3   0 40.1303 159.197   4
  19   3   0 22.8298 178.999   6
  19  -3   1-72.5996 168.672   6
  19  -3  -1-96.6503 159.672   6
  19   3   1-148.271 175.460   7
  19   3  -1-49.1159 189.133   7
  19  -3   1-194.097 231.306   7
  19  -3  -1-290.590 225.826   7
 -19  -3  -1-36.0105 175.081   4
 -19  -3   1-18.5792 178.420   4
 -19   3  -1-40.1607 134.930   4
  19   3   1 22.8976 131.969   6
 -19   3   1 20.0580 120.854   4
  19   3  -1 22.7670 131.300   6
  19  -3   2-24.2347 149.042   6
  19  -3  -2-72.4580 136.483   6
  19   3   2 24.7866 146.144   7
  19   3  -2-121.201 180.648   7
  19  -3   2-242.703 231.485   7
  19  -3  -2-96.8478 222.026   7
 -19  -3  -2-18.0617 167.492   4
 -19   3  -2-20.1047 134.579   4
 -19   3  -2 630.973 644.954   1
  19   3   2-43.5093 124.003   6
  19   3  -2 45.4119 124.943   6
 -19   3   2-120.600 122.157   4
  19  -3   3-24.2797 113.750   6
  19  -3  -3-48.3196 110.655   6
  19   3   3 24.8827 146.543   7
  19   3  -3 48.3698 150.439   7
  19  -3  -3-24.5824 195.520   7
 -19  -3  -3 18.1207 153.954   4
 -19  -3   3-283.190 157.993   4
 -19   3  -3 20.1302 121.302   4
  19   3   3 21.8385 125.602   6
  19   3  -3-94.7419 141.708   6
 -19   3   3-20.1034 91.1698   4
  19  -3   4 121.630 130.014   6
  19   3   4-25.0034 146.799   7
  19   3  -4 120.672 160.662   7
  19  -3   4 73.0633 167.441   7
 -19  -3  -4-18.1922 153.191   4
  19  -3  -4-24.5831 167.243   7
 -19  -3   4-18.8487 146.096   4
 -19   3  -4-19.8143 116.351   4
  19   3   4-43.8397 128.705   6
  19   3  -4-47.2833 119.650   6
 -19   3   4 20.1156 101.821   4
 -19   3   5-20.1369 75.5369   4
  19  -3   5 146.294 132.942   6
 -19  -3  -5-231.203 544.901   1
  19   3   5-50.2107 134.572   7
  19   3  -5 144.602 171.103   7
  19  -3   5-24.4117 164.625   7
 -19  -3  -5-18.2554 144.169   4
  19  -3  -5-98.4279 172.971   7
 -19  -3   5 56.4661 131.169   4
 -19   3  -5 19.8559 120.320   4
  19   3   5 132.067 125.920   6
  19   3  -5-23.6024 117.587   6
  19  -3   6 24.4407 109.467   6
 -19   3  -6 522.214 603.961   1
 -19  -3   6 28.0576 650.035   1
 -19  -3  -6 145.160 531.326   1
  19   3   6 151.308 137.850   7
  19   3  -6 48.1421 160.899   7
  19  -3   6 24.6631 168.416   7
 -19  -3  -6-17.6454 145.135   4
  19  -3  -6 24.6305 164.607   7
 -19  -3   6 18.8035 124.646   4
 -19   3  -6-19.9069 117.796   4
  19   3   6-42.8559 100.828   6
  19   3  -6 47.1329 103.005   6
  19  -3   7 73.5514 126.504   6
  19   3  -7-23.5485 104.618   6
 -19  -3  -7 145.818 521.650   1
 -19  -3   7 56.0412 643.046   1
  19   3   7 76.0150 133.129   7
  19   3  -7-24.0457 152.849   7
  19  -3   7-74.2233 164.749   7
 -19  -3  -7 17.7244 135.177   4
 -19   3  -7 39.9156 122.176   4
 -19  -3   7 19.2703 124.017   4
 -19   3  -7-436.529 622.641   1
  19   3   7-21.5206 109.000   6
 -19  -3  -8-29.3036 518.120   1
  19   3   8 178.467 149.870   7
  19  -3   8 74.4604 176.238   7
 -19  -3  -8 17.8030 149.162   4
 -19   3  -8 20.0167 136.747   4
  19   3   8 64.8632 132.105   6
  19  -3   8-49.1888 136.431   6
  19  -3   9-24.9090 165.538   7
 -19  -3  -9-35.7733 143.823   4
 -19   3  -9-19.5860 128.022   4
  19   3   9-21.7271 108.085   6
  19  -3   9-24.6838 122.164   6
  19  -3  10-75.8871 178.735   7
 -19  -3 -10 17.9687 152.762   4
 -19   3 -10 19.6594 143.586   4
  19   3  10 87.3603 126.284   6
  19  -3  10 49.5439 114.623   6
 -19   3 -11 117.824 608.823   1
  19  -3  11 101.624 161.399   7
 -19  -3 -11-18.0624 145.587   4
 -19   3 -11-19.7305 146.490   4
  19   3  11-21.9504 123.195   6
  19  -3  11-24.8761 110.376   6
  19  -3  12 76.5516 177.973   7
 -19   3 -12-19.8125 146.698   4
  19  -3  12 24.9838 125.017   6
  19  -3  13 25.9092 116.747   7
 -19   3 -13-238.789 149.137   4
  19  -3  13 125.461 133.295   6
 -19   3 -14 59.9582 159.872   4
  19  -3  14-50.4320 139.300   6
  19  -4   0 24.3519 101.814   6
  19   4   0 98.9367 152.729   7
  19  -4   0 24.3997 174.155   7
 -19  -4   0-198.181 162.243   4
  19   4   0-43.3632 113.738   6
 -19   4   0 20.2436 92.2518   4
  19  -4   1-73.0968 108.237   6
  19  -4  -1-24.3412 96.7416   6
  19   4   1-24.8216 143.692   7
  19   4  -1 73.8950 138.342   7
  19  -4  -1 24.7635 180.620   7
 -19  -4  -1 18.0756 137.850   4
 -19  -4   1-35.9277 140.434   4
  19   4   1 108.791 122.228   6
  19   4  -1 159.798 128.229   6
 -19   4   1-20.2460 92.1990   4
 -19   4   2-20.2493 80.6724   4
  19  -4   2-73.1675 102.906   6
 -19  -4  -2 86.0723 544.619   1
  19   4   2-49.8187 146.379   7
  19   4  -2 73.6725 150.360   7
 -19  -4   2-141.615 594.814   1
 -19  -4  -2-18.1350 141.850   4
  19  -4  -2-24.7617 166.773   7
 -19  -4   2 37.1792 153.367   4
  19   4   2-21.8352 116.877   6
  19   4  -2 45.5294 113.151   6
 -19   4  -2-20.2268 102.571   4
 -19   4   3 20.2612 75.3306   4
  19  -4   3-24.4235 108.447   6
 -19  -4  -3-403.284 543.029   1
  19   4   3-100.008 140.383   7
  19   4  -3 48.9970 155.690   7
  19  -4   3 73.4457 175.204   7
 -19  -4  -3-17.5160 135.794   4
  19  -4  -3-24.7705 187.211   7
 -19  -4   3 18.5453 143.766   4
  19   4   3 87.6776 119.187   6
 -19   4  -3 81.0033 108.278   4
  19   4  -3-45.4064 110.427   6
  19  -4   4 24.4595 100.204   6
 -19   4  -4 607.526 599.350   1
 -19  -4  -4 838.974 537.008   1
  19   4   4-50.2132 131.920   7
  19   4  -4-48.8718 141.469   7
 -19  -4  -4-17.5848 145.024   4
  19  -4   4 146.950 189.860   7
 -19  -4   4-479.065 602.276   1
 -19  -4   4-111.041 137.512   4
  19   4   4-21.3322 116.051   6
 -19   4  -4 20.2759 122.485   4
  19   4  -4-22.6525 131.160   6
  19  -4   5-49.0289 119.519   6
 -19  -4  -5-232.421 518.923   1
 -19   4  -5-637.817 602.742   1
  19   4   5 126.290 130.549   7
  19   4  -5 121.988 160.836   7
 -19  -4  -5-35.3052 127.846   4
  19  -4   5-122.740 177.554   7
 -19  -4   5 112.489 600.435   1
 -19  -4   5 37.7092 141.540   4
  19   4   5-85.6994 122.467   6
 -19   4  -5 20.3107 121.268   4
  19   4  -5-23.6307 112.827   6
  19  -4   6 24.5705 119.604   6
 -19  -4  -6-350.174 508.145   1
  19   4   6 25.3758 130.985   7
  19   4  -6-97.4244 151.051   7
 -19  -4  -6 17.7307 136.420   4
  19  -4   6-73.8142 177.838   7
 -19  -4   6 37.6534 136.141   4
 -19   4  -6-174.803 610.469   1
  19   4   6-21.5189 106.950   6
 -19   4  -6 40.7058 117.927   4
  19   4  -6-23.5905 114.848   6
  19  -4   7 24.6365 125.720   6
 -19  -4  -7 322.521 507.906   1
 -19   4  -7-233.676 612.623   1
  19   4   7 254.945 138.758   7
 -19  -4  -7-17.8089 157.481   4
  19  -4   7 172.702 188.716   7
  19   4   7 86.4690 123.364   6
 -19   4  -7 20.0492 143.767   4
  19  -4   8-24.7058 105.718   6
 -19   4  -8 175.784 616.900   1
 -19  -4  -8-17.3907 139.336   4
  19  -4   8-24.9249 175.892   7
 -19   4  -8-20.1000 116.125   4
  19   4   8-43.4471 123.395   6
 -19  -4  -8-324.002 505.675   1
  19  -4   9 24.7834 111.805   6
 -19  -4  -9 17.4696 127.788   4
  19  -4   9 75.0116 171.267   7
 -19   4  -9 146.987 629.264   1
 -19   4  -9 20.1666 128.146   4
  19   4   9 21.6099 104.789   6
  19  -4  10 49.7363 137.817   6
  19  -4  10 225.838 191.433   7
 -19   4 -10 20.2269 133.644   4
  19  -4  11 49.9320 106.602   6
 -19   4 -11 266.114 634.206   1
  19  -4  11 25.1930 170.466   7
 -19   4 -11-20.2998 137.766   4
 -19   4 -12-29.6945 529.724   1
 -19   4 -12-20.3734 143.825   4
  19  -4  12-25.0651 103.778   6
 -19   4 -13-19.9484 136.581   4
  19  -4  13-25.1705 120.780   6
 -19   5   0-20.4004 87.2412   4
 -19  -5   0-229.206 525.138   1
  19   5   0-24.8516 131.374   7
 -19  -5   0 18.1005 145.600   4
  19   5   0-43.5800 119.408   6
 -19   5   1-20.4032 73.1128   4
 -19  -5  -1-143.780 522.202   1
 -19  -5   1-285.550 528.518   1
  19   5   1 124.737 148.570   7
  19   5  -1 24.7670 134.657   7
 -19  -5  -1-17.4854 138.850   4
 -19  -5   1 54.1413 149.868   4
  19  -5  -1-24.9684 166.232   7
  19   5   1-21.8667 118.905   6
  19   5  -1 21.7138 103.406   6
 -19   5  -1-20.4065 95.0597   4
  19  -5   2-49.1494 93.6496   6
 -19  -5  -2 259.834 519.978   1
 -19  -5   2 113.851 531.737   1
  19   5   2 100.328 123.734   7
  19   5  -2 98.7556 146.451   7
 -19  -5  -2 35.0971 137.618   4
  19  -5   2 24.6281 187.287   7
 -19  -5   2 35.9886 138.754   4
  19   5   2 21.2741 117.528   6
  19   5  -2-21.6472 125.178   6
 -19   5  -2 61.2403 93.0134   4
 -19  -5  -3 202.886 492.597   1
  19  -5   3-49.1984 105.310   6
 -19  -5   3 681.074 565.535   1
  19   5   3 125.931 135.928   7
  19   5  -3-24.6140 143.683   7
 -19  -5  -3-52.8333 150.516   4
  19  -5   3-49.3065 182.409   7
 -19  -5   3 297.937 164.290   4
  19   5   3 42.7249 113.782   6
  19   5  -3-22.7933 116.897   6
 -19   5  -3-20.4365 99.1164   4
 -19  -5  -4 87.3043 486.575   1
  19  -5   4 73.9009 106.543   6
 -19  -5   4-56.6116 560.967   1
  19   5   4-75.8567 127.928   7
  19   5  -4 98.1940 150.146   7
 -19  -5  -4-70.7402 149.922   4
  19  -5   4-98.7531 191.313   7
 -19  -5   4 18.5762 143.953   4
  19   5   4 64.3393 112.603   6
  19   5  -4-45.4658 115.015   6
 -19   5  -4-20.4544 93.0107   4
  19  -5   5 24.6691 98.7447   6
  19   5  -5-48.9371 137.930   7
 -19  -5  -5 53.2732 149.011   4
  19  -5   5-24.7335 170.500   7
 -19   5  -5-204.079 596.444   1
 -19  -5   5-74.1539 145.397   4
  19   5   5-43.0957 113.855   6
 -19   5  -5-20.4402 102.213   4
  19   5  -5-22.6814 117.637   6
 -19  -5  -5 204.619 484.592   1
  19  -5   6 24.7240 101.148   6
 -19  -5  -6 69.3384 149.972   4
  19  -5   6 123.776 171.926   7
  19   5   6-42.8476 115.125   6
 -19   5  -6 61.4222 115.737   4
 -19  -5  -6 88.1060 476.750   1
 -19   5  -6-292.163 609.217   1
  19  -5   7-49.5646 112.693   6
 -19  -5  -7 17.4147 148.644   4
  19  -5   7 24.8125 172.335   7
  19   5   7-21.5199 112.996   6
 -19   5  -7-20.5166 105.790   4
  19  -5   8-24.8492 113.965   6
  19  -5   8 348.323 208.520   7
 -19   5  -8-20.5679 128.051   4
  19  -5   9-49.8279 110.629   6
 -19   5  -9 177.126 630.240   1
  19  -5   9 49.9102 152.687   7
 -19   5  -9-20.6205 112.140   4
  19  -5  10 49.9844 115.886   6
  19  -5  10 100.887 188.638   7
 -19   5 -10-20.6862 109.047   4
 -19   5 -10-148.114 645.642   1
  19  -5  11 100.325 118.078   6
  19  -5  11-25.3128 178.479   7
 -19   5 -11 178.151 563.856   1
 -19   5 -11-20.3848 110.369   4
  19  -5  12 25.1769 105.421   6
 -19   5 -12 40.9257 128.768   4
 -19  -6   0 317.321 503.188   1
  19   6   0 75.1297 122.063   7
 -19  -6   0-140.328 137.335   4
  19   6   0 106.236 123.255   6
 -19  -6   1 28.7432 489.805   1
  19   6   1 25.1383 124.721   7
  19   6  -1 74.8512 128.645   7
 -19  -6  -1-70.3896 127.122   4
 -19  -6   1 34.9489 139.792   4
  19   6   1-21.3278 119.719   6
  19   6  -1-21.8415 116.715   6
 -19  -6  -1 28.9665 486.873   1
 -19   6  -2 61.7518 92.3580   4
 -19  -6   2-257.837 509.049   1
  19   6  -2 174.104 141.745   7
 -19  -6  -2-17.6653 136.855   4
 -19  -6   2-18.1021 144.661   4
  19  -6   2-25.2104 187.122   7
  19   6   2 21.4079 116.997   6
  19   6  -2 43.5459 114.913   6
 -19  -6  -2 785.117 486.810   1
 -19   6  -3-41.1859 92.5875   4
 -19  -6   3 28.5565 540.749   1
  19   6  -3-24.7882 116.320   7
 -19  -6  -3 34.4722 140.772   4
  19  -6   3-75.7046 177.666   7
 -19  -6   3-54.1529 151.645   4
  19   6   3 107.509 127.090   6
  19   6  -3-65.0985 126.423   6
  19   6  -4-24.6754 114.967   7
 -19  -6  -4 17.3121 138.592   4
  19  -6   4 74.6337 183.136   7
  19   6   4-42.7424 120.076   6
  19   6  -4-21.6340 128.907   6
 -19   6  -4-20.6094 89.3065   4
  19  -6   5 24.8630 105.032   6
  19  -6   5-49.8310 181.869   7
 -19   6  -5-20.6345 89.6774   4
  19  -6   6 49.7979 98.0299   6
  19  -6   6 124.810 179.852   7
 -19   6  -6-20.6684 97.3458   4
  19  -6   7-49.9099 108.343   6
  19  -6   7-50.0193 173.931   7
 -19   6  -7-20.7034 105.889   4
  19  -6   8-50.0242 99.2657   6
 -19   6  -8 354.485 644.117   1
  19  -6   8 75.1507 177.491   7
 -19   6  -8-20.7442 100.830   4
  19  -6   9 25.0801 100.007   6
  19  -6   9-50.2127 163.630   7
 -19   6  -9-20.7493 105.420   4
  19  -6  10-25.1496 94.7249   6
 -19   6 -10-20.8075 102.394   4
  19  -6  11-25.2259 113.106   6
 -19   6 -11-20.8668 116.414   4
 -19  -7   0-70.6903 148.883   4
  19   7   0-21.4051 124.039   6
 -19  -7  -1-34.4857 142.285   4
 -19  -7   1-17.6131 128.613   4
  19   7   1-42.9774 118.921   6
  19   7  -1 42.6522 119.906   6
 -19  -7   1 231.814 433.207   1
 -19  -7   2-17.5530 142.139   4
  19   7  -2-21.2483 116.274   6
 -19  -7   2-28.8675 476.011   1
 -19   7  -5-20.8048 75.8108   4
 -19   7  -6 20.8288 75.8982   4
 -19   7  -7-20.8645 86.5697   4
  20   0   0 24.6764 126.873   6
  20   0   0 199.170 179.492   7
 -20   0   0 351.772 627.851   1
 -20   0   0-20.1345 128.360   4
  20   0  -1 49.2878 113.606   6
 -20   0  -1 528.686 617.560   1
  20   0   1-24.9391 161.404   7
  20   0  -1-24.8631 183.872   7
 -20   0   1 117.089 629.704   1
 -20   0  -1 78.6594 122.614   4
 -20   0   1 20.1124 123.630   4
  20   0   1-370.780 152.327   6
  20   0  -2 49.2249 127.012   6
 -20   0  -2-382.576 621.463   1
  20   0   2 227.576 182.728   7
  20   0  -2-124.200 181.191   7
 -20   0  -2 39.4033 134.127   4
 -20   0   2 20.0984 132.392   4
 -20   0   2-702.683 646.963   1
  20   0   2-49.5177 127.766   6
  20   0  -3-49.1829 111.952   6
 -20   0   3-526.626 645.184   1
 -20   0  -3 29.4972 604.766   1
  20   0   3-101.398 166.925   7
  20   0  -3 24.8186 174.208   7
 -20   0  -3-19.7374 144.013   4
 -20   0   3 40.1708 129.271   4
  20   0   3 74.4610 123.258   6
  20   0  -4 98.3055 119.765   6
  20   0   4 101.650 173.066   7
  20   0  -4-24.6189 162.250   7
 -20   0  -4-19.7892 144.536   4
 -20   0   4-40.8720 120.262   4
  20   0   4 99.5263 142.074   6
  20   0  -5-122.883 116.677   6
 -20   0   5-584.513 656.511   1
  20   0   5 25.4836 138.100   7
  20   0  -5 49.2206 177.581   7
 -20   0  -5-59.5218 136.914   4
 -20   0   5-20.4405 113.454   4
  20   0   5-24.9506 120.945   6
  20   0  -6-49.1591 126.040   6
  20   0  -6 123.081 165.122   7
 -20   0  -6-58.4799 142.296   4
 -20   0   6 116.928 646.240   1
 -20   0   6-81.7719 109.281   4
  20   0   6-47.8849 122.861   6
 -20   0   7-29.1771 634.914   1
  20   0  -7 49.1937 94.7846   6
  20   0  -7-49.2608 176.362   7
  20   0   7-72.0514 132.863   6
 -20   0   7 20.5061 97.8323   4
  20   0  -8 49.2173 94.0195   6
 -20   0   8-291.939 630.800   1
  20   0  -8 73.9517 187.574   7
 -20   0   8 41.0543 103.102   4
  20   0  -9-74.0028 173.024   7
 -20   0   9 233.796 632.202   1
 -20   0   9-41.1158 97.5050   4
 -20   0  10 41.1833 85.7150   4
  20   0 -10 74.1906 176.074   7
  20  -1   0-49.4705 104.481   6
 -20   1   0-470.524 631.248   1
 -20  -1   0 263.736 636.370   1
  20   1   0-25.1675 173.214   7
  20  -1   0 49.9217 173.571   7
 -20  -1   0-19.6190 137.912   4
 -20   1   0 20.1790 115.337   4
  20   1   0-24.6400 117.563   6
  20  -1   1 24.7678 118.651   6
  20  -1  -1 24.7065 120.898   6
 -20  -1  -1 410.507 620.306   1
 -20  -1   1-234.060 616.901   1
 -20   1   1-234.909 625.269   1
  20   1   1 428.758 195.806   7
  20   1  -1 150.743 186.946   7
  20  -1   1 24.9941 182.684   7
  20  -1  -1-24.7433 179.256   7
 -20  -1  -1 19.6562 145.513   4
 -20  -1   1 19.5922 141.110   4
 -20   1  -1 20.2084 127.558   4
 -20   1   1 20.1652 117.499   4
 -20   1  -1 589.017 633.217   1
  20   1   1 24.6921 128.068   6
  20   1  -1 24.6065 129.975   6
  20   1  -2-24.5652 121.982   6
  20  -1   2 24.8100 120.710   6
 -20  -1  -2-558.415 610.283   1
  20  -1  -2-24.6852 101.125   6
 -20  -1   2 817.933 647.439   1
  20   1   2 126.375 173.819   7
  20   1  -2 123.979 177.482   7
  20  -1   2-50.0740 168.562   7
 -20   1   2-733.550 652.274   1
  20  -1  -2-49.4428 178.643   7
 -20   1  -2-235.655 613.062   1
 -20  -1  -2 59.0801 155.178   4
 -20  -1   2 60.2043 129.148   4
 -20   1  -2 20.2370 136.283   4
 -20   1   2-20.5084 117.012   4
  20   1   2-49.4887 120.392   6
  20   1  -3-24.5430 126.550   6
  20  -1  -3 24.6743 106.735   6
 -20  -1   3 1021.24 642.775   1
  20   1   3-76.0143 162.937   7
 -20   1  -3 649.551 613.062   1
  20   1  -3-24.7642 180.565   7
  20  -1   3 250.882 174.254   7
  20  -1  -3-24.7099 175.093   7
 -20  -1  -3-77.3715 134.358   4
 -20   1  -3-20.2748 145.074   4
 -20  -1   3 20.0509 124.257   4
 -20   1   3-20.5037 123.762   4
 -20  -1  -3-294.691 603.461   1
 -20   1   3 234.576 628.678   1
  20   1   3-74.4377 125.549   6
  20  -1   3 49.7233 101.730   6
  20   1  -4-24.5175 120.655   6
  20  -1  -4-49.3395 102.669   6
 -20   1   4-204.722 632.009   1
 -20   1  -4-562.268 632.727   1
  20   1   4-51.3606 177.528   7
  20   1  -4-24.7383 169.321   7
  20  -1  -4-24.7090 165.532   7
 -20  -1   4 320.616 642.358   1
 -20  -1  -4-19.3932 157.450   4
 -20   1  -4-59.4269 131.727   4
 -20  -1  -4 29.5566 593.349   1
 -20  -1   4 140.268 139.028   4
 -20   1   4 20.5076 107.398   4
  20   1   4-95.1723 124.107   6
  20  -1   4-49.8434 114.872   6
  20   1  -5 73.5233 119.433   6
  20  -1  -5-24.6711 95.1934   6
  20   1   5 25.7625 117.450   7
  20   1  -5-24.7283 166.622   7
  20  -1  -5-123.551 190.097   7
 -20   1   5 409.519 635.887   1
 -20  -1  -5 19.4495 154.615   4
 -20   1  -5 19.8528 132.413   4
 -20  -1   5-641.779 647.232   1
 -20  -1   5-80.1384 121.217   4
  20   1   5-47.7375 116.336   6
 -20   1   5-20.5604 112.063   4
  20  -1   5 49.9655 131.442   6
  20   1  -6-98.0142 116.608   6
  20  -1  -6 24.6837 97.9789   6
 -20   1   6-819.402 645.977   1
  20   1  -6 98.8950 180.265   7
  20  -1  -6-24.7496 177.081   7
 -20  -1  -6 97.5295 179.480   4
 -20   1  -6 19.9043 139.653   4
 -20  -1   6 20.3897 116.226   4
  20   1   6-71.8265 138.523   6
 -20   1   6 20.5752 93.5672   4
  20  -1   6 75.1585 129.170   6
 -20  -1   6-320.826 643.806   1
  20   1  -7-24.5103 108.766   6
 -20  -1   7 408.338 639.259   1
  20   1  -7 49.4608 168.220   7
  20  -1  -7 24.7684 166.676   7
 -20  -1   7-20.3927 105.145   4
 -20   1   7 20.5954 89.0847   4
 -20   1   8 82.4697 85.8771   4
  20   1  -8 24.5203 103.985   6
 -20  -1   8 408.537 645.640   1
  20   1  -8 73.6698 177.805   7
  20  -1  -8 123.949 203.113   7
 -20  -1   8 20.4121 117.597   4
  20   1  -9-24.5352 91.1234   6
  20   1  -9 24.5785 172.453   7
  20  -1  -9 24.8229 192.369   7
 -20  -1   9-20.4813 99.5880   4
  20  -1 -10-24.8681 178.752   7
  20  -2   0-24.8298 107.757   6
  20   2   0-25.1698 165.890   7
  20  -2   0-24.8659 163.893   7
 -20  -2   0-19.6259 149.835   4
 -20   2   0 41.2127 110.464   4
  20   2   0 24.6482 122.604   6
  20  -2   1 24.8521 107.920   6
  20  -2  -1 49.6159 107.730   6
 -20   2   1 88.1885 616.008   1
 -20   2  -1-708.445 633.641   1
  20   2   1 101.976 169.956   7
  20   2  -1-50.2329 171.116   7
  20  -2   1-99.5849 186.742   7
  20  -2  -1 99.3757 183.061   7
 -20  -2  -1 57.8228 136.914   4
 -20  -2   1-19.5961 144.518   4
 -20  -2  -1-469.828 610.493   1
 -20   2  -1 20.6282 132.995   4
 -20   2   1 41.1886 124.670   4
  20   2   1 23.6276 119.930   6
  20   2  -1 49.1926 134.018   6
 -20  -2   1-964.877 625.621   1
  20  -2   2-24.8923 107.689   6
  20  -2  -2-24.7963 107.274   6
 -20  -2   2-29.1771 630.246   1
 -20   2  -2-354.767 621.532   1
  20   2   2 76.6736 162.390   7
  20   2  -2 25.0731 159.311   7
  20  -2   2-24.9291 186.754   7
  20  -2  -2-99.3284 177.683   7
 -20  -2  -2 206.003 599.094   1
 -20  -2  -2 38.6360 139.562   4
 -20  -2   2 19.5636 124.318   4
 -20   2   2-558.140 627.131   1
 -20   2  -2 20.2917 117.426   4
 -20   2   2-20.5894 100.116   4
  20   2   2 23.6864 115.164   6
  20   2  -2-24.5542 116.868   6
  20  -2   3-124.672 127.482   6
 -20   2  -3 622.035 637.382   1
  20  -2  -3-74.3574 103.054   6
 -20  -2   3-612.813 632.595   1
  20   2   3-51.2617 142.781   7
  20   2  -3-25.0401 162.055   7
 -20  -2  -3-147.591 588.208   1
  20  -2  -3 24.8485 183.760   7
 -20  -2  -3 19.3612 144.925   4
 -20  -2   3-39.0843 132.786   4
 -20   2   3 528.617 629.248   1
 -20   2  -3-20.3213 140.895   4
  20   2   3-23.7536 112.066   6
 -20   2   3-20.6406 106.035   4
  20   2  -3 73.5512 136.682   6
  20   2  -4-24.4952 133.493   6
  20  -2   4 49.9723 121.862   6
  20  -2  -4-24.7859 101.892   6
 -20  -2   4 349.781 642.194   1
 -20   2   4 205.529 615.972   1
  20   2  -4 125.061 194.078   7
  20  -2  -4-99.3943 184.764   7
 -20  -2  -4-19.4183 172.612   4
 -20  -2   4 120.151 140.847   4
 -20   2  -4-40.7176 128.145   4
  20   2   4 71.4532 123.201   6
 -20   2   4-20.6452 100.851   4
  20  -2   5-25.0375 124.741   6
  20   2  -5-48.9398 119.496   6
 -20  -2   5-320.228 659.997   1
  20   2  -5 24.9860 162.967   7
  20  -2  -5-99.4386 176.517   7
 -20  -2  -5-18.7710 147.097   4
 -20   2  -5 20.4043 147.831   4
 -20  -2   5-20.0089 122.918   4
  20   2   5 47.8030 128.224   6
 -20   2   5-20.6589 105.150   4
 -20   2   6-20.6782 90.6430   4
  20   2  -6 24.4634 109.549   6
 -20  -2   6-116.387 651.463   1
  20   2  -6 24.6842 166.759   7
  20  -2  -6-149.263 178.597   7
 -20  -2  -6-18.8304 143.049   4
 -20   2  -6 40.8990 147.051   4
 -20  -2   6-20.0060 127.953   4
  20   2   6-45.4292 113.649   6
  20  -2   6-25.1083 130.285   6
 -20   2   7 20.7024 72.8762   4
  20   2  -7 48.9196 109.666   6
 -20  -2   7-407.296 646.899   1
  20   2  -7-24.6740 166.778   7
  20  -2  -7-24.9015 173.658   7
 -20  -2   7 101.806 131.864   4
  20   2  -8 122.299 126.434   6
  20   2  -8 98.7272 188.235   7
  20  -2  -8-49.8646 181.818   7
  20  -3   0-24.9452 105.232   6
 -20   3   0-708.801 624.369   1
  20   3   0 101.915 151.831   7
 -20  -3   0 352.264 599.753   1
  20  -3   0 25.0120 173.847   7
 -20  -3   0 19.2626 139.306   4
 -20   3   0 20.7037 106.961   4
  20   3   0-23.6116 104.995   6
  20  -3   1-49.9316 111.111   6
  20  -3  -1 24.9334 99.3282   6
 -20  -3  -1-117.734 601.375   1
  20   3   1 102.170 160.509   7
 -20   3  -1-29.5660 613.268   1
  20   3  -1 25.4247 147.340   7
  20  -3   1 25.0074 131.572   7
  20  -3  -1-74.9705 189.023   7
 -20  -3   1 410.171 611.175   1
 -20  -3  -1-19.3061 146.132   4
 -20  -3   1-19.2262 136.498   4
 -20   3  -1-20.7174 105.166   4
  20   3   1 71.0104 122.334   6
 -20   3   1-20.7460 107.303   4
  20   3  -1 23.5572 119.489   6
  20  -3   2-24.9979 118.076   6
  20  -3  -2-49.8443 100.953   6
 -20  -3  -2-236.090 569.615   1
  20   3   2 256.152 165.939   7
  20   3  -2 25.3716 152.382   7
 -20  -3  -2-19.3564 153.766   4
 -20  -3   2 78.3558 149.389   4
 -20  -3   2 263.078 601.722   1
 -20   3  -2 20.7392 116.336   4
  20   3   2 23.7283 121.733   6
  20   3  -2 49.1511 123.580   6
 -20   3   2-20.7410 98.6173   4
  20  -3   3 25.0302 105.555   6
 -20  -3  -3-532.776 563.375   1
  20   3   3-25.7127 144.453   7
  20   3  -3-25.3230 161.000   7
 -20  -3  -3-18.7051 140.258   4
 -20  -3   3 58.6803 144.065   4
 -20  -3   3 641.946 625.649   1
 -20   3  -3 20.7616 127.140   4
  20   3   3 45.0875 120.619   6
  20   3  -3-24.5342 116.914   6
 -20   3   3 20.7446 94.5351   4
 -20   3   4-20.7568 80.0078   4
  20  -3   4 50.1636 102.796   6
 -20  -3  -4 89.0860 494.791   1
  20   3  -4-75.0679 159.089   7
 -20  -3  -4-56.2985 145.553   4
 -20  -3   4-19.5350 138.555   4
 -20   3  -4-20.7920 140.052   4
 -20  -3   4 670.340 663.213   1
  20   3   4 67.8336 110.082   6
  20   3  -4 73.5163 148.024   6
 -20   3   5-20.7779 85.4166   4
  20   3  -5 249.951 174.471   7
  20  -3  -5 25.3912 184.178   7
 -20  -3  -5 18.8260 150.172   4
 -20  -3   5 19.5178 146.784   4
  20   3   5 90.7553 130.907   6
 -20  -3   5 553.025 641.910   1
  20   3  -5-48.9403 125.127   6
  20   3  -6 48.9073 132.954   6
  20   3  -6 99.8804 162.510   7
  20  -3  -6-177.959 193.788   7
 -20  -3   6 20.0096 133.242   4
  20   3  -7 24.4401 139.462   6
  20   3  -7 249.573 186.260   7
  20  -4   0-50.1944 105.703   6
 -20  -4   0-29.4671 563.127   1
  20   4   0 76.7168 156.441   7
 -20  -4   0 115.939 134.248   4
  20   4   0-71.0043 124.308   6
 -20   4   0-20.8638 87.8960   4
  20  -4   1-75.3296 115.185   6
 -20  -4   1-146.950 564.666   1
  20   4   1-25.6439 151.207   7
  20   4  -1-51.0199 143.918   7
 -20  -4  -1-18.6731 154.438   4
 -20  -4   1-173.524 161.565   4
  20   4   1 22.4783 115.278   6
  20   4  -1 47.2377 113.734   6
 -20   4   1-20.8667 90.2280   4
 -20   4   2-20.8694 79.2430   4
 -20  -4  -2 148.151 553.358   1
 -20  -4   2-615.666 601.284   1
  20   4   2 25.7150 131.153   7
  20   4  -2 152.558 158.417   7
 -20  -4  -2 18.7205 150.667   4
 -20  -4   2-57.7225 139.969   4
  20   4   2 22.5406 117.392   6
  20   4  -2 94.2582 120.370   6
 -20   4   3-20.8806 66.9320   4
 -20  -4  -3 356.711 501.557   1
  20   4   3 25.8041 109.480   7
 -20  -4   3 146.359 620.993   1
  20   4  -3-76.1311 145.283   7
 -20  -4  -3-37.5476 154.208   4
 -20  -4   3-96.0618 139.445   4
  20   4   3 45.2373 119.536   6
  20   4  -3-47.0333 117.463   6
  20   4  -4 278.691 172.481   7
 -20  -4   4-262.896 616.021   1
 -20  -4  -4-56.4991 150.599   4
 -20  -4   4 58.7160 138.423   4
  20   4   4-22.6868 119.849   6
  20   4  -4 24.5467 124.549   6
  20   4  -5 25.2911 144.377   7
 -20  -4   5-233.365 632.804   1
 -20  -4   5-19.5538 125.993   4
  20   4  -5-24.5103 121.863   6
  20   4  -6 151.585 198.338   7
  20   5   0 282.503 179.112   7
 -20  -5   0 112.246 168.713   4
  20   5   0 22.5102 149.074   6
 -20  -5  -1 178.168 517.882   1
 -20  -5   1 324.823 527.352   1
  20   5   1 206.373 149.237   7
  20   5  -1-25.6122 139.181   7
 -20  -5  -1-18.7575 153.463   4
 -20  -5   1-74.6433 151.545   4
  20   5   1-45.1515 116.385   6
  20   5  -1-22.4491 127.947   6
 -20  -5  -2-119.109 457.093   1
 -20  -5   2-353.452 547.794   1
  20   5  -2-25.5455 140.011   7
 -20  -5  -2-18.8097 151.557   4
 -20  -5   2-19.3142 149.547   4
  20   5   2-67.9311 122.348   6
  20   5  -2 23.6500 121.025   6
 -20  -5   3 411.501 569.585   1
  20   5  -3 25.4879 137.703   7
 -20  -5  -3 108.964 146.695   4
 -20  -5   3-19.2797 159.053   4
  20   5   3-22.0185 111.122   6
  20   5  -3 47.1931 129.846   6
 -20  -5   4 322.652 565.309   1
  20   5  -4-178.079 162.522   7
 -20  -5   4 38.4957 143.932   4
  20   5  -4 23.5520 113.370   6
  20   5  -5-76.1806 152.007   7
 -20  -6   0 18.8102 168.391   4
  20   6   0-45.2595 131.467   6
 -20  -6   1 386.107 500.083   1
  20   6  -1 25.7834 132.958   7
 -20  -6  -1 18.1576 137.233   4
 -20  -6   1-112.593 158.010   4
  20   6   1 21.9962 109.161   6
  20   6  -1 45.1313 118.509   6
 -20  -6   2 296.287 522.579   1
  20   6  -2-25.7188 123.353   7
 -20  -6  -2-54.6154 162.291   4
 -20  -6   2-187.161 159.289   4
  20   6   2-22.0716 117.639   6
  20   6  -2 22.5009 106.571   6
 -20  -6   3-265.946 521.999   1
  20   6  -3 25.6541 119.467   7
 -20  -6   3 18.6795 134.994   4
  20   6  -3-47.4124 133.124   6
 -20  -7   0-54.6882 139.569   4
  20   7   0-44.1482 120.795   6
 -20  -7   1-199.965 159.581   4
  20   7  -1 68.1224 130.180   6
 -20  -7   2 207.235 169.341   4
  20   7  -2-45.2917 142.468   6
  21   2  -7 25.2541 109.345   6
 -21  -2   7-42.0527 119.957   4
  21   3  -6 100.998 169.456   6
 -21  -3   6 41.3154 136.896   4
   0   0   0    0.00    0.00   0

TITL GKME_2_ in P4/mnc
REM P4/mnc (#128 in standard setting)
CELL 0.68890  19.177256  19.177256  32.827499  90.0000  90.0000  90.0000
ZERR   16.00   0.002098   0.002098   0.005289   0.0000   0.0000   0.0000
LATT  1
SYMM -x,-y, z
SYMM -y, x, z
SYMM  y,-x, z
SYMM -x+1/2, y+1/2,-z+1/2
SYMM  x+1/2,-y+1/2,-z+1/2
SYMM  y+1/2, x+1/2,-z+1/2
SYMM -y+1/2,-x+1/2,-z+1/2
SFAC C H O Hf
UNIT 704.00 576.00 128.00 16.00
TREF
HKLF 4
END
;
_shelx_hkl_checksum              31023
_shelx_shelxl_version_number     2014/7
_olex2_submission_special_instructions 'No special instructions were received'
_oxdiff_exptl_absorpt_empirical_details
;
Empirical correction (ABSPACK) includes:
- Frame scaling
;
_oxdiff_exptl_absorpt_empirical_full_max 1.286
_oxdiff_exptl_absorpt_empirical_full_min 0.751
loop_
_space_group_symop_operation_xyz
'x, y, z'
'-x, -y, z'
'-y, x, z'
'y, -x, z'
'-x+1/2, y+1/2, -z+1/2'
'x+1/2, -y+1/2, -z+1/2'
'y+1/2, x+1/2, -z+1/2'
'-y+1/2, -x+1/2, -z+1/2'
'-x, -y, -z'
'x, y, -z'
'y, -x, -z'
'-y, x, -z'
'x-1/2, -y-1/2, z-1/2'
'-x-1/2, y-1/2, z-1/2'
'-y-1/2, -x-1/2, z-1/2'
'y-1/2, x-1/2, z-1/2'
loop_
_atom_site_label
_atom_site_type_symbol
_atom_site_fract_x
_atom_site_fract_y
_atom_site_fract_z
_atom_site_U_iso_or_equiv
_atom_site_adp_type
_atom_site_occupancy
_atom_site_site_symmetry_order
_atom_site_calc_flag
_atom_site_refinement_flags_posn
_atom_site_refinement_flags_adp
_atom_site_refinement_flags_occupancy
_atom_site_disorder_assembly
_atom_site_disorder_group
Hf1 Hf -0.04296(18) 0.12270(18) 0.0000 0.0812(17) Uani 1 2 d DS TU P . .
Hf2 Hf 0.0000 0.0000 0.07448(10) 0.0708(19) Uani 1 4 d DS TU P . .
O1 O -0.0200(13) 0.0936(10) 0.1075(7) 0.048(7) Uiso 1 1 d D U . . .
O4 O -0.0811(13) 0.0330(14) 0.0358(7) 0.041(7) Uiso 1 1 d . U . . .
O13 O -0.0640(15) 0.1609(15) 0.0614(5) 0.070(9) Uiso 1 1 d D U . . .
O19 O -0.155(2) 0.156(2) 0.0000 0.065(12) Uiso 1 2 d S TU P . .
O20 O 0.006(3) 0.232(3) 0.0000 0.103(17) Uiso 1 2 d S TU P . .
C3 C -0.0704(8) 0.3071(16) 0.1909(11) 0.079(13) Uiso 1 1 d D U . . .
C4 C -0.0861(14) 0.3278(14) 0.1513(12) 0.114(17) Uiso 1 1 d D U . . .
H4 H -0.0990 0.3731 0.1447 0.136 Uiso 1 1 calc R . . . .
C5 C -0.0809(15) 0.275(2) 0.1226(8) 0.14(2) Uiso 1 1 d D U . . .
H5 H -0.0907 0.2854 0.0955 0.173 Uiso 1 1 calc R . . . .
C6 C -0.0633(9) 0.2130(17) 0.1315(11) 0.099(15) Uiso 1 1 d D U . . .
C7 C -0.0477(13) 0.1924(14) 0.1710(13) 0.097(16) Uiso 1 1 d D U . . .
H7 H -0.0348 0.1471 0.1777 0.116 Uiso 1 1 calc R . . . .
C8 C -0.0530(13) 0.245(2) 0.1998(8) 0.095(16) Uiso 1 1 d D U . . .
H8 H -0.0432 0.2349 0.2269 0.114 Uiso 1 1 calc R . . . .
C9 C -0.0779(11) 0.3657(13) 0.2165(8) 0.085(14) Uiso 1 1 d D U . . .
C16 C -0.0219(13) 0.4111(14) 0.2206(9) 0.038(17) Uiso 0.5 1 d DG U . A -2
C15 C -0.022(3) 0.461(3) 0.2515(18) 0.07(2) Uiso 0.5 1 d DG U . A .
C15D C -0.078(3) 0.465(4) 0.278(2) 0.050 Uiso 0 1 d G . . A .
C9D C -0.134(3) 0.420(4) 0.2741(19) 0.050 Uiso 0 1 d DG . . A .
C10 C -0.1340(15) 0.370(2) 0.2432(12) 0.13(3) Uiso 0.5 1 d DG U . A -1
C11 C -0.1919(16) 0.323(3) 0.2390(17) 0.14(4) Uiso 0.5 1 d D U . A -1
H11A H -0.1981 0.3114 0.2107 0.210 Uiso 0.5 1 calc GR . . A -1
H11B H -0.2334 0.3446 0.2492 0.210 Uiso 0.5 1 calc GR . . A -1
H11C H -0.1828 0.2810 0.2542 0.210 Uiso 0.5 1 calc GR . . A -1
C12 C -0.0570(12) 0.1570(12) 0.1040(6) 0.076(13) Uiso 1 1 d D U . . .
C17 C 0.0355(13) 0.413(2) 0.1971(12) 0.18(3) Uiso 1 1 d D U . A -2
H H 0.0759 0.4193 0.2139 0.269 Uiso 1 1 calc GR . . . .
HA H 0.0319 0.4511 0.1782 0.269 Uiso 1 1 calc GR . . . .
HB H 0.0395 0.3700 0.1823 0.269 Uiso 1 1 calc GR . . . .
loop_
_atom_site_aniso_label
_atom_site_aniso_U_11
_atom_site_aniso_U_22
_atom_site_aniso_U_33
_atom_site_aniso_U_23
_atom_site_aniso_U_13
_atom_site_aniso_U_12
Hf1 0.114(4) 0.099(3) 0.0304(17) 0.000 0.000 0.015(2)
Hf2 0.094(3) 0.094(3) 0.024(2) 0.000 0.000 0.000
loop_
_atom_type_symbol
_atom_type_description
_atom_type_scat_dispersion_real
_atom_type_scat_dispersion_imag
_atom_type_scat_source
C C 0.0030 0.0010 'International Tables Vol C Tables 4.2.6.8 and 6.1.1.4'
H H 0.0000 0.0000 'International Tables Vol C Tables 4.2.6.8 and 6.1.1.4'
Hf Hf -0.2930 6.1080 'International Tables Vol C Tables 4.2.6.8 and 6.1.1.4'
O O 0.0110 0.0060 'International Tables Vol C Tables 4.2.6.8 and 6.1.1.4'
loop_
_geom_angle_atom_site_label_1
_geom_angle_atom_site_label_2
_geom_angle_atom_site_label_3
_geom_angle
_geom_angle_site_symmetry_1
_geom_angle_site_symmetry_3
Hf1 Hf1 Hf1 90.0 11 3
Hf2 Hf1 Hf1 59.68(3) 9 11
Hf2 Hf1 Hf1 59.68(3) . 3
Hf2 Hf1 Hf1 59.68(3) 9 3
Hf2 Hf1 Hf1 59.68(3) . 11
Hf2 Hf1 Hf2 88.88(11) 9 .
O4 Hf1 Hf1 87.6(7) 4 3
O4 Hf1 Hf1 35.4(7) 4 11
O4 Hf1 Hf1 32.3(6) . 3
O4 Hf1 Hf1 32.3(6) 10 3
O4 Hf1 Hf1 87.8(7) . 11
O4 Hf1 Hf1 87.6(7) 11 3
O4 Hf1 Hf1 87.8(7) 10 11
O4 Hf1 Hf1 35.4(7) 11 11
O4 Hf1 Hf2 85.8(6) 10 .
O4 Hf1 Hf2 88.4(7) 11 .
O4 Hf1 Hf2 85.7(6) . 9
O4 Hf1 Hf2 33.1(7) 4 .
O4 Hf1 Hf2 88.4(7) 4 9
O4 Hf1 Hf2 35.0(6) . .
O4 Hf1 Hf2 33.1(7) 11 9
O4 Hf1 Hf2 35.0(6) 10 9
O4 Hf1 O4 70.6(13) 4 11
O4 Hf1 O4 64.3(12) . 10
O4 Hf1 O4 68.0(13) 4 .
O4 Hf1 O4 68.0(13) 11 10
O4 Hf1 O4 103.9(13) 4 10
O4 Hf1 O4 103.9(13) 11 .
O4 Hf1 O13 74.4(10) 4 .
O4 Hf1 O13 142.9(10) 11 .
O4 Hf1 O13 142.9(10) 4 10
O4 Hf1 O13 74.4(10) 11 10
O4 Hf1 O19 142.9(7) 11 .
O4 Hf1 O19 84.3(11) . .
O4 Hf1 O19 142.9(7) 4 .
O4 Hf1 O19 84.3(11) 10 .
O4 Hf1 O20 93.8(12) 11 .
O4 Hf1 O20 147.8(6) . .
O4 Hf1 O20 93.8(12) 4 .
O4 Hf1 O20 147.8(6) 10 .
O13 Hf1 Hf1 102.8(8) . 3
O13 Hf1 Hf1 108.2(8) . 11
O13 Hf1 Hf1 108.2(8) 10 11
O13 Hf1 Hf1 102.8(8) 10 3
O13 Hf1 Hf2 67.8(8) 10 9
O13 Hf1 Hf2 67.8(8) . .
O13 Hf1 Hf2 156.4(8) . 9
O13 Hf1 Hf2 156.4(8) 10 .
O13 Hf1 O4 133.8(10) 10 .
O13 Hf1 O4 73.0(10) 10 10
O13 Hf1 O4 73.0(10) . .
O13 Hf1 O4 133.8(10) . 10
O13 Hf1 O13 134.9(15) . 10
O13 Hf1 O19 74.2(8) 10 .
O13 Hf1 O19 74.2(8) . .
O13 Hf1 O20 76.7(9) . .
O13 Hf1 O20 76.7(9) 10 .
O19 Hf1 Hf1 80.7(11) . 3
O19 Hf1 Hf1 170.7(11) . 11
O19 Hf1 Hf2 114.6(7) . .
O19 Hf1 Hf2 114.6(7) . 9
O19 Hf1 O20 97.7(16) . .
O20 Hf1 Hf1 178.3(12) . 3
O20 Hf1 Hf1 91.7(12) . 11
O20 Hf1 Hf2 121.3(7) . 9
O20 Hf1 Hf2 121.3(7) . .
Hf1 Hf2 Hf1 91.12(11) . 9
Hf1 Hf2 Hf1 91.12(11) 3 11
Hf1 Hf2 Hf1 60.64(6) . 11
Hf1 Hf2 Hf1 60.64(6) . 3
Hf1 Hf2 Hf1 60.64(6) 3 9
Hf1 Hf2 Hf1 60.64(6) 9 11
O1 Hf2 Hf1 115.7(6) . 3
O1 Hf2 Hf1 165.0(7) 3 11
O1 Hf2 Hf1 115.7(6) 3 9
O1 Hf2 Hf1 75.3(6) 4 11
O1 Hf2 Hf1 165.0(7) . 9
O1 Hf2 Hf1 106.2(7) 2 3
O1 Hf2 Hf1 115.7(6) 4 .
O1 Hf2 Hf1 106.2(7) 3 .
O1 Hf2 Hf1 106.2(7) . 11
O1 Hf2 Hf1 115.7(6) 2 11
O1 Hf2 Hf1 165.0(7) 4 3
O1 Hf2 Hf1 106.2(7) 4 9
O1 Hf2 Hf1 75.3(6) 2 9
O1 Hf2 Hf1 75.3(6) 3 3
O1 Hf2 Hf1 165.0(7) 2 .
O1 Hf2 Hf1 75.3(6) . .
O1 Hf2 O1 75.0(6) 4 .
O1 Hf2 O1 118.8(13) 2 .
O1 Hf2 O1 75.0(6) 3 .
O1 Hf2 O1 118.8(13) 4 3
O1 Hf2 O1 75.0(6) 3 2
O1 Hf2 O1 75.0(6) 4 2
O4 Hf2 Hf1 37.0(7) . .
O4 Hf2 Hf1 87.4(7) . 9
O4 Hf2 Hf1 90.3(7) 2 3
O4 Hf2 Hf1 37.0(7) 3 3
O4 Hf2 Hf1 37.0(7) 2 9
O4 Hf2 Hf1 87.4(7) 4 3
O4 Hf2 Hf1 37.0(7) 4 11
O4 Hf2 Hf1 90.3(7) 4 9
O4 Hf2 Hf1 90.3(7) . 11
O4 Hf2 Hf1 31.9(7) 2 11
O4 Hf2 Hf1 87.4(7) 2 .
O4 Hf2 Hf1 87.4(7) 3 11
O4 Hf2 Hf1 31.9(7) . 3
O4 Hf2 Hf1 31.9(7) 4 .
O4 Hf2 Hf1 90.3(7) 3 .
O4 Hf2 Hf1 31.9(7) 3 9
O4 Hf2 O1 133.9(11) 2 .
O4 Hf2 O1 74.9(10) 4 .
O4 Hf2 O1 151.0(10) 2 3
O4 Hf2 O1 133.9(11) 3 4
O4 Hf2 O1 133.9(11) 4 3
O4 Hf2 O1 151.0(10) 4 2
O4 Hf2 O1 85.4(10) . .
O4 Hf2 O1 151.0(10) 3 .
O4 Hf2 O1 85.4(10) 3 3
O4 Hf2 O1 85.4(10) 4 4
O4 Hf2 O1 85.4(10) 2 2
O4 Hf2 O1 74.9(10) 2 4
O4 Hf2 O1 74.9(10) . 3
O4 Hf2 O1 133.9(11) . 2
O4 Hf2 O1 151.0(10) . 4
O4 Hf2 O1 74.9(10) 3 2
O4 Hf2 O4 105.8(13) 3 4
O4 Hf2 O4 68.7(7) 3 2
O4 Hf2 O4 68.7(7) 3 .
O4 Hf2 O4 68.7(7) 4 2
O4 Hf2 O4 105.8(13) 2 .
O4 Hf2 O4 68.7(7) 4 .
C12 O1 Hf2 140.6(17) . .
Hf1 O4 Hf1 112.4(10) 3 .
Hf1 O4 Hf2 115.0(12) 3 .
Hf2 O4 Hf1 108.1(11) . .
C12 O13 Hf1 152(2) . .
C4 C3 C9 108(3) . .
C8 C3 C4 122.8(10) . .
C8 C3 C9 129(3) . .
C3 C4 H4 122.8 . .
C5 C4 C3 114(2) . .
C5 C4 H4 122.9 . .
C4 C5 H5 118.5 . .
C6 C5 C4 123(3) . .
C6 C5 H5 118.5 . .
C5 C6 C7 122.7(10) . .
C5 C6 C12 126(3) . .
C7 C6 C12 111(3) . .
C6 C7 H7 122.9 . .
C6 C7 C8 114(2) . .
C8 C7 H7 122.9 . .
C3 C8 C7 123(3) . .
C3 C8 H8 118.5 . .
C7 C8 H8 118.4 . .
C16 C9 C3 118.6(11) . .
C10 C9 C3 120.1(14) . .
C9 C16 C15 120.0 . .
C17 C16 C9 126.4(2) . .
C17 C16 C15 113.6(2) . .
C16 C15 C15 116(5) . 8
C16 C15 C15 127(2) . 2_565
C15 C15 C16 109(10) 7_455 .
C15 C15 C15 89(2) 7_455 8
C15 C15 C15 75(5) 7_455 2_565
C15 C15 C15 16(7) 8 2_565
C15 C15 C15D 63(10) 7_455 .
C15D C15 C16 120.0 . .
C15D C15 C15 123(5) . 8
C15D C15 C15 109(4) . 2_565
C9 C15D C15 131(2) 7_455 .
C9 C15D C9D 13(3) 7_455 .
C15 C15D C9 134(5) 7_455 7_455
C15 C15D C15 20(7) 7_455 .
C15 C15D C9D 120.0 . .
C15 C15D C9D 121(4) 7_455 .
C9 C9D C15D 80(9) 7_455 .
C9 C9D C10 146(10) 7_455 .
C10 C9D C15D 120.0 . .
C9 C10 C11 120.0(2) . .
C9D C10 C9 120.0 . .
C9D C10 C11 120.0(2) . .
C10 C11 H11A 109.4 . .
C10 C11 H11B 109.5 . .
C10 C11 H11C 109.5 . .
H11A C11 H11B 109.5 . .
H11A C11 H11C 109.5 . .
H11B C11 H11C 109.5 . .
O13 C12 O1 100(2) . .
O13 C12 C6 126(2) . .
C6 C12 O1 130(2) . .
C16 C17 H 109.4 . .
C16 C17 HA 109.5 . .
C16 C17 HB 109.5 . .
H C17 HA 109.5 . .
H C17 HB 109.5 . .
HA C17 HB 109.5 . .
loop_
_geom_bond_atom_site_label_1
_geom_bond_atom_site_label_2
_geom_bond_distance
_geom_bond_site_symmetry_2
Hf1 Hf1 3.526(5) 3
Hf1 Hf1 3.526(5) 11
Hf1 Hf2 3.492(3) .
Hf1 Hf2 3.492(3) 9
Hf1 O4 2.03(2) 11
Hf1 O4 2.03(2) 4
Hf1 O4 2.21(3) 10
Hf1 O4 2.21(3) .
Hf1 O13 2.183(16) .
Hf1 O13 2.183(16) 10
Hf1 O19 2.24(4) .
Hf1 O20 2.29(5) .
Hf2 Hf1 3.492(3) 11
Hf2 Hf1 3.492(3) 9
Hf2 Hf1 3.492(3) 3
Hf2 O1 2.132(15) 2
Hf2 O1 2.132(15) .
Hf2 O1 2.132(15) 4
Hf2 O1 2.132(15) 3
Hf2 O4 2.11(2) 2
Hf2 O4 2.11(2) 4
Hf2 O4 2.11(2) 3
Hf2 O4 2.11(2) .
O1 C12 1.412(9) .
O4 Hf1 2.03(2) 3
O13 C12 1.405(9) .
C3 C4 1.39(4) .
C3 C8 1.26(4) .
C3 C9 1.411(6) .
C4 H4 0.9300 .
C4 C5 1.389(10) .
C5 H5 0.9300 .
C5 C6 1.27(4) .
C6 C7 1.39(4) .
C6 C12 1.410(6) .
C7 H7 0.9300 .
C7 C8 1.392(10) .
C8 H8 0.9300 .
C9 C16 1.3900 .
C9 C10 1.3900 .
C16 C15 1.3900 .
C16 C17 1.345(4) .
C15 C15 1.66(7) 8
C15 C15 0.48(15) 7_455
C15 C15 1.72(7) 2_565
C15 C15D 1.3900 .
C15D C9 1.37(5) 7_455
C15D C15 1.25(9) 7_455
C15D C9D 1.3900 .
C9D C9 0.31(7) 7_455
C9D C10 1.3900 .
C10 C11 1.438(4) .
C11 H11A 0.9601 .
C11 H11B 0.9601 .
C11 H11C 0.9601 .
C17 H 0.9600 .
C17 HA 0.9600 .
C17 HB 0.9600 .
loop_
_geom_torsion_atom_site_label_1
_geom_torsion_atom_site_label_2
_geom_torsion_atom_site_label_3
_geom_torsion_atom_site_label_4
_geom_torsion
_geom_torsion_site_symmetry_1
_geom_torsion_site_symmetry_4
Hf1 O13 C12 O1 -6(5) . .
Hf1 O13 C12 C6 155(3) . .
Hf2 O1 C12 O13 -22(4) . .
Hf2 O1 C12 C6 178.9(16) . .
C3 C4 C5 C6 0.0(5) . .
C3 C9 C16 C15 -167(4) . .
C3 C9 C16 C17 13(4) . .
C3 C9 C10 C9D 167(4) . .
C3 C9 C10 C11 -13(4) . .
C4 C3 C8 C7 0.0(4) . .
C4 C3 C9 C16 -85(2) . .
C4 C3 C9 C10 108(3) . .
C4 C5 C6 C7 0.0(4) . .
C4 C5 C6 C12 -180.0(3) . .
C5 C6 C7 C8 0.0(5) . .
C5 C6 C12 O1 160(2) . .
C5 C6 C12 O13 5(2) . .
C6 C7 C8 C3 0.0(5) . .
C7 C6 C12 O1 -20(2) . .
C7 C6 C12 O13 -175(2) . .
C8 C3 C4 C5 0.0(4) . .
C8 C3 C9 C16 95(2) . .
C8 C3 C9 C10 -72(3) . .
C9 C3 C4 C5 180.0(3) . .
C9 C3 C8 C7 -180.0(3) . .
C9 C16 C15 C15 -154(7) . 2_565
C9 C16 C15 C15 -70(9) . 7_455
C9 C16 C15 C15 -169(4) . 8
C9 C16 C15 C15D 0.0 . .
C9 C15D C9D C10 -150(19) 7_455 .
C9 C9D C10 C9 -118(21) 7_455 .
C9 C9D C10 C11 62(21) 7_455 .
C16 C15 C15D C9 9(6) . 7_455
C16 C15 C15D C15 -98(10) . 7_455
C16 C15 C15D C9D 0.0 . .
C15 C15 C15D C9 167(9) 2_565 7_455
C15 C15 C15D C9 177(10) 8 7_455
C15 C15 C15D C9 106(15) 7_455 7_455
C15 C15 C15D C15 61(9) 2_565 7_455
C15 C15 C15D C15 70(5) 8 7_455
C15 C15 C15D C9D 159(4) 2_565 .
C15 C15 C15D C9D 168(5) 8 .
C15 C15 C15D C9D 98(10) 7_455 .
C15 C15D C9D C9 150(19) . 7_455
C15 C15D C9D C9 173(26) 7_455 7_455
C15 C15D C9D C10 0.0 . .
C15 C15D C9D C10 23(8) 7_455 .
C15D C9D C10 C9 0.0 . .
C15D C9D C10 C11 180.0(5) . .
C12 C6 C7 C8 180.0(3) . .
C17 C16 C15 C15 110(9) . 7_455
C17 C16 C15 C15 11(4) . 8
C17 C16 C15 C15 26(7) . 2_565
C17 C16 C15 C15D 179.98(13) . .
