#------------------------------------------------------------------------------
#$Date: 2019-11-25 22:32:00 +0200 (Mon, 25 Nov 2019) $
#$Revision: 241968 $
#$URL: file:///home/coder/svn-repositories/cod/cif/4/13/18/4131851.cif $
#------------------------------------------------------------------------------
#
# This file is available in the Crystallography Open Database (COD),
# http://www.crystallography.net/
#
# All data on this site have been placed in the public domain by the
# contributors.
#
data_4131851
loop_
_publ_author_name
'Yan, Yong'
'O'Connor, Alice E'
'Kanthasamy, Gopikkaa'
'Atkinson, George'
'Allan, David R.'
'Blake, Alexander J.'
'Schr\"oder, Martin'
_publ_section_title
;
 Unusual and Tunable Negative Linear Compressibility in the Metal-Organic
 Framework MFM-133(M) (M = Zr, Hf).
;
_journal_issue                   11
_journal_name_full               'Journal of the American Chemical Society'
_journal_page_first              3952
_journal_page_last               3958
_journal_paper_doi               10.1021/jacs.7b11747
_journal_volume                  140
_journal_year                    2018
_chemical_formula_moiety         '0.25(C184 H136 O64 Zr12)'
_chemical_formula_sum            'C46 H34 O16 Zr3'
_chemical_formula_weight         1116.39
_space_group_crystal_system      tetragonal
_space_group_IT_number           128
_space_group_name_Hall           '-P 4 2n'
_space_group_name_H-M_alt        'P 4/m n c'
_atom_sites_solution_hydrogens   geom
_atom_sites_solution_primary     direct
_audit_creation_date             2016-08-31
_audit_creation_method
;
Olex2 1.2
(compiled 2016.08.25 svn.r3337 for OlexSys, GUI svn.r5221)
;
_cell_angle_alpha                90
_cell_angle_beta                 90
_cell_angle_gamma                90
_cell_formula_units_Z            4
_cell_length_a                   19.1880(12)
_cell_length_b                   19.1880(12)
_cell_length_c                   32.964(6)
_cell_measurement_reflns_used    2212
_cell_measurement_temperature    293.15
_cell_measurement_theta_max      22.5480
_cell_measurement_theta_min      2.0620
_cell_volume                     12137(2)
_computing_cell_refinement
;
CrysAlisPro, Agilent Technologies,
Version 1.171.37.34 (release 22-05-2014 CrysAlis171 .NET)
(compiled May 22 2014,16:03:01)
;
_computing_data_collection
;
CrysAlisPro, Agilent Technologies,
Version 1.171.37.34 (release 22-05-2014 CrysAlis171 .NET)
(compiled May 22 2014,16:03:01)
;
_computing_data_reduction
;
CrysAlisPro, Agilent Technologies,
Version 1.171.37.34 (release 22-05-2014 CrysAlis171 .NET)
(compiled May 22 2014,16:03:01)
;
_computing_molecular_graphics    'Olex2 (Dolomanov et al., 2009)'
_computing_publication_material  'Olex2 (Dolomanov et al., 2009)'
_computing_structure_refinement  'ShelXL (Sheldrick, 2015)'
_computing_structure_solution    'ShelXS (Sheldrick, 2008)'
_diffrn_ambient_temperature      293.15
_diffrn_detector                 Dectris
_diffrn_detector_area_resol_mean 5.81395
_diffrn_detector_type            'Pilatus 300K detector'
_diffrn_measured_fraction_theta_full 0.775
_diffrn_measured_fraction_theta_max 0.775
_diffrn_measurement_details
;
#__ type_ start__ end____ width___ exp.time_
  1 omega -105.00  -74.00   0.2000    0.9970
omega____ theta____ kappa____ phi______ frames
    -       20.0000   70.0000  155.7700 155

#__ type_ start__ end____ width___ exp.time_
  2 omega -105.00  -74.00   0.2000    0.9970
omega____ theta____ kappa____ phi______ frames
    -       20.0000   70.0000  -24.2300 155

#__ type_ start__ end____ width___ exp.time_
  3 omega -106.00  -66.00   0.2000    0.9970
omega____ theta____ kappa____ phi______ frames
    -      -20.0000  -70.0000 -155.7700 200

#__ type_ start__ end____ width___ exp.time_
  4 omega -106.00  -66.00   0.2000    0.9970
omega____ theta____ kappa____ phi______ frames
    -      -20.0000  -70.0000   24.2300 200

#__ type_ start__ end____ width___ exp.time_
  5 omega -150.00  -94.00   0.2000    0.9970
omega____ theta____ kappa____ phi______ frames
    -      -20.0000   70.0000  -24.2319 280

#__ type_ start__ end____ width___ exp.time_
  6 omega -150.00  -94.00   0.2000    0.9970
omega____ theta____ kappa____ phi______ frames
    -      -20.0000   70.0000  155.7681 280

#__ type_ start__ end____ width___ exp.time_
  7 omega  -96.00  -30.00   0.2000    0.9970
omega____ theta____ kappa____ phi______ frames
    -       20.0000  -70.0000   24.2300 330

#__ type_ start__ end____ width___ exp.time_
  8 omega  -96.00  -30.00   0.2000    0.9970
omega____ theta____ kappa____ phi______ frames
    -       20.0000  -70.0000 -155.7700 330
;
_diffrn_measurement_device       'k-geometry diffractometer'
_diffrn_measurement_device_type
'Newport 4-circle kappa geometry diffractometer'
_diffrn_measurement_method       'oscillation method'
_diffrn_orient_matrix_UB_11      0.0014379000
_diffrn_orient_matrix_UB_12      -0.0319644000
_diffrn_orient_matrix_UB_13      -0.0094434000
_diffrn_orient_matrix_UB_21      -0.0163668000
_diffrn_orient_matrix_UB_22      0.0138690000
_diffrn_orient_matrix_UB_23      -0.0167796000
_diffrn_orient_matrix_UB_31      0.0319239000
_diffrn_orient_matrix_UB_32      0.0084803000
_diffrn_orient_matrix_UB_33      -0.0081715000
_diffrn_radiation_collimation    '0.5 mm pinhole'
_diffrn_radiation_monochromator  'Si 111 double-crystal monochromator'
_diffrn_radiation_probe          x-ray
_diffrn_radiation_wavelength     0.6889
_diffrn_reflns_av_R_equivalents  0.6506
_diffrn_reflns_av_unetI/netI     0.4830
_diffrn_reflns_Laue_measured_fraction_full 0.775
_diffrn_reflns_Laue_measured_fraction_max 0.775
_diffrn_reflns_limit_h_max       21
_diffrn_reflns_limit_h_min       -21
_diffrn_reflns_limit_k_max       14
_diffrn_reflns_limit_k_min       -14
_diffrn_reflns_limit_l_max       35
_diffrn_reflns_limit_l_min       -35
_diffrn_reflns_number            24487
_diffrn_reflns_point_group_measured_fraction_full 0.775
_diffrn_reflns_point_group_measured_fraction_max 0.775
_diffrn_reflns_theta_full        22.638
_diffrn_reflns_theta_max         22.638
_diffrn_reflns_theta_min         1.884
_diffrn_source                   'Synchrotron U21 undulator'
_diffrn_source_type              'Synchrotron Diamond Light Source'
_exptl_absorpt_coefficient_mu    0.258
_exptl_absorpt_correction_T_max  0.4269
_exptl_absorpt_correction_T_min  0.2271
_exptl_absorpt_correction_type   multi-scan
_exptl_absorpt_process_details
;
SADABS-2014/5 (Bruker,2014/5) was used for absorption correction. 
wR2(int) was 0.1644 before and 0.1281 after correction. 
The Ratio of minimum to maximum transmission is 0.5320. 
The \l/2 correction factor is Not present.
;
_exptl_crystal_colour            'clear colourless'
_exptl_crystal_colour_lustre     clear
_exptl_crystal_colour_primary    colourless
_exptl_crystal_density_diffrn    0.611
_exptl_crystal_description       plank
_exptl_crystal_F_000             2232
_exptl_crystal_size_max          0.046
_exptl_crystal_size_mid          0.046
_exptl_crystal_size_min          0.033
_refine_diff_density_max         1.321
_refine_diff_density_min         -1.045
_refine_diff_density_rms         0.149
_refine_ls_extinction_method     none
_refine_ls_goodness_of_fit_ref   1.293
_refine_ls_hydrogen_treatment    constr
_refine_ls_matrix_type           full
_refine_ls_number_parameters     75
_refine_ls_number_reflns         3524
_refine_ls_number_restraints     64
_refine_ls_restrained_S_all      1.296
_refine_ls_R_factor_all          0.3406
_refine_ls_R_factor_gt           0.1780
_refine_ls_shift/su_max          0.000
_refine_ls_shift/su_mean         0.000
_refine_ls_structure_factor_coef Fsqd
_refine_ls_weighting_details
'w=1/[\s^2^(Fo^2^)+(0.2000P)^2^] where P=(Fo^2^+2Fc^2^)/3'
_refine_ls_weighting_scheme      calc
_refine_ls_wR_factor_gt          0.3998
_refine_ls_wR_factor_ref         0.4999
_reflns_Friedel_coverage         0.000
_reflns_number_gt                1192
_reflns_number_total             3524
_reflns_threshold_expression     'I > 2\s(I)'
_cod_data_source_file            ZrMOF_All.cif
_cod_data_source_block           22.6kbar
_cod_original_cell_volume        12137(3)
_cod_database_code               4131851
_chemical_oxdiff_formula         'C46 H42 O16 Zr3'
_shelx_space_group_comment
;
The symmetry employed for this shelxl refinement is uniquely defined
by the following loop, which should always be used as a source of
symmetry information in preference to the above space-group names.
They are only intended as comments.
;
_reflns_odcompleteness_completeness 75.20
_reflns_odcompleteness_iscentric 1
_reflns_odcompleteness_theta     22.85
_olex2_refinement_description
;
1. Fixed Uiso
 At 1.2 times of:
  All C(H) groups
 At 1.5 times of:
  All C(H,H,H) groups
2. Restrained distances
 C3-C2 = C4-C3 = C5-C4 = C6-C5 = C7-C6 = C7-C2
 1.39 with sigma of 0.01
 C2-C1 = C8-C5
 1.5 with sigma of 0.01
 C12-C11 = C8-C11 = C9-C8
 1.39 with sigma of 0.01
 C13-C11 = C9-C10
 1.5 with sigma of 0.01
 C8-C5 = C13-C11
 1.5 with sigma of 0.02
 C12-C12_$3
 1.5 with sigma of 0.01
3. Restrained planarity
 C1, C2, C7, C6, C5, C4, C3, C8, C11_$1, C13_$1
 with sigma of 0.1
 C1_$1, C2_$1, C3_$1, C4_$1, C5_$1, C6_$1, C7_$1, C8_$1, C11, C13
 with sigma of 0.1
 C1_$2, C2_$2, C3_$2, C7_$2, C6_$2, C4_$2, C5_$2, C8_$2, C11_$3, C13_$3
 with sigma of 0.1
 C1_$3, C2_$3, C3_$3, C4_$3, C5_$3, C6_$3, C7_$3, C8_$3, C11_$2, C13_$2
 with sigma of 0.1
 C10, C9, C12, C12_$3, C9_$3, C10_$3
 with sigma of 0.1
4. Uiso/Uaniso restraints and constraints
All non-hydrogen atoms have similar U: within 2A with sigma of 0.02 and sigma
for terminal atoms of 0.04
5. Rigid body (RIGU) restrains
 Zr1, Zr2
 with sigma for 1-2 distances of 0.004 and sigma for 1-3 distances of 0.004
 Zr2, Zr1
 with sigma for 1-2 distances of 0.004 and sigma for 1-3 distances of 0.004
6. Others
 Fixed Sof: H10A(0.5) H10B(0.5) H10C(0.5)
7.a Me refined with riding coordinates:
 C10(H10A,H10B,H10C)
7.b Aromatic/amide H refined with riding coordinates:
 C3(H3), C4(H4), C7(H7), C6(H6)
7.c Idealised Me refined as rotating group:
 C13(H13A,H13B,H13C)
;
_shelx_res_file
;
    22.6kbar.res created by SHELXL-2014/7

TITL g2yy_4xnew in P4/mnc
CELL 0.6889 19.18804 19.18804 32.96422 90 90 90
ZERR 4 0.00123 0.00123 0.00568 0 0 0
LATT 1
SYMM -X,-Y,+Z
SYMM -Y,+X,+Z
SYMM +Y,-X,+Z
SYMM 0.5-X,0.5+Y,0.5-Z
SYMM 0.5+X,0.5-Y,0.5-Z
SYMM 0.5+Y,0.5+X,0.5-Z
SYMM 0.5-Y,0.5-X,0.5-Z
SFAC C H O Zr
DISP C 0.003 0.001 10.848
DISP H -0 0 0.623
DISP O 0.011 0.006 30.192
DISP Zr -11.605 0.551 2275.752
UNIT 184 136 64 12
EQIV $1 -0.5+Y,0.5+X,0.5-Z
EQIV $2 -X,1-Y,+Z
EQIV $3 0.5-Y,0.5-X,0.5-Z
DFIX 1.39 0.01 C3 C2 C4 C3 C5 C4 C6 C5 C7 C6 C7 C2
DFIX 1.5 0.01 C2 C1 C8 C5
DFIX 1.39 0.01 C12 C11 C8 C11 C9 C8
DFIX 1.5 0.01 C13 C11 C9 C10
DFIX 1.5 C8 C5 C13 C11
DFIX 1.5 0.01 C12 C12_$3
FLAT C1 C2 C7 C6 C5 C4 C3 C8 C11_$1 C13_$1
FLAT C1_$1 C2_$1 C3_$1 C4_$1 C5_$1 C6_$1 C7_$1 C8_$1 C11 C13
FLAT C1_$2 C2_$2 C3_$2 C7_$2 C6_$2 C4_$2 C5_$2 C8_$2 C11_$3 C13_$3
FLAT C1_$3 C2_$3 C3_$3 C4_$3 C5_$3 C6_$3 C7_$3 C8_$3 C11_$2 C13_$2
FLAT C10 C9 C12 C12_$3 C9_$3 C10_$3
SIMU 0.02 0.04 2
RIGU Zr1 Zr2
RIGU Zr2 Zr1

L.S. 5 0 286
PLAN  20
TEMP 20
BOND
MORE -1
BOND $H
CONF
ABIN
fmap 2
acta
REM <olex2.extras>
REM <HklSrc "%.\\22.6kbar.hkl">
REM </olex2.extras>

WGHT    0.200000
FVAR       0.05170
ZR1   4    0.122597    0.045979    0.000000    10.50000    0.01407    0.02595 =
         0.01317    0.00000    0.00000   -0.00597
ZR2   4    0.000000    0.000000    0.074261    10.25000    0.01352    0.01352 =
         0.00187    0.00000    0.00000    0.00000
O5    3   -0.029163    0.092226    0.109972    11.00000    0.07049
O2    3    0.173262    0.059813   -0.061384    11.00000    0.08424
O4    3    0.036792    0.084316    0.036402    11.00000    0.09966
O3    3    0.167150    0.149005    0.000000    10.50000    0.09224
O1    3    0.224089   -0.018408    0.000000    10.50000    0.12598
C11   1   -0.024389    0.415642    0.222616    11.00000    0.09235
C3    1   -0.043362    0.197703    0.170431    11.00000    0.12776
AFIX  43
H3    2   -0.024167    0.154084    0.175573    11.00000   -1.20000
AFIX   0
C12   1   -0.027800    0.472200    0.250000    10.50000    0.08608
C1    1   -0.058022    0.153648    0.099633    11.00000    0.09604
C4    1   -0.048949    0.242771    0.203355    11.00000    0.13705
AFIX  43
H4    2   -0.037683    0.231267    0.229965    11.00000   -1.20000
AFIX   0
C8    1   -0.077534    0.365521    0.222384    11.00000    0.09608
C13   1    0.035566    0.411072    0.192297    11.00000    0.12396
AFIX 137
H13A  2    0.020005    0.427048    0.166228    11.00000   -1.50000
H13B  2    0.050913    0.363592    0.190178    11.00000   -1.50000
H13C  2    0.073488    0.439701    0.201417    11.00000   -1.50000
AFIX   0
C2    1   -0.063569    0.211120    0.130460    11.00000    0.12360
C5    1   -0.074013    0.308123    0.190744    11.00000    0.12391
C7    1   -0.089218    0.274892    0.116929    11.00000    0.15346
AFIX  43
H7    2   -0.100624    0.286166    0.090306    11.00000   -1.20000
AFIX   0
C9    1   -0.133114    0.366886    0.250000    10.50000    0.10020
C6    1   -0.094712    0.318677    0.150372    11.00000    0.14608
AFIX  43
H6    2   -0.115303    0.361641    0.145189    11.00000   -1.20000
AFIX   0
C10   1   -0.188545    0.311455    0.250000    10.50000    0.10443
PART -1
AFIX  33
H10A  2   -0.178754    0.278080    0.229066    10.50000   -1.50000
H10B  2   -0.189106    0.288432    0.275853    10.50000   -1.50000
H10C  2   -0.233151    0.332477    0.245080    10.50000   -1.50000
AFIX   0
HKLF 4

REM  g2yy_4xnew in P4/mnc
REM R1 =  0.1780 for    1192 Fo > 4sig(Fo)  and  0.3406 for all    3524 data
REM     75 parameters refined using     64 restraints

END

WGHT      0.2000      0.0000

REM Highest difference peak  1.321,  deepest hole -1.045,  1-sigma level  0.149
Q1    1   0.1757  0.1695 -0.0222  11.00000  0.05    0.89
Q2    1   0.1176  0.1551  0.0000  10.50000  0.05    0.83
Q3    1   0.1491  0.0339  0.0000  10.50000  0.05    0.80
Q4    1   0.2211  0.0384  0.0000  10.50000  0.05    0.77
Q5    1   0.2087  0.1282  0.0000  10.50000  0.05    0.74
Q6    1   0.1888  0.1893  0.0219  11.00000  0.05    0.69
Q7    1   0.0672  0.1222  0.0486  11.00000  0.05    0.68
Q8    1   0.1611  0.1535  0.0196  11.00000  0.05    0.67
Q9    1   0.2204  0.1406  0.0395  11.00000  0.05    0.64
Q10   1   0.1275  0.2078  0.0000  10.50000  0.05    0.64
Q11   1   0.1839  0.0970 -0.0702  11.00000  0.05    0.62
Q12   1  -0.0797  0.2871  0.0804  11.00000  0.05    0.61
Q13   1   0.0382  0.0531  0.0289  11.00000  0.05    0.60
Q14   1  -0.0447  0.1173  0.1004  11.00000  0.05    0.58
Q15   1   0.2245  0.2160  0.0000  10.50000  0.05    0.58
Q16   1  -0.1808  0.2524  0.2766  11.00000  0.05    0.56
Q17   1   0.2677 -0.0158 -0.0218  11.00000  0.05    0.55
Q18   1  -0.0473  0.0601  0.1139  11.00000  0.05    0.55
Q19   1  -0.0324  0.1618  0.0912  11.00000  0.05    0.53
Q20   1  -0.0034  0.0546  0.1295  11.00000  0.05    0.52
;
_shelx_res_checksum              36569
_shelx_hkl_file
;
  -2  -1   0   20.48    4.82
  -2  -1   0   21.16    5.51
   2   1   0   20.16    4.88
   2   1   0   17.20    5.47
   2   0   0    1.57    0.59
   3   2   0    1.23    0.58
  -3  -2   0    0.40    1.18
   3   2   0    0.71    0.79
   3   1   0    3.64    1.28
  -3  -1   0    4.01    1.26
   3   1   0    5.35    1.18
   3   1   0    4.03    1.06
  -3  -1   0    4.31    1.01
   3   1   0    3.53    1.19
   3   0   0   -0.05    0.41
   3   0   0    0.53    0.85
  -3   0   0    0.24    0.57
   3  -1   0    3.51    1.77
   4   2   0   28.07    5.87
  -4  -2   0   15.56    7.05
   4   2   0   22.73    6.71
   4   1   0  133.73   30.28
   4   1   0  123.93   31.59
  -4  -1   0  109.23   30.86
   4   1   0  114.47   31.20
   4   1   0  120.46   28.39
  -4  -1   0  105.84   28.53
   4   0   0   13.57    3.33
  -4   0   0   11.47    3.17
   4   0   0   10.87    2.90
   4   0   0    9.50    2.79
  -4   0   0   12.17    2.64
   4   0   0    8.81    3.32
   4  -1   0  122.38   36.58
   4  -1   0  139.23   33.49
   5   3   0    0.65    1.68
  -5  -3   0    0.11    2.69
   5   2   0  183.00   47.16
   5   2   0  142.40   39.96
  -5  -2   0  186.26   45.58
   5   1   0    2.48    1.65
  -5  -1   0    2.79    0.89
   5   1   0    3.68    1.02
  -5  -1   0    3.76    1.52
   5   1   0    2.29    1.14
   5   1   0    3.80    1.18
   5   0   0   -0.39    0.76
   5   0   0   -0.11    0.52
   5   0   0   -0.06    1.74
  -5   0   0    0.03    0.35
   5   0   0   -0.36    0.94
  -5   0   0    0.34    1.24
  -5   1   0    4.90    2.17
   5  -1   0    4.06    1.32
   5  -1   0    3.64    2.46
   5  -1   0    3.19    0.98
   5  -2   0  160.55   53.18
   6   4   0    3.63    1.69
   6   3   0   11.33    3.17
  -6  -3   0    8.51    3.79
   6   3   0    8.25    2.63
   6   2   0   23.86    5.69
   6   2   0   22.64    6.50
   6   1   0  151.11   42.04
  -6  -1   0  176.34   40.23
   6   1   0  173.84   41.95
   6   0   0    0.86    1.20
   6   0   0    0.82    0.81
  -6   0   0    0.64    0.53
   6  -1   0  127.19   40.97
   6  -1   0  173.41   41.29
  -6   1   0  189.55   40.67
   6  -2   0   25.87    8.38
   6  -3   0    6.21    5.04
  -7  -4   0    3.44    6.95
   7   4   0   26.32    5.03
   7   3   0   59.30   16.91
  -7  -3   0   40.61   18.35
   7   3   0   70.00   15.06
   7   2   0   39.80   11.68
   7   2   0   46.10   11.93
  -7  -2   0   41.40   11.31
   7   2   0   41.44   10.76
  -7  -2   0   48.53   12.07
  -7  -1   0   20.34    5.47
   7   1   0   23.79    6.21
   7   1   0   22.85    5.55
   7   1   0   16.54    5.81
  -7  -1   0   23.29    5.14
  -7  -1   0   28.62    6.13
   7   1   0   18.48    5.83
  -7   0   0    1.94    2.11
   7   0   0    1.20    1.42
  -7   0   0   -0.27    0.53
   7   0   0    0.14    0.91
  -7   0   0   -0.93    3.13
   7   0   0   -0.50    2.75
  -7   0   0   -0.08    0.58
   7   0   0   -0.34    1.61
   7  -1   0   24.93    5.66
   7  -1   0   25.55    5.79
   7  -1   0   23.90    7.34
  -7   1   0   15.75    6.37
   7  -2   0   43.05   12.06
   7  -2   0   45.25   15.03
   7  -2   0   59.40   13.01
   7  -3   0   88.33   24.10
  -7   4   0   17.09    7.71
   8   5   0    0.10    2.05
   8   4   0   83.96   19.73
   8   4   0   81.51   17.50
  -8  -4   0   23.58   21.90
  -8  -3   0   40.81    8.31
   8   2   0   40.84   13.49
  -8  -2   0   61.83   12.90
   8   2   0   42.80   12.43
   8   2   0   56.69   11.63
   8   2   0   42.54   12.48
  -8  -2   0   49.26   12.28
   8   1   0    2.37    1.44
   8   1   0    1.83    1.67
   8   1   0    1.73    2.89
  -8  -1   0    2.17    0.96
  -8  -1   0    4.61    2.54
  -8  -1   0    2.61    0.93
   8   1   0    3.04    1.97
  -8   0   0   16.67    4.57
   8   0   0    9.41    5.02
   8   0   0   18.75    3.99
  -8   0   0   15.81    5.23
  -8   0   0   15.55    3.50
  -8   0   0   15.24    3.95
   8   0   0   15.06    4.87
   8   0   0   12.98    3.69
   8  -1   0    2.85    1.10
  -8   1   0    1.66    3.47
   8  -1   0    3.00    4.06
   8  -1   0    2.86    2.05
   8  -2   0   50.92   15.47
  -8   2   0   38.01   13.03
   8  -2   0   54.04   12.24
   8  -2   0   54.62   13.12
   8  -3   0   25.20    8.35
   8  -4   0   98.70   28.02
  -9  -5   0    3.83   12.45
   9   5   0   52.41    9.43
   9   4   0   21.17    5.83
  -9  -4   0    8.18    7.22
   9   4   0   18.91    5.74
   9   4   0   19.86    4.99
  -9  -3   0  107.87   31.21
   9   3   0  103.36   28.66
   9   3   0  104.82   26.70
  -9  -2   0    1.85    3.12
   9   2   0    3.78    1.60
  -9  -2   0    2.89    1.25
   9   2   0    3.14    2.34
   9   2   0    3.75    2.76
  -9  -2   0    4.65    1.42
  -9  -1   0    7.33    2.20
  -9  -1   0    9.64    2.13
   9   1   0    5.32    3.85
  -9  -1   0    9.84    3.59
   9   1   0    7.21    2.71
   9   1   0    8.21    2.72
   9   1   0    8.99    3.00
   9   0   0    1.10    2.13
  -9   0   0    0.31    0.92
   9   0   0   -0.09    2.25
   9   0   0    2.99    3.93
  -9   0   0    1.46    4.24
  -9   0   0    0.38    0.68
   9   0   0    0.10    1.38
  -9   0   0    0.26    3.00
  -9   1   0    5.27    4.93
   9  -1   0   12.41    3.19
   9  -1   0    9.70    5.24
  -9   1   0    6.96    3.98
   9  -1   0    8.15    2.41
   9  -2   0    2.87    2.53
  -9   2   0    2.90    4.64
   9  -2   0    6.53    5.65
   9  -4   0   21.81    9.64
  10   5   0    5.33    2.81
  10   5   0    4.44    2.71
 -10  -5   0   -0.48    6.09
  10   4   0   81.89   21.16
 -10  -4   0   47.77   24.27
  10   4   0   75.07   19.70
  10   4   0   95.99   23.39
  10   3   0    2.91    2.86
 -10  -3   0    0.55    4.19
  10   3   0    4.25    2.56
  10   2   0   28.36    8.40
 -10  -2   0   44.97    9.53
 -10  -2   0   32.51    7.73
  10   2   0   19.08    8.87
  10   1   0    5.59    2.65
  10   1   0    1.15    3.63
 -10  -1   0    2.82    3.32
 -10   0   0   -0.84    5.01
 -10   0   0    4.74    3.48
  10   0   0   -3.43    4.41
  10   0   0    1.99    2.59
 -10   1   0   -2.23    5.12
  10  -1   0    0.86    2.73
  10  -1   0    3.70    5.17
 -10   1   0    5.15    3.76
  10  -2   0   45.48   13.27
 -10   2   0   51.93   11.48
  10  -2   0   40.45   10.20
  10  -3   0  -10.87    7.11
 -10   3   0    0.29    5.73
  10  -3   0    2.23    2.90
  10  -4   0  111.17   30.90
  11   6   0   12.73    4.49
  11   5   0   11.96    5.28
  11   5   0    8.04    4.37
 -11  -5   0    9.64    8.20
  11   4   0    1.82    3.63
  11   4   0    4.09    2.91
 -11  -4   0   -2.52    6.16
 -11  -3   0   52.17   16.32
  11   3   0   49.31   14.58
  11   3   0   52.07   14.01
  11   2   0    3.27    3.50
  11   2   0    2.14    3.12
 -11  -2   0    2.60    4.12
  11   1   0    1.76    3.18
 -11  -1   0    5.33    3.91
  11   1   0    2.61    4.20
 -11   0   0   -0.48    5.95
  11   0   0   -0.14    4.94
 -11   0   0    0.22    3.87
  11   0   0   -0.59    2.91
  11  -1   0    4.58    3.01
 -11   1   0    0.48    4.26
  11  -1   0   -2.91    6.00
 -11   1   0    4.32    5.98
  11  -2   0    7.70    3.47
 -11   2   0    3.95    6.22
  11  -2   0   12.40    7.37
  11  -3   0   75.07   15.57
 -11   3   0   53.56   17.50
  11  -3   0   59.08   21.01
  11  -4   0  -15.59    9.20
  11  -5   0   54.58   14.21
  12   6   0   22.93    6.99
  12   5   0    0.67    3.59
 -12  -5   0    2.75    7.58
  12   5   0    4.56    4.29
  12   4   0   42.87   10.02
  12   4   0   22.84    9.58
 -12  -4   0   23.49   12.69
 -12  -3   0    0.32    5.04
  12   3   0   -1.67    3.34
  12   3   0   -2.71    3.52
 -12  -2   0   -3.20    4.79
  12   2   0    1.14    4.28
  12   2   0    1.97    3.58
  12   1   0   36.05    7.72
  12   1   0   12.45    6.37
 -12  -1   0   14.76    8.86
 -12  -1   0   24.30    7.42
 -12   0   0   10.28    4.89
  12   0   0    3.04    3.82
  12   0   0   -6.90    6.09
 -12   0   0    2.47    7.14
  12  -1   0   36.59    8.92
  12  -1   0   16.22    5.81
 -12   1   0    9.43    7.46
 -12   1   0    4.96    8.37
  12  -2   0   -8.39    7.92
  12  -2   0    0.15    3.67
 -12   2   0    0.99    5.40
 -12   2   0   -5.71    7.13
  12  -3   0  -12.82    9.02
  12  -3   0   -2.40    3.79
 -12   3   0   -0.36    7.37
  12  -4   0   54.73   11.84
  12  -4   0   47.23   17.25
  12  -5   0   18.25   11.08
  13   5   0   25.54    7.08
 -13  -5   0    5.05   10.18
 -13  -4   0    5.18    7.46
  13   4   0    8.68    4.29
  13   4   0    2.37    4.40
  13   3   0   13.38    4.50
  13   3   0    5.96    4.53
 -13  -3   0    9.37    6.50
  13   2   0    9.61    5.35
  13   2   0   12.52    5.75
 -13  -2   0    7.92    6.62
  13   1   0   -1.35    4.03
 -13  -1   0   11.08    8.15
 -13  -1   0   -5.24    5.17
  13   1   0    3.75    5.12
 -13   0   0    0.43    5.10
  13   0   0  -11.92    6.41
  13   0   0    2.36    3.82
 -13   0   0   -5.03    7.90
 -13   1   0   -4.94    7.95
  13  -1   0    0.15    3.81
 -13   1   0    0.30    5.42
  13  -1   0   -4.84    7.16
 -13   2   0    5.26    8.13
  13  -2   0   40.64    6.37
 -13   2   0   38.81    9.36
  13  -2   0    6.02   10.43
  13  -3   0   -0.27   10.06
 -14  -6   0   10.53   10.90
  14   6   0   19.49    6.36
 -14  -5   0   62.99   14.75
  14   4   0    9.89    5.71
  14   3   0   -0.17    4.50
  14  -1   0   -2.40    4.39
 -14   1   0   -0.38    8.83
 -14   2   0    6.12    9.14
  14  -2   0  -11.65    4.54
  14  -2   0   -0.25    7.55
  14  -3   0  -20.80   10.50
 -14   3   0    0.44    9.23
 -14   3   0    4.07    7.01
  14  -3   0   -0.19    4.54
  14  -4   0   15.29   13.38
 -14   4   0   14.61   10.52
  14  -4   0   26.50    6.71
  14  -5   0   -2.91   13.95
  14  -5   0    7.66    5.71
 -15  -6   0    8.57   10.43
  15   6   0    3.55    5.28
  15   5   0    3.00    5.50
 -15  -5   0    3.85   10.23
  15   5   0   13.08    5.54
 -15  -4   0   -7.13    8.80
  15   4   0   -0.19    5.17
  15   4   0    2.96    5.22
  15   3   0    2.68    5.61
  15   3   0    7.34    5.43
 -15  -3   0   -1.87    8.18
 -15  -2   0   -3.14   10.43
 -15  -2   0    3.11    6.83
  15   2   0   -3.84    5.79
  15   2   0    0.19    5.15
 -15  -1   0   -3.53   10.41
  15   1   0  -14.61    6.87
 -15  -1   0    1.14    7.08
  15   1   0  -11.99    5.27
 -15   0   0    0.41   10.63
 -15   0   0    0.37    6.64
  15   0   0   -0.19    4.88
  15   0   0  -14.25    8.26
  15  -1   0    5.24    9.18
  15  -1   0    0.19    5.13
 -15   1   0   -2.27    7.11
 -15   1   0   -3.39   10.04
  15  -2   0  -12.05    5.45
 -15   2   0   -5.16    7.36
  15  -2   0   -6.42   10.52
 -15   2   0  -21.07   10.79
  15  -3   0   22.51   11.93
 -15   3   0    4.50   10.87
 -15   3   0    8.45    8.10
  15  -3   0    8.10    5.62
 -15   4   0    6.45   10.78
  15  -4   0   13.31   12.70
  15  -4   0    5.13    5.18
  15  -5   0   12.20   14.05
 -15   5   0    0.58   10.79
  15  -5   0   12.86    5.76
  16   7   0    0.23    6.13
 -16  -6   0   56.74   16.40
 -16  -5   0   -8.40   11.39
  16   5   0    4.96    5.82
  16   5   0   -0.36    5.62
 -16  -4   0    2.53    9.65
  16   4   0    9.25    5.96
  16   4   0   -1.87    5.49
 -16  -3   0    1.79   12.40
  16   3   0   -6.67    5.85
 -16  -3   0   -5.48    8.60
  16   3   0   -0.16    5.53
  16   2   0   -2.50    6.05
 -16  -2   0    1.60    7.68
 -16  -2   0    1.76   11.72
 -16  -1   0   -6.24   11.62
  16   1   0    0.62    5.31
 -16  -1   0   -2.37    7.25
  16   1   0   -7.40    6.77
  16   0   0    6.97    5.54
 -16   0   0    2.52    7.70
  16   0   0   -5.69    8.27
 -16   0   0   10.15   11.25
  16  -1   0    7.10    9.84
 -16   1   0   -4.86   11.34
 -16   1   0    9.94    7.95
  16  -1   0    0.22    5.55
 -16   2   0  -13.58   11.75
  16  -2   0   10.52    5.95
 -16   2   0    9.29    8.55
  16  -2   0    7.29   10.78
  16  -3   0   -5.73    5.93
 -16   3   0   17.29   12.32
 -16   3   0   -2.06    8.71
  16  -3   0  -24.39   12.25
 -16   4   0   -2.98   11.86
 -16   4   0   13.22    9.40
  16  -4   0   -3.43    5.96
  16  -4   0   27.59   13.58
  16  -5   0    0.82   14.49
 -16   5   0   19.72   11.61
  17   7   0    1.31    7.35
 -17  -6   0    8.19   12.84
  17   6   0    3.50    6.72
 -17  -5   0  -16.74   12.33
  17   5   0    4.67    6.12
  17   5   0    2.48    6.69
 -17  -4   0   -9.47   11.12
  17   4   0   -1.70    6.65
  17   4   0   -1.87    5.96
 -17  -3   0  -15.55   10.18
 -17  -3   0    3.97   13.54
  17   3   0  -27.06    7.34
  17   2   0   67.26   16.03
 -17  -2   0   69.88   20.45
 -17  -2   0   37.81   19.19
 -17  -1   0   67.90   18.25
  17   1   0   49.02   17.26
  17   1   0   74.19   15.48
 -17  -1   0   53.85   20.19
 -17   0   0   -6.96    9.08
  17   0   0  -10.71    9.65
  17   0   0    7.95    6.56
 -17   0   0  -36.73   13.95
 -17   1   0   28.94   16.86
  17  -1   0   38.37   17.99
 -17   1   0   27.92   18.05
  17  -1   0   49.75   13.00
 -17   2   0   52.18   18.82
  17  -2   0   23.98   13.23
  17  -2   0   29.59   19.99
 -17   2   0   31.80   18.14
  17  -3   0    0.26    6.42
  17  -3   0  -19.73   13.61
 -17   3   0    3.55    9.99
 -17   3   0    8.72   13.49
  17  -4   0    3.50    6.49
 -17   4   0    4.71   10.26
  17  -4   0    1.94   14.20
 -17   4   0   11.92   13.05
 -17   5   0  -24.58   12.99
  17  -5   0    0.44   16.08
 -17   5   0    5.67   10.47
  18   7   0   -2.62    8.06
  18   6   0   -4.51    7.89
 -18  -6   0  -24.77   14.74
 -18  -5   0   -8.29   13.70
  18   5   0  -12.03    7.81
  18   5   0   -5.21    6.64
  18   4   0   -6.27    7.34
  18   4   0  -12.97    6.94
 -18  -4   0  -16.37   15.78
 -18  -4   0   -1.66   13.03
  18   3   0    2.81    6.66
 -18  -3   0   -2.22   14.76
  18   3   0    2.62    7.07
 -18  -3   0   10.55   11.22
 -18  -2   0    2.43   10.35
  18   2   0  -23.57    7.15
  18   2   0    2.50    7.20
 -18  -2   0   33.63   15.27
 -18  -1   0   15.79   10.07
  18   1   0    5.66    8.23
 -18  -1   0    5.20   14.66
  18   1   0    5.36    6.83
 -18   0   0    8.24   14.09
  18   0   0  -25.57    9.58
  18   0   0    0.26    6.91
 -18   0   0    9.40   10.00
 -18   1   0    6.78    9.71
  18  -1   0    7.64   11.37
  18  -1   0   -7.42    7.10
 -18   1   0  -16.30   14.77
  18  -2   0    2.51    6.77
 -18   2   0   -8.67   15.02
  18  -2   0   -3.15   13.03
 -18   2   0    5.97   10.31
 -18   3   0   -5.32   10.76
  18  -3   0    0.38   14.33
  18  -3   0    0.29    7.00
 -18   3   0    2.81   14.42
 -18   4   0   13.28   14.71
  18  -4   0  -26.42   15.81
  18  -4   0    7.72    7.28
 -18   4   0   -1.45   11.06
 -18   5   0  -12.45   14.75
  18  -5   0    3.27   17.53
 -18   5   0   25.15   11.76
  19   6   0  -14.88    9.26
 -19  -6   0   -0.54   15.17
 -19  -5   0  -15.42   18.21
 -19  -5   0  -18.85   15.12
  19   5   0   -2.86    7.38
  19   5   0   24.47    8.63
  19   4   0    3.03    8.30
 -19  -4   0    3.78   17.23
  19   4   0  -16.25    7.70
 -19  -4   0   25.97   15.07
 -19  -3   0  -16.21   19.39
  19   3   0  -30.06   12.67
 -19   1   0   -1.85   12.22
 -19   1   0  -43.81   18.90
  19  -1   0   13.65    9.73
 -19   2   0  120.70   67.47
 -19   2   0   69.20   75.81
  19  -2   0  261.35   58.28
  19  -2   0  349.97   79.37
 -19   3   0  -67.80   19.84
  19  -4   0    0.33    7.68
 -19   4   0   -0.64   12.08
  19  -4   0  -47.94   17.93
 -19   4   0    8.29   16.23
  19  -5   0    2.49   18.21
 -19   5   0  -28.57   17.01
 -19   5   0   -3.64   12.65
 -20  -6   0   16.08   16.33
 -20  -6   0   28.59   20.93
  20   6   0  -27.54   10.44
  20   5   0    1.31    8.31
 -20  -5   0   22.06   20.13
 -20  -5   0  -23.74   17.00
  20   5   0   26.82    9.88
  20   4   0   15.76    8.30
 -20  -4   0    3.11   16.08
 -20  -4   0    8.48   19.21
  20   4   0  -12.90    8.92
  20   3   0   12.02    8.63
 -20  -3   0   17.70   15.59
  20   3   0   -4.51    8.72
 -20  -3   0   20.45   18.18
  20   2   0  -19.44    9.37
  20   2   0    3.51    8.64
 -20  -2   0  -25.34   18.75
 -20  -2   0   -2.88   14.30
 -20  -1   0   -6.28   13.13
  20   1   0  -21.98    8.87
 -20  -1   0  -14.69   18.51
  20   1   0   -6.36   10.11
  20   0   0  -14.62    8.60
  20   0   0    0.31   11.13
 -20   0   0   11.65   19.03
 -20   0   0   14.05   12.52
 -20   1   0   -0.71   13.14
 -20   1   0  -32.38   18.90
  20  -1   0  -11.62   13.33
  20  -1   0    0.34    8.67
 -20   2   0    2.55   18.50
  20  -2   0   -8.99    8.70
 -20   2   0  -10.74   12.63
  20  -2   0  -26.29   15.66
  20  -3   0   27.44   17.18
 -20   3   0   -7.33   13.57
 -20   3   0  -16.84   18.24
  20  -3   0  -12.07    8.67
 -20   4   0  -29.09   13.62
  20  -4   0   -4.39   18.77
   1   1  -1   -0.02    0.13
   1   1  -1    0.01    0.02
  -1  -1   1   -0.02    0.07
  -1  -1   1    0.14    0.08
  -2  -1  -1   34.78    6.10
  -2   0  -1    0.13    0.30
   2   0  -1   -0.14    0.34
   2   0  -1    0.04    0.25
  -2   0   1   -0.14    0.50
   2   0   1    0.15    0.42
  -2   1  -1   79.59   12.10
   2  -1   1   68.82   12.21
   2  -1   1   72.90   12.03
  -2  -2   1   -0.15    0.26
  -3  -2  -1    0.08    1.18
   3   2  -1    0.14    0.70
   3   2  -1    0.30    0.63
   3   2  -1    0.20    0.48
  -3  -2   1    0.57    1.09
   3   2   1   -0.05    0.54
  -3  -2   1    0.17    0.30
   3   1  -1   23.22    5.70
   3   1  -1   22.78    5.92
   3   1  -1   24.83    6.35
   3   1  -1   25.25    6.24
  -3  -1  -1   21.98    6.22
   3   1   1   26.14    5.53
  -3  -1   1   24.11    6.20
  -3  -1   1   23.40    5.74
   3   1   1   16.16    6.20
   3   0  -1   11.25    3.97
   3   0  -1   13.58    3.84
   3   0  -1   13.50    3.46
  -3   0  -1   13.16    3.57
   3   0  -1   13.95    3.23
   3   0   1   12.71    3.65
  -3   0   1   12.68    3.45
  -3   0   1   14.24    3.11
  -3   1  -1   27.25    6.35
   3  -1  -1   16.20    6.41
  -3   1   1   30.95    7.08
   3  -1   1   26.34    7.27
  -3   2  -1    0.81    1.38
   3  -2   1    0.19    0.66
   4   3  -1    0.60    0.85
   4   2  -1   35.67    9.73
   4   2  -1   36.17    9.29
   4   2  -1   32.42    9.40
  -4  -2  -1   22.38    9.61
   4   2  -1   32.88    8.30
   4   2   1   24.60    9.04
   4   2   1   38.63    8.09
  -4  -2   1   41.99    9.60
  -4  -2   1   35.34    8.39
   4   1  -1    4.19    1.21
   4   1  -1    4.01    1.53
   4   1  -1    4.93    1.17
   4   1  -1    3.50    1.18
  -4  -1  -1    5.81    1.46
   4   1   1    3.29    1.14
  -4  -1   1    4.41    1.38
   4   1   1    5.03    1.43
  -4  -1   1    3.90    1.07
   4   0  -1    0.81    1.34
   4   0  -1    0.11    0.35
   4   0  -1   -0.08    0.67
   4   0  -1    0.26    0.65
  -4   0  -1   -0.27    0.87
  -4   0   1    0.03    0.27
   4   0   1    0.17    1.12
  -4   0   1   -0.35    1.30
   4  -1  -1    5.20    2.23
   4  -1  -1    3.31    1.20
   4  -1  -1    5.42    1.37
   4  -1   1    4.50    2.04
  -4   1   1    5.24    1.92
  -4   2  -1   40.68   11.20
   4  -2   1   47.69   10.47
   4  -2   1   44.00   12.34
  -4   3  -1    1.11    2.25
   5   3  -1   38.23   10.53
   5   3  -1   47.12    9.23
  -5  -3   1   13.06   11.27
   5   2  -1   25.18    8.54
   5   2  -1   25.51    7.65
   5   2  -1   37.30    8.76
   5   2  -1   34.28    8.48
  -5  -2  -1   27.74    8.86
   5   2   1   28.15    8.40
  -5  -2   1   39.59    8.68
  -5  -2   1   32.12    7.73
  -5  -1  -1  141.03   29.97
   5   1  -1  105.04   28.08
   5   1  -1   94.68   30.36
   5   1  -1  116.82   28.91
  -5  -1  -1   69.44   27.94
   5   1  -1  117.28   30.03
  -5  -1   1  119.70   28.20
   5   1   1  126.27   31.06
  -5  -1   1  124.62   30.37
   5   1   1  116.22   29.98
  -5  -1   1  119.44   26.76
   5   0  -1    2.59    1.12
   5   0  -1    2.71    1.36
  -5   0  -1    3.82    1.65
  -5   0  -1    4.49    0.98
   5   0  -1    2.97    1.52
  -5   0  -1    3.99    1.01
   5   0  -1    3.88    2.15
  -5   0   1    5.05    1.04
   5   0   1    2.88    1.32
   5   0   1    4.49    1.29
   5   0   1    4.13    1.15
  -5   0   1    5.90    2.12
   5   0   1    3.93    1.93
   5  -1  -1  130.58   32.48
   5  -1  -1  133.21   31.53
   5  -1  -1  141.29   36.57
   5  -1   1  134.52   31.40
   5  -1   1  113.05   34.96
  -5   1   1  142.57   31.79
   5  -2  -1   33.86   11.15
   5  -2   1   35.77   10.70
   6   4  -1    0.42    1.36
   6   3  -1    0.49    1.23
  -6  -3  -1    0.13    3.03
   6   3  -1    0.57    1.19
   6   3   1    1.54    1.27
  -6  -3   1    0.67    0.87
   6   3   1    1.52    1.91
   6   2  -1  134.94   38.04
   6   2  -1  157.69   37.73
  -6  -2   1  135.80   35.08
   6   2   1  148.99   33.56
  -6  -1  -1    9.37    2.10
   6   1  -1    9.91    2.35
   6   1  -1    6.56    2.36
   6   1   1    9.59    2.33
  -6  -1   1    7.43    1.99
   6   1   1    6.87    2.22
   6   1   1    7.38    2.49
  -6  -1   1    7.94    2.09
  -6   0  -1   -0.15    0.44
   6   0  -1    0.20    1.33
   6   0  -1   -0.09    0.75
  -6   0  -1   -0.06    0.43
  -6   0   1   -0.05    0.57
   6   0   1    0.61    1.36
   6   0   1    0.29    0.78
   6   0   1    0.26    0.92
   6  -1  -1   10.66    2.35
   6  -1  -1   10.58    2.70
  -6   1   1    9.88    3.64
   6  -1   1    7.83    2.26
   6  -2  -1  172.31   38.53
   6  -2   1  152.80   45.38
  -6   2   1  158.23   41.29
  -6   3  -1    0.61    3.30
   6  -3   1    0.61    1.76
   6  -3   1    0.43    4.01
   7   4  -1   32.01    7.38
   7   4  -1   37.94    8.44
  -7  -4   1    5.18    9.33
   7   4   1   37.24    7.23
  -7  -3  -1   -0.39    3.54
   7   3  -1    0.73    1.36
   7   3  -1    0.88    1.44
   7   3  -1    0.55    1.98
   7   3   1    2.47    2.22
  -7  -3   1    3.20    0.97
  -7  -3   1    0.31    3.06
   7   3   1    1.14    1.46
   7   2  -1   43.21    8.93
   7   2  -1   29.20    8.22
   7   2  -1   30.27    8.83
   7   2  -1   25.35    9.05
  -7  -2  -1   25.04    9.26
  -7  -2   1   41.19    9.15
  -7  -2   1   32.19    8.33
   7   2   1   35.47    9.30
   7   2   1   38.30    8.83
   7   2   1   33.17    8.09
  -7  -1  -1    8.98    3.06
   7   1  -1    9.04    2.61
   7   1  -1    9.07    2.64
  -7  -1  -1   10.95    2.33
   7   1  -1    9.30    3.38
   7   1  -1    6.51    2.58
  -7  -1   1   11.63    2.30
   7   1   1   14.98    3.29
  -7  -1   1    6.88    2.18
   7   1   1    5.97    2.42
   7   1   1    6.74    2.76
   7   1   1    9.59    2.62
  -7  -1   1    7.29    3.16
   7   0  -1    2.85    2.90
   7   0  -1    1.63    1.62
  -7   0  -1    0.95    2.01
  -7   0  -1    1.75    0.67
  -7   0  -1    1.43    0.64
   7   0  -1    2.48    1.66
   7   0  -1    1.05    0.98
  -7   0   1   -0.31    2.15
   7   0   1    2.03    1.30
   7   0   1    1.16    1.01
  -7   0   1    1.05    3.00
  -7   0   1    1.41    0.78
   7   0   1    3.32    2.69
   7   0   1    1.81    1.58
   7  -1  -1   12.19    4.66
   7  -1  -1    9.05    2.54
   7  -1  -1   11.57    2.93
  -7   1   1    9.52    4.09
   7  -1   1    8.95    2.47
   7  -1   1   13.43    4.37
   7  -2  -1   35.05   11.66
   7  -2  -1   35.52    8.97
   7  -2   1   42.13   11.20
  -7   2   1   28.51   10.01
   7  -2   1   39.30    9.58
   7  -3  -1    1.52    2.02
   7  -3  -1    0.88    5.03
  -7   3  -1    0.22    3.82
   7  -3   1   -3.76    4.79
   7  -3   1   -0.29    1.95
  -7   4  -1   28.82    9.92
   7  -4   1   31.58   11.14
   7  -4   1   29.38    8.17
   8   5  -1   57.31   14.50
   8   4  -1    9.25    3.39
  -8  -4  -1    3.71    5.33
   8   4  -1   10.76    3.09
   8   4  -1   13.97    3.79
   8   4   1   10.87    2.95
  -8  -4   1   10.55    5.24
   8   4   1    7.38    3.76
   8   3  -1  135.36   22.33
  -8  -3  -1   40.75   23.88
   8   3  -1   85.45   20.73
  -8  -3   1  118.96   23.82
   8   3   1   71.85   24.49
   8   3   1   65.86   20.24
   8   3   1   93.97   22.12
  -8  -2  -1    8.35    3.41
   8   2  -1    6.93    2.55
   8   2  -1    5.93    2.27
   8   2  -1    4.67    3.07
   8   2  -1    6.94    2.66
   8   2   1    8.41    2.24
   8   2   1    8.35    2.44
   8   2   1    4.70    2.97
  -8  -2   1    5.95    3.37
  -8  -2   1    8.90    2.06
  -8  -1  -1    1.71    0.84
  -8  -1  -1    2.99    2.45
   8   1  -1    1.04    1.46
   8   1  -1    1.47    1.50
   8   1  -1    3.76    3.00
   8   1  -1    1.34    1.94
  -8  -1  -1    1.32    0.74
   8   1   1    1.71    2.72
   8   1   1    0.96    1.08
   8   1   1    1.12    1.84
  -8  -1   1    0.98    0.81
   8   1   1    1.29    1.55
  -8  -1   1    1.47    2.44
  -8  -1   1    0.82    0.81
   8   0  -1   -0.88    1.91
   8   0  -1   -0.40    1.85
   8   0  -1    0.57    1.11
  -8   0  -1    0.02    0.59
  -8   0  -1    0.26    0.69
  -8   0  -1   -0.30    2.46
   8   0  -1   -1.07    3.46
   8   0   1   -0.08    1.95
   8   0   1    0.29    1.51
   8   0   1   -0.17    1.10
  -8   0   1   -1.48    2.64
   8   0   1    1.67    3.31
  -8   0   1    0.26    0.86
  -8   0   1   -3.11    3.60
   8  -1  -1    2.66    1.91
  -8   1  -1    2.84    2.62
   8  -1  -1   -2.13    4.25
   8  -1  -1    0.74    0.96
  -8   1  -1    2.29    3.49
   8  -1   1    2.86    2.00
  -8   1   1    1.57    3.69
   8  -1   1    4.28    4.06
   8  -1   1    1.49    0.87
   8  -2  -1    8.61    2.33
   8  -2  -1    9.72    2.94
   8  -2  -1    2.06    5.89
   8  -2   1    8.53    2.23
  -8   2   1    8.99    4.78
   8  -2   1    6.61    5.49
   8  -3  -1   71.34   20.62
   8  -3  -1   69.49   27.05
  -8   3   1   68.71   23.22
   8  -3   1  108.26   26.30
   8  -4  -1    8.24    7.35
  -8   4  -1    8.38    5.72
   8  -4   1    7.80    3.51
   8  -4   1   16.91    7.05
   9   5  -1   11.57    3.74
   9   5  -1    7.74    3.40
  -9  -5   1   -2.19    6.05
   9   5   1   14.55    3.42
   9   4  -1   88.22   24.51
   9   4  -1   97.64   22.62
  -9  -4  -1   28.18   27.07
   9   4  -1  107.52   26.60
  -9  -4   1   71.52   27.52
   9   4   1  109.80   24.12
   9   4   1  100.01   21.82
   9   3  -1    1.52    2.46
  -9  -3  -1    1.52    4.05
   9   3  -1   -1.00    2.17
   9   3   1   -0.53    2.66
   9   3   1    0.30    1.47
  -9  -3   1    0.11    3.36
   9   3   1    0.35    2.02
  -9  -3   1   -0.08    1.21
   9   2  -1   34.43    9.92
   9   2  -1   36.66    9.34
  -9  -2  -1   45.68   10.32
   9   2   1   32.51    9.10
  -9  -2   1   38.86   10.27
  -9  -2   1   38.47    8.74
   9   2   1   42.88    9.77
   9   2   1   26.16    9.56
  -9  -1  -1   -0.49    0.87
  -9  -1  -1    0.03    0.75
   9   1  -1    0.09    2.21
   9   1  -1   -1.52    1.72
  -9  -1  -1   -0.78    2.77
   9   1  -1   -1.16    3.31
   9   1  -1   -0.05    1.70
  -9  -1   1   -0.25    0.87
   9   1   1    0.17    1.34
  -9  -1   1   -1.23    2.76
  -9  -1   1    0.81    0.84
   9   1   1    0.70    2.19
   9   1   1    1.12    3.14
   9   1   1    0.69    1.64
   9   0  -1    4.80    4.00
  -9   0  -1    0.23    0.68
   9   0  -1    0.77    1.40
   9   0  -1    0.07    2.43
  -9   0  -1    0.03    0.87
   9   0  -1    0.54    2.23
  -9   0  -1    3.16    4.58
  -9   0  -1   -0.60    2.99
   9   0   1    4.84    3.81
  -9   0   1    1.20    0.99
   9   0   1    1.19    1.40
   9   0   1    0.84    2.38
  -9   0   1    0.26    0.75
  -9   0   1    0.18    4.25
  -9   0   1    1.97    3.06
   9  -1  -1   -0.39    2.28
   9  -1  -1    1.54    4.79
  -9   1  -1   -0.77    4.17
  -9   1  -1   -0.64    2.98
   9  -1  -1   -0.16    1.08
   9  -1   1    5.00    4.64
   9  -1   1    0.37    2.27
  -9   1   1   -3.59    4.36
   9  -2  -1   44.16   10.05
   9  -2  -1   41.61   10.51
   9  -2  -1   38.99   13.25
   9  -2   1   39.78   12.75
  -9   2   1   40.81   11.12
   9  -3  -1    0.49    2.69
   9  -3  -1   -2.65    6.53
  -9   3   1    0.28    5.15
   9  -3   1    0.19    6.07
   9  -4  -1  100.17   32.35
  -9   4  -1   99.12   27.35
   9  -4   1  103.33   31.55
   9  -4   1   92.22   24.46
   9  -5   1   20.61    8.97
  10   6  -1   17.07    5.13
  10   5  -1   30.56    6.91
 -10  -5  -1    1.25    8.74
  10   5  -1   22.84    5.95
  10   5  -1   22.60    6.93
  10   5   1   25.30    5.79
 -10  -5   1    1.89    8.65
  10   4  -1    2.48    2.52
  10   4  -1    3.20    3.18
  10   4  -1    3.71    2.28
 -10  -4  -1   -2.30    5.77
  10   4   1    3.59    3.33
  10   4   1    3.22    2.64
 -10  -4   1    2.11    5.04
  10   3  -1   60.21   16.36
  10   3  -1   58.64   16.66
  10   3  -1   46.00   15.63
 -10  -3  -1   78.39   18.07
  10   3   1   55.41   15.18
 -10  -3   1   70.78   17.93
 -10  -3   1   65.93   16.83
  10   3   1   56.39   16.22
 -10  -2  -1    1.53    3.28
  10   2  -1    1.12    3.19
  10   2  -1    1.37    2.53
  10   2   1   -1.08    3.01
 -10  -2   1   -2.53    3.23
  10   2   1    0.20    2.46
 -10  -1  -1   -1.31    3.39
  10   1  -1    2.55    2.68
  10   1  -1    0.43    3.68
  10   1   1    3.92    3.75
 -10  -1   1    5.85    1.19
  10   1   1    3.44    2.73
 -10  -1   1    1.35    1.26
 -10  -1   1    1.99    3.26
 -10   0  -1    3.63    5.15
  10   0  -1    2.00    4.46
  10   0  -1   -1.23    2.46
 -10   0  -1    2.96    3.41
  10   0   1    3.19    2.60
 -10   0   1   -1.28    3.39
  10   0   1    1.08    4.08
 -10   0   1   -2.51    4.96
 -10   1  -1    2.62    3.83
 -10   1  -1    2.42    5.10
  10  -1  -1    0.88    2.64
  10  -1  -1    0.47    5.48
  10  -1   1    0.14    4.94
  10  -1   1    3.30    2.70
 -10   1   1    2.32    3.76
 -10   1   1    1.82    5.11
  10  -2  -1    4.51    6.40
  10  -2  -1   -0.37    2.79
 -10   2   1    2.10    5.39
  10  -2   1  -12.04    6.13
  10  -2   1   -1.40    2.74
  10  -3  -1   88.64   24.70
  10  -3  -1   92.66   19.53
  10  -3   1   98.55   24.09
 -10   3   1   91.17   21.33
 -10   4  -1    0.99    5.97
  10  -4  -1   -5.85    8.28
  10  -4  -1    4.90    3.29
  10  -4   1   -1.39    7.81
 -10   4   1   -3.22    6.27
 -10   5  -1   18.36    8.79
  10  -5   1   13.84   10.81
  11   6  -1    6.27    3.59
 -11  -5  -1   10.98    7.94
  11   5  -1    3.23    3.71
  11   5  -1    4.63    4.65
 -11  -5   1   -1.25    7.41
  11   5   1    7.39    3.84
  11   4  -1   29.25   11.13
  11   4  -1   40.32   10.50
 -11  -4  -1   25.21   13.41
  11   4   1   43.98   10.27
 -11  -4   1   30.21   13.38
  11   4   1   45.80   11.00
  11   3  -1    1.57    2.87
 -11  -3  -1   -1.41    4.69
  11   3  -1    1.83    3.23
  11   3   1   -0.68    2.89
 -11  -3   1    2.76    4.21
  11   3   1    1.23    3.30
  11   2  -1    1.78    3.98
 -11  -2  -1    9.63    4.45
  11   2  -1    4.74    3.46
  11   2   1    4.44    3.32
 -11  -2   1    7.40    4.31
  11   2   1   10.38    3.81
  11   1  -1    2.80    4.92
 -11  -1  -1    7.00    4.63
  11   1  -1    5.86    3.79
  11   1   1   12.40    3.81
 -11  -1   1    9.19    4.61
  11   1   1   13.99    4.62
 -11  -1   1   15.11    6.51
  11   0  -1    6.01    5.37
 -11   0  -1    5.16    4.09
 -11   0  -1    7.82    6.30
  11   0  -1    6.38    3.30
 -11   0   1    7.99    4.25
  11   0   1    2.29    3.42
  11   0   1    6.91    5.21
 -11   0   1    5.73    5.83
 -11   1  -1    6.77    4.76
  11  -1  -1   10.33    6.48
  11  -1  -1    8.73    3.51
 -11   1  -1    9.53    6.17
 -11   1   1    6.95    4.83
  11  -1   1    5.88    3.55
 -11   1   1    0.77    6.10
  11  -1   1    6.65    6.11
  11  -2  -1    7.60    7.61
 -11   2  -1    9.27    5.04
  11  -2  -1    7.03    3.75
 -11   2  -1    6.00    6.05
 -11   2   1    8.20    6.69
  11  -2   1   -0.19    6.94
  11  -2   1   11.57    3.78
  11  -3  -1    3.85    3.40
  11  -3  -1    6.41    8.36
  11  -3   1   19.36    8.39
 -11   3   1   -3.70    6.38
  11  -4  -1   61.73   12.49
  11  -4  -1   51.75   17.87
 -11   4   1   47.75   14.74
  11  -4   1   45.89   17.29
 -11   5  -1   15.50    9.28
  11  -5   1   31.39    6.65
  12   6  -1    1.14    3.84
  12   6   1    1.32    3.71
  12   5  -1   28.17    6.68
  12   5  -1   11.88    6.08
 -12  -5  -1    2.59    9.74
  12   5   1   19.11    5.92
  12   5   1   15.22    6.65
 -12  -5   1    2.15    9.79
  12   4  -1    1.07    3.87
 -12  -4  -1    5.44    7.02
  12   4  -1    0.13    3.66
 -12  -4   1   -0.63    6.17
  12   4   1   -0.76    4.00
  12   4   1   -0.13    3.30
  12   3  -1   13.31    5.59
  12   3  -1   13.66    5.62
 -12  -3  -1   14.94    7.22
  12   3   1   18.48    5.68
 -12  -3   1   14.61    7.01
  12   3   1   17.59    5.34
 -12  -2  -1    2.50    4.66
  12   2  -1    2.77    3.60
  12   2  -1    5.62    4.11
  12   2   1   -1.57    3.83
  12   2   1   -1.57    4.21
 -12  -2   1   -1.18    4.79
 -12  -1  -1   15.11    6.73
  12   1  -1    7.81    5.55
 -12  -1   1    9.86    6.54
  12   1   1   26.15    5.92
 -12  -1   1    6.95    8.06
  12   0  -1  -13.04    5.94
 -12   0  -1    1.03    5.08
 -12   0  -1   14.40    7.84
  12   0  -1    2.48    3.33
  12   0   1   -2.61    6.49
 -12   0   1   -3.85    6.91
 -12   0   1    1.52    4.65
  12   0   1   -9.37    3.89
 -12   1  -1   11.03    7.25
  12  -1  -1   39.89    8.85
  12  -1  -1    7.43    5.68
 -12   1  -1   10.71    8.48
 -12   1   1    9.21    7.34
 -12   1   1   10.03    8.23
  12  -1   1   30.53    5.96
 -12   2  -1    7.34    5.17
  12  -2  -1    5.01    8.08
  12  -2  -1    0.45    3.58
 -12   2  -1    5.65    7.10
  12  -2   1    1.30    3.68
 -12   2   1   11.79    7.15
  12  -2   1  -13.28    8.01
  12  -3  -1   14.18    6.00
  12  -3  -1   21.38   10.93
  12  -3   1   12.26   10.42
 -12   3   1   37.80    9.39
  12  -3   1   24.55    6.05
  12  -4  -1  -10.52    9.86
  12  -4  -1   -8.47    3.83
  12  -4   1    1.09    9.85
 -12   4   1   19.89    8.03
 -12   5  -1   37.22   11.42
  12  -5   1   55.24    8.84
  12  -5   1    7.36   13.83
 -13  -6   1    4.32    9.11
  13   5  -1   12.16    4.38
  13   5  -1    3.15    4.66
 -13  -5   1    4.83    8.64
  13   4  -1   18.52    5.44
 -13  -4  -1   16.54    8.92
  13   4  -1   14.73    5.49
 -13  -4   1    3.88    8.14
  13   4   1   11.19    5.52
  13   3  -1   -0.15    4.04
 -13  -3  -1    4.63    6.09
  13   3  -1   -1.05    4.01
 -13  -3   1   -3.09    5.77
  13   3   1   12.05    3.93
  13   3   1   -1.48    4.02
 -13  -2  -1    2.82    5.36
  13   2  -1    0.88    4.40
  13   2  -1    0.90    3.92
  13   2   1    1.00    4.31
 -13  -2   1  -11.07    8.36
  13   2   1   -3.14    4.13
 -13  -2   1   -2.80    5.10
 -13  -1  -1    7.23    8.52
  13   1  -1    7.47    3.95
  13   1  -1    1.50    5.45
 -13  -1  -1    9.98    5.52
 -13  -1   1   -7.58    8.20
 -13  -1   1    6.22    5.08
  13   1   1    0.15    5.37
  13   1   1    3.34    4.16
  13   0  -1   -0.15    3.74
 -13   0  -1    4.41    8.26
 -13   0  -1    5.11    5.40
  13   0  -1  -10.37    6.48
 -13   0   1    6.32    7.84
 -13   0   1    5.15    5.23
  13   0   1   -5.70    6.21
  13   0   1   -2.55    4.15
  13  -1  -1    4.22    4.20
  13  -1  -1    7.16    7.82
 -13   1  -1    0.60    5.86
 -13   1  -1   16.67    8.01
  13  -1   1   16.72    4.00
 -13   1   1    3.33    7.74
  13  -1   1    0.19    7.48
 -13   1   1    2.58    5.97
 -13   2  -1    2.54    5.93
  13  -2  -1    4.45    8.70
  13  -2   1  -26.46    8.43
 -13   2   1    0.32    6.24
 -13   2   1   31.30    7.91
  13  -3  -1  -13.37   10.32
 -13   5   1    2.50    8.16
  14   7  -1    1.30    4.83
  14   6  -1   14.18    5.88
  14   6   1    6.20    5.39
 -14  -6   1   27.39   10.46
  14   5  -1    4.91    5.76
 -14  -5  -1   18.45   11.01
  14   5   1   13.81    5.60
  14   5   1   16.05    6.00
 -14  -4  -1   22.94    8.57
  14   4   1   30.05    5.88
  14   4   1   12.23    6.13
  14   3   1    7.84    4.81
  14   2   1    3.23    5.41
  14   1   1   -0.17    4.44
 -14   0  -1   -2.51    9.14
  14   0   1    1.00    4.33
  14  -1  -1   -0.17    4.28
 -14   1  -1   -4.11    8.87
  14  -1   1   -1.74    4.66
 -14   2  -1   21.93    7.42
  14  -2  -1    7.71    5.38
 -14   2  -1   -5.19    9.51
  14  -2   1    1.83    5.32
 -14   2   1    1.25    9.66
  14  -3  -1    0.29   11.26
  14  -3  -1    0.59    4.84
 -14   3  -1   10.12    7.13
 -14   3  -1   18.50    9.81
 -14   3   1   17.32    7.10
 -14   3   1   25.39    9.70
  14  -3   1    2.68    5.04
  14  -3   1    9.87   10.49
  14  -4  -1  -21.18   12.77
  14  -4  -1   -8.20    4.95
  14  -4   1  -34.85   12.28
 -14   4   1   10.39    9.83
  14  -5  -1    8.16   14.10
 -14   5   1   18.89   10.40
  14  -5   1   16.01   13.34
  15   7  -1   -1.83    5.42
  15   6  -1    2.77    5.38
 -15  -6  -1   -0.40   10.33
  15   6   1    6.37    5.40
 -15  -6   1  -11.07   10.26
  15   5  -1   -1.79    5.00
  15   5  -1    3.84    5.23
 -15  -5  -1    1.07    9.83
  15   5   1    8.63    5.15
 -15  -5   1   -3.01    9.85
  15   5   1   -1.93    5.16
 -15  -4  -1   12.16    9.78
  15   4  -1    5.93    5.90
  15   4  -1    4.47    5.55
  15   4   1    0.32    5.64
 -15  -4   1   14.45    9.35
  15   4   1   23.53    5.75
 -15  -3  -1   -2.40    8.00
  15   3  -1    3.78    5.11
  15   3  -1   -2.85    4.95
  15   3   1    4.36    5.25
 -15  -3   1   -1.07    7.29
  15   3   1  -11.21    5.03
 -15  -3   1   -2.76   10.82
 -15  -2  -1    4.13    6.98
  15   2  -1   -2.42    5.60
 -15  -2  -1    1.20   10.88
  15   2  -1   -9.14    5.11
 -15  -2   1    2.47    6.63
  15   2   1   -6.06    5.57
 -15  -2   1   -5.42   10.52
  15   2   1    0.57    5.15
  15   1  -1   -4.38    4.94
 -15  -1  -1   -3.29    7.16
 -15  -1  -1   24.98   10.88
  15   1  -1   -0.36    6.84
  15   1   1   -8.94    6.92
 -15  -1   1    2.44    6.64
  15   1   1   -2.80    5.10
 -15  -1   1   -7.44   10.25
  15   0  -1    1.90    8.21
 -15   0  -1    5.65    9.95
  15   0  -1   -6.02    5.18
 -15   0  -1   -4.13    7.20
 -15   0   1    8.25    7.04
  15   0   1  -12.42    8.29
  15   0   1   -7.22    5.14
 -15   0   1   -8.93   10.09
  15  -1  -1    2.95    5.04
 -15   1  -1    2.56   10.50
 -15   1  -1   -3.40    6.96
  15  -1  -1   -6.70    9.56
 -15   1   1   -2.28    7.15
 -15   1   1   12.93   10.06
  15  -1   1   11.47    9.09
  15  -1   1    5.00    5.11
  15  -2  -1   18.08   10.55
 -15   2  -1   -0.59    7.08
 -15   2  -1    9.14   10.92
  15  -2  -1    0.21    5.09
  15  -2   1    3.24    5.14
 -15   2   1   12.14   10.29
  15  -2   1  -11.94   10.02
 -15   2   1    3.58    7.45
  15  -3  -1    5.31   11.55
  15  -3  -1    0.22    5.01
 -15   3  -1  -13.79   10.56
 -15   3  -1   -1.02    7.69
 -15   3   1   -3.10    7.86
  15  -3   1    3.22    5.17
 -15   3   1   12.09   10.35
  15  -3   1   -4.40   10.91
  15  -4  -1   18.12   13.49
  15  -4  -1    4.71    5.73
 -15   4  -1   10.55    8.67
 -15   4   1   10.33   10.93
  15  -4   1    4.03   12.81
  15  -4   1   22.59    6.05
  15  -5  -1  -12.34   14.02
 -15   5   1   -4.11   10.65
  15  -5   1   -0.37   13.44
  16   7  -1   17.37    7.81
  16   6  -1   20.14    7.45
 -16  -6  -1   17.18   13.02
  16   6   1    1.12    6.96
 -16  -6   1   37.44   12.92
 -16  -5  -1   10.16   11.34
  16   5  -1   10.01    5.61
  16   5  -1   -2.60    6.21
  16   5   1    2.83    5.80
 -16  -5   1   25.26   11.40
  16   5   1    0.22    5.80
 -16  -4  -1   -8.96   10.22
  16   4  -1    3.01    5.48
  16   4  -1    0.22    5.82
  16   4   1    4.86    5.52
  16   4   1   -9.81    5.94
 -16  -4   1    5.85    9.58
  16   3  -1    1.07    5.70
  16   3  -1   -0.16    5.32
 -16  -3  -1   -5.63    8.74
  16   3   1    6.44    5.86
  16   3   1    0.33    5.43
 -16  -3   1    9.44    8.41
 -16  -3   1  -23.22   11.70
 -16  -2  -1    0.23    7.85
  16   2  -1    2.20    5.98
 -16  -2  -1    6.24   11.60
  16   2  -1   10.44    5.61
 -16  -2   1   -0.86    7.25
 -16  -2   1   23.56   11.70
  16   2   1  -13.63    5.65
  16   2   1   -2.87    5.77
  16   1  -1    6.87    5.32
  16   1  -1   -0.77    6.97
 -16  -1  -1   -5.89    7.47
 -16  -1  -1   10.28   11.76
  16   1   1    2.83    6.78
 -16  -1   1   -2.96    7.74
 -16  -1   1   22.34   11.18
  16   1   1   11.59    5.78
 -16   0  -1   -9.21   11.91
 -16   0  -1   -9.25    7.73
  16   0  -1  -10.69    8.57
  16   0  -1  -10.43    5.54
  16   0   1    1.53    7.81
 -16   0   1    1.04    7.54
 -16   0   1   -7.86   11.37
  16   0   1    0.21    5.47
  16  -1  -1    9.82    5.55
  16  -1  -1  -17.40   10.11
 -16   1  -1   27.81   11.41
 -16   1  -1    2.14    8.28
 -16   1   1   29.12   11.65
  16  -1   1  -10.41    9.66
 -16   1   1    5.91    8.05
  16  -1   1    3.05    5.86
 -16   2  -1    8.55    8.25
  16  -2  -1   -0.23    5.22
 -16   2  -1   -4.12   11.64
  16  -2  -1    1.76   10.95
  16  -2   1    1.82    5.72
  16  -2   1    7.10   10.46
 -16   2   1   -0.22    8.22
 -16   2   1   -5.82   11.95
  16  -3  -1    0.24    5.61
 -16   3  -1    8.82   11.79
 -16   3  -1    8.41    8.46
  16  -3  -1    9.00   12.17
  16  -3   1    1.42    5.91
 -16   3   1   -2.30    8.75
 -16   3   1   -1.68   11.89
  16  -3   1  -21.39   11.72
  16  -4  -1  -38.98   14.16
 -16   4  -1    8.24   11.77
  16  -4  -1   -0.25    5.52
 -16   4  -1    7.27    9.03
 -16   4   1  -22.81   12.04
 -16   4   1   -4.27    8.86
  16  -4   1   10.02   13.01
  16  -4   1    4.17    5.93
 -16   5  -1  -23.49    9.06
  16  -5  -1    2.56   15.52
 -16   5   1  -16.72   11.78
  16  -5   1    0.39   14.28
  17   7  -1    9.03    7.32
 -17  -6  -1   10.24   12.76
  17   6  -1   -2.01    7.09
 -17  -6   1   -1.78   12.50
  17   6   1   20.23    6.96
  17   5  -1   -0.19    5.95
 -17  -5  -1   -0.43   12.04
  17   5  -1    8.58    6.67
 -17  -5   1   -7.62   11.69
  17   5   1    5.51    6.20
  17   5   1    6.37    6.63
 -17  -4  -1    6.12   11.71
  17   4  -1    9.73    6.67
  17   4  -1   13.38    6.33
  17   4   1   -6.13    6.70
  17   4   1   -3.64    6.10
 -17  -4   1   42.50   14.61
 -17  -4   1   -0.68   10.63
 -17  -3  -1   14.65   14.12
 -17  -3  -1  -13.77   10.71
  17   3  -1  -14.52    6.72
  17   3   1   -9.64    7.08
 -17  -3   1  -31.86   13.78
 -17  -3   1   -3.72   10.22
 -17  -2  -1   15.38   12.63
 -17  -2  -1   19.48   15.44
  17   2  -1   26.79    9.46
  17   2   1   26.61    9.53
 -17  -2   1   36.32   12.52
 -17  -2   1   37.51   15.02
 -17  -1  -1   59.25   16.81
 -17  -1  -1   27.86   18.64
  17   1  -1   42.65   15.99
  17   1  -1   79.74   13.92
 -17  -1   1   10.00   18.16
 -17  -1   1   30.43   16.68
  17   1   1   76.15   15.97
  17   0  -1    7.31    7.13
 -17   0  -1    3.47    9.68
 -17   0  -1   14.15   13.73
  17   0  -1   -4.07   10.59
 -17   0   1    9.77    9.76
 -17   0   1   24.91   13.22
  17   0   1   16.35   10.22
  17  -1  -1   40.79   11.98
  17  -1  -1   23.36   16.79
 -17   1  -1   12.12   17.24
 -17   1  -1   12.16   15.52
  17  -1   1   54.93   16.66
 -17   1   1   38.29   17.34
  17  -1   1   45.07   12.05
 -17   1   1   20.99   15.79
 -17   2  -1   12.91   11.30
  17  -2  -1   11.93    8.08
  17  -2  -1  -17.61   14.15
 -17   2  -1   17.65   14.71
  17  -2   1    1.26    8.00
  17  -2   1   41.55   14.06
 -17   2   1   24.30   14.48
 -17   2   1   22.28   12.01
 -17   3  -1  -21.22   13.60
  17  -3  -1    0.26    6.20
 -17   3  -1   -1.01    9.88
  17  -3  -1   22.06   13.66
  17  -3   1   -4.69    6.48
 -17   3   1    5.04   13.20
  17  -3   1  -15.74   12.88
 -17   3   1   -1.78    9.80
  17  -4  -1   -0.27    6.62
 -17   4  -1   10.40   10.13
 -17   4  -1   15.09   13.62
  17  -4  -1    6.09   15.42
 -17   4   1    4.01   12.98
 -17   4   1    4.99   10.53
  17  -4   1   29.42   14.35
  17  -4   1    0.27    6.44
  17  -5  -1   -6.24   16.48
 -17   5  -1  -12.35   10.42
 -17   5   1   -0.81   10.61
 -17   5   1   -3.54   12.54
  17  -5   1   24.20   15.50
  17  -5   1    0.28    6.60
  18   7  -1  -13.21    8.36
  18   6  -1  -10.78    8.95
 -18  -6  -1  -51.68   15.94
 -18  -6   1  -39.26   15.39
  18   6   1   -8.51    8.88
  18   5  -1    2.69    6.73
  18   5  -1   12.72    7.95
 -18  -5  -1   -4.24   13.44
  18   5   1  -19.36    6.72
  18   5   1  -16.35    7.96
 -18  -5   1   -9.28   13.52
 -18  -4  -1   -7.23   12.92
  18   4  -1   -0.81    6.52
 -18  -4  -1   17.78   16.28
  18   4  -1    4.33    7.28
 -18  -4   1   17.92   11.87
 -18  -4   1   -7.20   15.32
  18   4   1   -2.74    6.62
  18   4   1   -4.68    7.46
 -18  -3  -1    6.48   11.36
  18   3  -1    1.97    6.68
  18   3  -1   -6.18    6.93
 -18  -3  -1   27.06   15.49
  18   3   1  -14.22    6.87
 -18  -3   1   -6.12   10.52
 -18  -3   1    4.96   14.74
  18   3   1   -5.08    7.28
 -18  -2  -1   -8.70   10.35
  18   2  -1  -12.53    7.48
  18   2  -1    4.04    6.70
 -18  -2  -1   -5.05   15.04
 -18  -2   1  -13.40    9.99
  18   2   1    0.26    6.90
  18   2   1   -2.51    7.34
 -18  -2   1  -15.44   14.15
  18   1  -1    1.86    8.27
  18   1  -1    1.03    6.89
 -18  -1  -1    2.31   14.29
 -18  -1  -1   -3.94    9.85
 -18  -1   1  -13.08   14.39
 -18  -1   1   -1.89    9.70
  18   1   1   -2.84    6.68
  18   1   1   12.79    8.25
 -18   0  -1   11.70   10.27
 -18   0  -1   33.35   15.39
  18   0  -1    0.53    7.00
  18   0  -1   13.29    9.99
  18   0   1   13.09    9.65
 -18   0   1   -5.35    9.94
  18   0   1    5.24    7.28
 -18   0   1   19.05   14.56
  18  -1  -1    8.68    7.25
  18  -1  -1   14.92   11.89
 -18   1  -1    2.48   14.41
 -18   1  -1   -3.61   10.25
 -18   1   1    5.07   14.47
  18  -1   1    6.27    7.07
 -18   1   1    7.29   10.19
  18  -1   1   49.10   11.83
  18  -2  -1    1.40   13.14
 -18   2  -1    7.70   10.28
 -18   2  -1    6.62   14.66
  18  -2  -1    0.84    6.97
  18  -2   1    0.28    6.84
 -18   2   1   22.57   14.29
  18  -2   1   -8.43   12.44
 -18   2   1    2.17   10.20
  18  -3  -1    7.33   14.35
 -18   3  -1   18.18   14.96
 -18   3  -1   -2.79   10.56
  18  -3  -1    0.29    7.00
  18  -3   1    0.29    7.26
 -18   3   1  -16.17   14.10
 -18   3   1   10.43   10.98
  18  -3   1   -9.32   13.58
 -18   4  -1   13.85   11.01
  18  -4  -1    0.30    6.92
  18  -4  -1   -7.78   15.23
 -18   4  -1   38.40   14.97
  18  -4   1  -16.74   15.33
 -18   4   1   -0.29   11.35
 -18   4   1   -0.74   14.58
  18  -4   1    0.89    6.83
 -18   5  -1  -12.49   11.68
  18  -5  -1   -0.47   17.89
 -18   5  -1    2.33   15.02
  18  -5   1  -19.57   17.01
 -18   5   1  -20.13   11.83
  18  -5   1    0.31    7.08
 -18   5   1  -19.55   14.35
  19   7  -1    7.89    9.53
  19   6  -1    8.63    9.08
 -19  -6  -1  -16.63   14.85
  19   6   1   -9.94    8.74
 -19  -6   1  -19.07   15.48
 -19  -5  -1   -0.52   14.90
  19   5  -1  -23.53    8.64
  19   5  -1    9.31    7.20
 -19  -5   1  -21.48   17.75
  19   5   1    6.59    7.61
 -19  -5   1   19.41   15.27
  19   5   1   -6.26    8.71
 -19  -4  -1    1.27   17.39
  19   4  -1    7.09    8.01
  19   4  -1   -5.57    7.51
 -19  -4  -1   -2.85   14.98
 -19  -4   1    0.62   16.96
  19   4   1   -6.78    7.60
  19   4   1    0.31    8.66
 -19  -4   1   -1.36   14.52
 -19  -3  -1  -12.03   18.34
 -19  -3   1  -41.03   18.91
  19   2  -1  779.28  140.94
  19   2  -1  701.26  145.11
  19   2   1  755.80  140.10
 -19  -2   1  838.50  154.10
  19   2   1  712.60  144.26
 -19  -1  -1    3.32   15.19
 -19  -1  -1  -66.79   19.99
 -19   1  -1   12.13   13.51
  19  -1  -1   60.55   11.22
  19  -1  -1  -13.61   15.62
 -19   1   1   15.38   13.22
  19  -1   1   59.04   11.55
 -19   2  -1  173.35   88.28
  19  -2  -1  327.81  108.26
 -19   2  -1   70.07  101.40
  19  -2  -1  218.18   75.30
  19  -2   1  419.36  105.36
 -19   2   1  119.57   88.77
 -19   2   1   86.41  103.27
 -19   3  -1   -5.89   13.13
 -19   3  -1  -15.71   17.49
 -19   3   1  -23.94   13.69
 -19   3   1  -66.51   18.56
 -19   4  -1   28.91   17.05
 -19   4  -1   14.98   11.94
  19  -4  -1  -38.23   18.01
  19  -4  -1    3.64    7.59
  19  -4   1   -7.56    8.29
  19  -4   1  -37.72   17.37
 -19   4   1   11.91   12.46
 -19   4   1  -14.90   16.16
  19  -5  -1  -19.11   19.08
 -19   5  -1   -1.98   12.68
 -19   5  -1    3.46   16.61
 -19   5   1    9.64   12.94
  19  -5   1   12.82   18.31
 -20  -6  -1    3.05   16.60
  20   6  -1   -8.93   10.11
  20   6   1   -0.36    8.36
 -20  -6   1   -0.58   16.14
 -20  -6   1  -36.72   20.47
  20   5  -1  -17.04    9.54
  20   5  -1    5.88    8.03
 -20  -5  -1   10.03   17.42
 -20  -5  -1  -47.67   21.14
  20   5   1    8.08    8.30
 -20  -5   1  -27.06   16.75
  20   5   1  -19.65    9.63
 -20  -5   1   21.10   19.51
 -20  -4  -1    0.55   16.33
  20   4  -1  -13.18    8.48
 -20  -4  -1  -29.11   20.30
  20   4  -1   -4.91    9.03
  20   4   1  -12.08    9.36
  20   4   1    3.90    8.37
 -20  -4   1  -18.77   15.64
 -20  -4   1   11.11   18.90
  20   3  -1    9.55    8.43
  20   3  -1   17.47    8.84
 -20  -3  -1  -14.29   19.27
 -20  -3  -1   -2.45   15.47
  20   3   1    4.54    8.68
 -20  -3   1   -2.18   14.53
 -20  -3   1   29.00   18.34
  20   3   1    1.33    8.75
  20   2  -1    4.85    9.15
 -20  -2  -1  -21.48   14.48
 -20  -2  -1   52.74   19.14
  20   2  -1   14.85    8.82
  20   2   1   20.93    9.01
 -20  -2   1    2.67   13.42
 -20  -2   1   14.98   18.68
  20   2   1    6.90    9.38
 -20  -1  -1  -26.04   18.57
  20   1  -1  -17.49    8.86
 -20  -1  -1   25.96   13.25
  20   1  -1   -6.75   10.25
  20   1   1   -9.75    8.94
 -20  -1   1    0.74   17.96
 -20  -1   1  -22.49   13.37
  20   1   1   -7.26    9.71
 -20   0  -1   21.60   13.03
  20   0  -1   -2.00    8.50
  20   0  -1   -8.74   11.57
 -20   0  -1   10.77   18.38
 -20   0   1    2.43   12.56
  20   0   1  -28.19    9.06
  20   0   1   23.66   11.57
 -20   0   1   -2.31   17.86
 -20   1  -1   -9.79   19.08
  20  -1  -1    0.34    8.55
  20  -1  -1    1.81   13.49
 -20   1  -1    2.15   12.92
 -20   1   1  -41.50   18.98
  20  -1   1   -7.14    8.64
 -20   1   1   13.39   12.80
  20  -1   1   -7.33   12.88
 -20   2  -1   -9.05   13.09
  20  -2  -1    0.69    8.64
 -20   2  -1   28.03   19.15
  20  -2  -1    0.42   15.63
 -20   2   1   15.20   17.79
 -20   2   1    5.86   12.96
  20  -2   1   -0.35    8.90
  20  -2   1  -14.53   15.46
 -20   3  -1  -16.09   13.36
  20  -3  -1    1.84   17.18
  20  -3  -1   18.30    8.39
  20  -3   1   -4.42   16.60
 -20   3   1   13.31   17.74
 -20   3   1  -20.99   12.99
 -20   4  -1  -11.31   13.28
  20  -4  -1   -9.99   19.23
 -20   4   1   -5.67   14.06
  20  -4   1   -5.32   18.85
   0   1  -2    0.08    0.18
   1   0  -2   -0.01    0.03
   0   1  -2    0.01    0.05
   1   0  -2   -0.04    0.14
   0   1  -2    0.01    0.07
  -1   0   2    0.01    0.05
   0  -1   2   -0.02    0.05
   0  -1   2    0.01    0.05
   1   1  -2   -0.06    0.10
  -2  -1  -2    0.52    1.61
   2   1  -2    7.75    1.54
   2   1  -2    3.67    1.44
   2   1  -2    5.72    1.39
   2   1   2    1.72    1.46
  -2  -1   2    8.46    1.37
  -2  -1   2    8.45    1.55
  -2   0  -2   47.79    7.91
   2   0  -2   49.39    7.83
   2   0   2   36.84    7.98
  -2   0   2   44.04    7.69
  -2   0   2   47.44    8.10
   2   0   2   43.62    7.73
  -2   1  -2    9.21    1.88
   2  -1   2    6.55    2.11
   2  -1   2    7.78    1.83
  -2   2  -2    5.19    2.57
   2   2  -2    7.76    1.98
  -2  -2   2    7.50    1.79
   2  -2   2    8.30    2.05
   3   2  -2   33.17   10.52
   3   2  -2   47.65    9.43
   3   2  -2   33.98   10.10
   3   2  -2   42.83   10.99
  -3  -2   2   43.62    9.61
  -3  -2   2   28.12   10.78
  -3  -1  -2    0.56    0.90
   3   1  -2    0.66    0.50
   3   1  -2    0.14    0.75
   3   1  -2    0.50    0.45
   3   1  -2    0.84    0.48
  -3  -1   2    1.42    0.62
  -3  -1   2    0.69    0.33
   3   1   2    0.79    0.67
   3   0  -2    0.39    0.57
   3   0  -2   -0.56    1.06
  -3   0  -2   -0.13    0.60
   3   0  -2   -0.17    0.46
   3   0  -2    0.11    0.26
  -3   0   2    0.05    0.23
   3   0   2    0.18    0.44
  -3   0   2   -0.17    0.91
   3   0   2   -0.23    0.78
   3  -1  -2    0.46    0.60
  -3   1  -2    1.17    1.00
  -3   1   2   -0.42    1.20
   3  -1   2    0.85    0.56
   3  -1   2    0.55    1.22
  -3   2  -2   39.65   12.06
   3  -2   2   49.04   11.22
   3  -2   2   41.04   13.05
   3   3  -2    0.09    0.87
  -3  -3   2   -0.09    0.48
   4   3  -2   42.32   11.29
   4   3  -2   43.24   10.20
   4   2  -2    9.25    2.92
   4   2  -2   17.05    3.34
  -4  -2  -2    4.77    3.65
   4   2  -2    9.72    3.19
   4   2  -2   11.57    3.41
   4   2   2    6.41    2.83
   4   2   2    7.87    3.24
  -4  -2   2   15.77    2.96
  -4  -2   2   16.24    3.46
   4   1  -2    0.66    0.59
  -4  -1  -2    0.14    1.03
   4   1  -2    0.36    0.62
   4   1  -2   -0.03    0.64
   4   1  -2   -0.08    1.05
  -4  -1   2    0.46    0.87
   4   1   2    0.38    0.92
  -4  -1   2    0.27    0.39
  -4  -1   2    0.51    0.35
   4   0  -2    0.89    0.70
   4   0  -2    0.34    0.45
  -4   0  -2    0.94    0.88
   4   0  -2    0.81    0.83
   4   0  -2    0.28    1.48
  -4   0   2    1.09    0.37
  -4   0   2    0.73    1.28
   4   0   2   -0.22    1.20
  -4   1  -2    0.08    1.36
   4  -1  -2    0.24    0.38
   4  -1  -2    0.25    1.90
   4  -1  -2    0.05    0.82
  -4   1   2    0.58    1.65
   4  -1   2    0.47    1.69
   4  -1   2   -0.16    0.79
  -4   2  -2   13.55    3.90
   4  -2   2   12.34    4.46
   4  -2   2   11.55    3.46
  -4   3  -2   81.12   16.18
   4  -3   2   65.90   14.64
   5   3  -2   17.68    4.38
   5   3  -2   13.52    3.76
   5   3  -2   14.29    4.35
   5   3  -2   14.38    4.42
  -5  -3   2   18.20    3.77
  -5  -3   2   10.91    4.88
   5   2  -2   49.83   13.19
   5   2  -2   44.00   12.58
   5   2  -2   44.86   13.27
   5   2  -2   43.61   11.95
  -5  -2  -2   37.53   13.60
   5   2   2   49.72   12.73
  -5  -2   2   44.01   13.24
  -5  -2   2   62.96   12.14
  -5  -1  -2    4.99    1.79
   5   1  -2    3.54    1.98
   5   1  -2    4.29    1.45
   5   1  -2    5.12    1.50
   5   1  -2    3.99    1.36
  -5  -1   2    5.20    1.80
   5   1   2    2.38    1.74
  -5  -1   2    4.34    1.18
  -5  -1   2    5.08    1.16
   5   0  -2   -0.16    1.14
   5   0  -2   -0.32    0.55
   5   0  -2   -0.87    2.03
   5   0  -2    0.47    0.97
  -5   0  -2    0.09    1.26
   5   0   2   -0.55    1.62
  -5   0   2    0.29    0.45
  -5   0   2   -0.18    1.86
   5  -1  -2    5.35    1.27
   5  -1  -2    5.54    1.58
   5  -1  -2    4.55    3.03
   5  -1   2   -0.05    1.40
  -5   1   2    5.45    2.62
   5  -1   2    3.78    2.48
   5  -2   2   55.65   16.16
   6   4  -2    2.82    1.42
   6   3  -2   85.69   23.14
   6   3  -2   73.81   23.67
   6   3   2  102.71   19.91
   6   3   2   91.26   22.08
  -6  -3   2   92.02   21.22
   6   2  -2    3.88    2.19
   6   2  -2    7.78    2.04
  -6  -2  -2    4.31    2.96
   6   2   2    6.31    1.96
  -6  -2   2    6.52    1.81
   6   2   2    8.74    2.46
   6   1  -2    8.54    2.18
   6   1  -2    4.95    2.06
  -6  -1   2    7.03    1.75
  -6  -1   2    8.87    1.81
   6   1   2    6.09    2.06
   6   1   2    6.36    2.02
   6   0  -2    7.47    1.61
  -6   0  -2    6.69    1.42
   6   0  -2    4.62    2.34
  -6   0  -2    5.54    1.40
   6   0   2    3.69    1.68
   6   0   2    5.22    1.76
  -6   0   2    6.60    1.55
   6  -1  -2   -0.07    2.21
   6  -1  -2    7.49    1.77
   6  -2  -2    7.26    2.34
   6  -2  -2    8.12    4.49
  -6   2  -2    4.94    3.30
   6  -2   2    5.98    2.29
  -6   2   2    7.91    3.78
   6  -2   2    6.43    4.02
  -6   3  -2   79.68   24.95
   6  -3   2  110.97   23.43
   6  -3   2  108.32   27.82
  -6   4  -2    2.23    3.76
   6  -4   2    2.23    2.01
   7   5  -2   -7.49    2.46
   7   4  -2    5.23    1.64
   7   4  -2    0.07    1.55
   7   4  -2    0.61    2.46
  -7  -4   2   -1.63    3.77
   7   4   2   -0.09    1.61
   7   3  -2   17.27    4.66
   7   3  -2   17.26    5.23
  -7  -3  -2   12.47    6.29
   7   3   2   19.80    5.22
  -7  -3   2   19.71    5.80
   7   3   2   16.34    4.41
   7   2  -2   -1.01    1.74
   7   2  -2   -0.56    2.28
   7   2  -2    4.55    1.42
   7   2  -2    2.21    1.84
  -7  -2  -2    4.87    2.52
  -7  -2   2    1.85    1.12
   7   2   2    2.19    1.51
  -7  -2   2    4.35    2.34
   7   2   2    2.09    2.05
   7   2   2    2.83    1.32
   7   1  -2    0.04    1.34
   7   1  -2   -2.63    2.41
   7   1  -2    0.59    1.15
   7   1  -2   -0.76    1.47
  -7  -1  -2    1.25    2.15
  -7  -1   2    0.76    1.93
   7   1   2   -1.00    2.05
   7   1   2    0.19    0.76
  -7  -1   2    0.27    0.64
   7   1   2   -0.75    1.46
  -7  -1   2    0.31    0.69
  -7   0  -2    0.38    2.03
   7   0  -2   -2.16    3.11
  -7   0  -2   -0.18    0.42
  -7   0  -2   -0.21    0.42
   7   0  -2   -0.12    0.93
   7   0  -2    0.74    1.56
   7   0  -2    0.29    1.71
  -7   0   2    0.50    2.05
  -7   0   2   -0.27    2.94
   7   0   2    1.10    2.59
   7   0   2   -0.16    0.87
   7   0   2    0.43    0.90
  -7   0   2    0.28    0.74
   7  -1  -2    0.77    1.69
  -7   1  -2    0.18    0.29
   7  -1  -2    0.20    0.77
   7  -1  -2    0.60    3.71
  -7   1  -2    0.61    2.15
  -7   1   2   -0.95    3.10
   7  -1   2    0.02    0.50
   7  -1   2    2.75    3.21
  -7   2  -2    1.42    3.35
   7  -2  -2    2.08    1.98
   7  -2  -2    2.43    4.63
   7  -2  -2    3.81    1.27
   7  -2   2    7.44    4.39
   7  -2   2    4.10    1.05
   7  -2   2    6.18    1.95
  -7   2   2    2.71    3.80
  -7   3  -2   10.47    6.29
   7  -3  -2   16.74    5.21
   7  -3  -2   12.00    8.05
   7  -3   2   24.16    7.45
   7  -3   2   22.55    5.17
  -7   3   2   22.05    6.84
  -7   4  -2    2.06    4.31
   7  -4   2   -0.53    5.26
   7  -4   2    0.22    2.16
   8   5  -2   36.42    9.60
   8   5  -2   41.60   11.18
  -8  -4  -2    9.84   16.86
   8   4  -2   70.90   16.42
  -8  -4   2   42.58   17.51
   8   4   2   65.32   13.08
  -8  -3  -2   -0.43    4.47
   8   3   2    3.80    2.98
   8   3   2    7.22    2.15
  -8  -2  -2    5.48    3.04
   8   2  -2    1.89    1.81
   8   2  -2   -1.14    2.42
   8   2   2    4.55    1.43
  -8  -2   2    0.82    1.44
  -8  -2   2   -0.30    3.21
   8   2   2    3.41    1.91
   8   2   2   -0.07    2.78
   8   1  -2    2.80    1.92
   8   1  -2    1.10    1.61
  -8  -1  -2   -0.47    2.43
   8   1  -2   -2.75    3.17
  -8  -1  -2   -0.20    0.61
   8   1  -2   -0.12    1.42
   8   1   2    0.49    0.90
  -8  -1   2    0.48    2.36
   8   1   2   -0.80    2.60
  -8  -1   2    0.11    0.77
  -8  -1   2    0.14    0.81
   8   1   2   -0.83    1.80
  -8   0  -2    6.56    2.78
   8   0  -2    5.92    2.24
   8   0  -2    4.64    1.63
  -8   0  -2    4.45    1.38
   8   0  -2    6.41    3.88
   8   0  -2    6.37    2.59
  -8   0  -2    4.45    1.28
   8   0   2    5.70    1.93
  -8   0   2    5.24    2.84
   8   0   2    5.08    1.64
  -8   0   2    4.53    3.71
  -8   0   2    5.04    1.54
   8   0   2    5.73    2.32
   8   0   2    7.06    3.40
   8  -1  -2   -0.66    4.35
  -8   1  -2    0.01    0.36
  -8   1  -2   -0.71    2.60
   8  -1  -2   -0.04    0.97
   8  -1  -2    0.79    1.96
   8  -1   2    0.14    0.71
   8  -1   2   -7.39    4.20
  -8   1   2    0.91    3.64
  -8   2  -2    5.82    4.24
   8  -2  -2    6.66    1.60
   8  -2  -2    4.55    2.42
   8  -2  -2    2.15    5.94
   8  -2   2   -0.13    5.08
   8  -2   2    5.19    1.30
  -8   2   2    4.77    4.41
  -8   3  -2    6.22    4.53
   8  -3  -2   -3.99    6.95
   8  -3  -2    5.25    2.71
  -8   3   2    3.91    5.02
   8  -3   2    2.85    2.59
   8  -3   2   -4.09    6.17
  -8   4  -2   51.71   18.67
   8  -4   2   74.33   21.14
   8  -4   2   78.84   16.74
   8  -5   2   43.53   14.33
   9   6  -2   22.34    6.19
   9   5  -2   33.43    7.35
   9   5  -2   22.24    6.28
  -9  -5   2    2.56    8.92
  -9  -4  -2   -1.23    5.06
   9   4  -2    1.41    2.87
   9   4  -2    2.43    2.26
   9   4  -2    1.42    1.90
   9   4   2    3.12    2.26
   9   4   2    0.90    3.01
  -9  -4   2    3.65    4.79
  -9  -3  -2   56.89   15.08
   9   3  -2   56.31   13.74
   9   3  -2   65.25   13.04
   9   3   2   15.18   15.16
   9   3   2   60.01   12.52
  -9  -3   2   65.96   13.25
   9   3   2   51.14   13.52
  -9  -3   2   64.07   14.76
  -9  -2  -2   -1.06    3.06
   9   2  -2   -0.25    2.83
   9   2  -2   -1.92    2.14
   9   2   2    0.30    1.17
   9   2   2    0.08    2.52
   9   2   2    0.77    2.08
  -9  -2   2    4.68    2.79
   9   1  -2   -0.97    3.44
  -9  -1  -2   -0.27    2.98
   9   1  -2    0.40    2.01
   9   1  -2    7.94    1.68
   9   1  -2    1.69    2.27
  -9  -1  -2    1.17    0.82
  -9  -1   2    2.72    0.93
  -9  -1   2    2.09    2.80
  -9  -1   2    1.41    4.44
  -9  -1   2    0.29    1.01
   9   1   2    0.61    2.17
   9   1   2   -0.36    2.91
  -9   0  -2   -1.29    2.96
   9   0  -2   -0.34    4.07
   9   0  -2   -0.09    2.16
   9   0  -2    0.49    1.40
   9   0  -2    0.56    2.45
  -9   0   2   -1.12    3.07
   9   0   2    5.54    3.81
  -9   0   2    0.65    1.08
   9   0   2    3.27    2.52
  -9   0   2    0.37    4.32
  -9   1  -2   -1.37    3.18
   9  -1  -2    0.73    5.15
   9  -1  -2    2.47    1.24
   9  -1  -2    0.10    2.29
   9  -1   2   -6.75    4.60
  -9   1   2    0.41    4.30
   9  -2  -2   -0.04    1.01
   9  -2  -2    0.90    5.92
   9  -2  -2    0.78    2.43
  -9   2   2   -2.26    4.75
   9  -2   2    0.15    5.03
  -9   3  -2   60.94   15.19
   9  -3  -2   62.13   18.68
   9  -3  -2   34.03   14.05
   9  -3   2   90.27   17.74
  -9   3   2   60.90   16.18
   9  -3   2   67.26   14.08
  -9   4  -2   -0.59    5.65
   9  -4   2    7.82    6.87
   9  -4   2    0.26    2.77
  -9   5  -2   30.62    9.55
   9  -5   2   26.59   11.22
  10   6  -2   -1.14    2.69
  10   6  -2    1.37    2.76
  10   5  -2   18.21    5.39
  10   5  -2   16.96    5.94
  10   5  -2   20.02    6.30
  10   5   2   24.42    5.12
 -10  -5   2    2.26    8.03
  10   4  -2   38.17   10.82
  10   4  -2   31.50   10.59
 -10  -4  -2   14.94   12.37
  10   4  -2   35.94    9.86
 -10  -4   2   29.35   12.37
  10   4   2   45.54    9.36
  10   4   2   52.13   10.35
  10   3  -2    8.32    3.00
  10   3  -2    5.39    2.74
  10   3  -2    1.89    3.11
 -10  -3  -2    3.65    4.66
  10   3  -2    3.46    2.26
  10   3   2    2.00    2.69
 -10  -3   2    4.14    1.73
 -10  -3   2    5.37    1.78
 -10  -3   2    6.98    3.96
  10   3   2    7.24    3.22
  10   2  -2    2.15    2.92
  10   2  -2    3.52    3.59
 -10  -2  -2    8.87    3.94
  10   2  -2    9.32    2.75
  10   2   2    0.36    3.18
 -10  -2   2    5.74    1.70
 -10  -2   2    5.64    3.57
  10   2   2    5.72    2.72
 -10  -1  -2    0.21    3.43
  10   1  -2   -2.30    3.92
  10   1  -2   -0.41    2.63
 -10  -1   2    0.18    3.19
 -10  -1   2    2.43    4.98
  10   1   2   -1.75    3.45
  10   1   2   -0.81    2.55
  10   0  -2    4.29    2.54
 -10   0  -2    7.22    5.65
 -10   0  -2    5.94    3.48
  10   0  -2    4.03    4.52
  10   0   2    2.80    2.79
 -10   0   2    3.58    4.86
 -10   0   2    6.41    3.67
  10   0   2    7.53    4.21
 -10   0   2    2.24    1.49
 -10   1  -2   -1.98    3.54
  10  -1  -2   -1.01    2.66
  10  -1  -2   -1.29    5.51
 -10   1   2    2.57    5.17
  10  -1   2   -0.11    2.60
  10  -1   2   -0.81    4.76
 -10   2  -2    1.54    4.08
  10  -2  -2   10.99    6.99
  10  -2  -2    4.58    3.01
 -10   2   2   14.55    5.71
  10  -2   2    4.62    6.13
  10  -3  -2    5.33    3.28
  10  -3  -2   13.49    7.91
 -10   3  -2   10.29    5.93
  10  -3   2    4.05    3.21
  10  -3   2   10.12    7.00
 -10   3   2   10.28    6.08
 -10   4  -2   58.41   12.31
  10  -4  -2    9.57   15.34
  10  -4   2   46.49   10.39
  10  -4   2   37.37   14.48
 -10   4   2   35.06   12.86
 -10   5  -2   20.62    8.55
  10  -5   2   24.04    6.15
  10  -5   2   22.30   10.54
  11   6  -2    1.26    3.01
  11   6  -2    4.54    3.39
  11   5  -2   26.14    8.49
 -11  -5  -2   15.43   11.71
  11   5  -2   31.73    9.34
 -11  -5   2    3.64   11.57
  11   5   2   50.49    8.01
  11   4  -2    1.12    2.85
 -11  -4  -2    1.88    6.29
  11   4  -2   -0.95    3.52
  11   4   2   -3.07    3.65
  11   4   2    1.06    2.84
 -11  -4   2   -3.46    5.08
  11   3  -2    9.55    4.66
 -11  -3  -2    7.14    6.41
  11   3  -2    9.26    4.45
  11   3   2   15.75    4.68
  11   3   2   20.15    4.37
 -11  -3   2   10.99    5.62
  11   2  -2    1.74    3.66
 -11  -2  -2    0.13    4.31
  11   2  -2    2.26    3.00
  11   2   2    1.80    3.33
 -11  -2   2    0.56    4.00
  11   2   2    5.94    2.97
  11   1  -2    0.87    4.53
 -11  -1  -2    4.79    4.09
  11   1  -2    3.01    3.03
 -11  -1   2    4.29    3.92
  11   1   2    1.78    3.78
  11   1   2    3.20    3.12
 -11  -1   2    1.39    5.90
  11   0  -2   -1.96    2.89
  11   0  -2   -2.57    5.44
 -11   0  -2   -1.99    6.37
 -11   0  -2   -3.20    3.78
 -11   0   2    1.35    3.95
  11   0   2    6.46    4.60
 -11   0   2    3.12    5.84
  11   0   2    0.37    3.09
  11  -1  -2   -1.38    3.09
 -11   1  -2    1.66    4.04
  11  -1  -2   -2.67    6.40
 -11   1  -2    7.10    6.18
 -11   1   2    5.54    6.05
  11  -1   2   -2.42    3.12
  11  -1   2   -0.15    5.63
 -11   1   2    1.57    4.50
 -11   2  -2    4.11    4.41
  11  -2  -2   -8.58    7.55
  11  -2  -2    0.96    3.24
  11  -2   2    2.15    6.59
 -11   2   2    3.35    6.43
  11  -3  -2    1.49    9.33
  11  -3  -2   13.18    4.63
  11  -3   2   17.45    8.80
 -11   3   2   21.35    7.95
  11  -4  -2   -1.13    9.25
  11  -4  -2   -2.30    3.44
 -11   4  -2    2.77    6.63
  11  -4   2   -1.54    3.54
  11  -4   2    4.81    8.69
 -11   4   2    0.80    6.57
 -11   5  -2   40.65   11.88
  11  -5   2   35.85    9.13
  11  -5   2   21.37   14.24
  12   7  -2    1.67    4.08
  12   6  -2    1.53    3.52
 -12  -6   2   -3.36    7.67
  12   5  -2   -0.13    3.50
  12   5  -2    0.26    4.07
 -12  -5  -2    0.89    7.54
  12   5   2    4.71    3.55
  12   5   2    2.27    4.41
 -12  -5   2   -2.06    7.60
 -12  -4  -2   19.28    7.33
  12   4  -2    4.78    4.02
  12   4  -2    5.95    4.07
 -12  -4   2    4.35    6.11
  12   4   2    3.51    3.69
  12   4   2    2.85    4.27
 -12  -3  -2   13.23    6.02
  12   3  -2    0.31    3.65
  12   3  -2    2.56    3.41
  12   3   2    0.92    3.70
 -12  -3   2    0.86    4.75
  12   3   2    0.91    3.47
 -12  -2  -2   -0.15    5.09
  12   2  -2    0.78    3.53
  12   2  -2   -7.37    4.53
  12   2   2   -9.35    3.73
 -12  -2   2    0.51    4.61
 -12  -1  -2   22.93    9.55
  12   1  -2    7.47    8.05
 -12  -1   2    9.23   10.22
 -12  -1   2   12.07    9.60
 -12   0  -2   16.85    9.20
  12   0  -2   31.67    8.10
  12   0  -2   10.87    5.88
 -12   0   2   20.04    7.27
 -12   0   2   19.13    8.45
 -12   1  -2   16.41   10.57
  12  -1  -2    7.26    8.13
  12  -1  -2   34.03   12.09
 -12   1  -2   36.08   10.45
 -12   1   2    8.49   10.32
 -12   1   2   13.20   10.60
  12  -2  -2   -3.34    3.69
  12  -2  -2  -12.25    8.42
 -12   2  -2   -9.56    5.54
 -12   2   2    2.38    7.36
  12  -3  -2   13.69    9.57
  12  -3  -2    1.31    3.72
 -12   3   2    2.68    7.55
  12  -3   2  -10.16    8.45
 -12   4  -2    5.34    7.87
  12  -4  -2   20.12   10.85
  12  -4  -2   14.74    4.62
  12  -4   2    6.06    4.65
 -12   4   2   11.58    8.18
  12  -4   2   15.42   10.11
 -12   5  -2   15.81    8.13
  12  -5   2   -0.88   10.55
  12  -5   2   14.69    4.55
  13   6   2   -0.16    4.20
 -13  -6   2   -0.65    8.79
  13   5  -2   16.49    5.96
  13   5  -2   14.40    5.85
 -13  -5   2    6.66    9.34
  13   4  -2    3.94    4.05
  13   4  -2    4.56    3.96
 -13  -4  -2    1.60    7.64
  13   4   2   -1.53    4.31
 -13  -4   2    2.91    6.71
 -13  -3  -2    5.52    6.74
  13   3  -2   -1.15    4.01
  13   3  -2    2.20    3.95
  13   3   2    6.29    4.11
 -13  -3   2    4.15    5.40
 -13  -2  -2    1.67    5.68
  13   2  -2    1.77    4.36
  13   2  -2    7.87    5.10
  13   2   2    4.83    4.66
 -13  -2   2    3.05    5.56
 -13  -2   2   -2.40    8.16
 -13  -1  -2    3.99    5.66
 -13  -1  -2   26.08    9.30
  13   1  -2    2.23    6.00
  13   1  -2    3.61    4.25
 -13  -1   2   12.32    8.50
  13   1   2   12.46    4.33
  13   1   2    4.22    5.48
 -13  -1   2    5.32    5.65
 -13   0  -2   -1.34    5.38
  13   0  -2   -1.76    3.81
 -13   0  -2   20.06    7.98
  13   0  -2    0.52    6.42
 -13   0   2    2.29    5.46
  13   0   2   -4.05    6.10
 -13   0   2   -3.18    7.61
  13  -1  -2    3.97    4.34
  13  -1  -2    0.62    7.76
 -13   1  -2    5.12    5.92
  13  -1   2   -0.38    7.19
 -13   1   2   -4.43    8.30
 -13   1   2    3.81    6.31
  13  -2  -2   -0.25    9.56
 -13   2  -2    8.19    6.22
 -13   2   2    6.27    6.41
 -13   2   2   25.69    8.13
  13  -2   2  -14.73    8.44
  13  -3  -2  -12.73   10.47
 -13   5  -2    7.87    9.98
  13  -5   2   23.35    6.25
 -13   6  -2    5.10    8.68
  13  -6   2   16.87   12.08
  14   7  -2   -1.81    4.89
  14   6  -2    0.87    4.98
  14   6   2    7.56    4.79
  14   5  -2   -0.17    4.80
 -14  -5  -2   -9.30   10.78
  14   5   2    1.18    4.61
  14   5   2   12.29    5.33
 -14  -4  -2   -9.03    9.04
  14   4   2   -4.21    4.64
  14   4   2   11.35    4.59
 -14  -3  -2   -0.24    6.37
  14   3   2   -0.14    4.03
  14   3   2   -3.14    4.38
  14   2   2   -5.56    5.03
 -14  -1  -2  -10.79    9.59
  14   1   2    1.03    4.68
 -14   0  -2   -7.57    9.14
  14   0   2    4.56    4.55
 -14   1  -2    7.08    8.89
  14  -1   2    0.17    4.41
  14  -2  -2    0.18    5.01
 -14   2  -2   38.47    7.10
 -14   2  -2   -7.58    9.74
  14  -2   2    3.42    5.27
 -14   2   2  -15.34    9.59
 -14   3  -2   -7.50    6.88
  14  -3  -2    0.20    4.56
  14  -3  -2  -11.88   11.11
 -14   3   2   -0.93    9.10
  14  -3   2    5.99    9.57
  14  -4  -2  -33.10   12.67
  14  -4  -2    2.72    4.73
 -14   4  -2   13.20    7.01
  14  -4   2   -0.30   11.33
 -14   4   2    3.04    9.56
 -14   5  -2   -8.13   10.17
  14  -5   2    7.21    5.00
  14  -5   2    7.31   12.22
 -14   6  -2    4.97    9.40
  14  -6   2    1.48   13.54
  15   7  -2    8.77    5.99
  15   6  -2    6.11    5.55
  15   6  -2   -1.97    5.53
  15   6   2   16.58    5.64
 -15  -6   2   -4.49   10.24
 -15  -5  -2   15.04   10.09
  15   5  -2    1.75    5.04
  15   5  -2    5.49    5.16
  15   5   2    1.62    5.44
  15   5   2    4.45    5.25
 -15  -5   2   -0.33   10.02
  15   4  -2    1.51    5.13
  15   4  -2    0.73    4.83
 -15  -4  -2    8.01    9.38
 -15  -4   2    4.55    8.28
  15   4   2    0.16    5.09
  15   4   2    0.19    5.15
  15   3  -2    4.32    5.19
  15   3  -2   -8.41    5.09
 -15  -3  -2    6.04    8.37
 -15  -3   2   -2.51    6.97
  15   3   2    0.56    5.21
  15   3   2    2.82    5.09
 -15  -3   2   -4.23   10.39
  15   2  -2    0.46    5.81
  15   2  -2   -3.81    4.87
 -15  -2  -2    4.66    7.09
  15   2   2  -13.75    5.40
 -15  -2   2    6.50   10.10
  15   2   2    5.37    5.41
 -15  -2   2    1.29    6.55
 -15  -1  -2    3.33    6.97
 -15  -1  -2   -1.21   10.92
  15   1  -2    6.27    4.87
  15   1  -2    4.47    7.16
  15   1   2    2.04    6.31
 -15  -1   2   -4.71    9.96
  15   1   2    0.19    5.48
 -15  -1   2   -1.09    6.89
 -15   0  -2    4.51   10.40
  15   0  -2    5.00    8.38
 -15   0  -2    3.66    6.96
  15   0  -2    2.60    4.97
  15   0   2   -8.45    5.21
 -15   0   2   -5.66    6.79
  15   0   2  -13.25    7.66
 -15   0   2   24.84   10.29
 -15   1  -2   -2.68    7.24
 -15   1  -2   15.32   10.55
  15  -1  -2    4.88    4.91
  15  -1  -2    3.18    9.28
 -15   1   2    6.87    7.44
  15  -1   2    0.19    5.36
 -15   1   2   -4.39   10.57
  15  -1   2    4.52    8.78
 -15   2  -2  -14.86   11.20
 -15   2  -2   -1.96    7.30
  15  -2  -2  -26.78   10.89
  15  -2  -2    2.07    5.21
 -15   2   2   -2.60    7.62
  15  -2   2    0.25    9.66
 -15   2   2    6.66   10.42
  15  -2   2    2.04    5.29
  15  -3  -2    0.22    4.99
  15  -3  -2    4.92   12.22
 -15   3  -2  -11.18    7.64
  15  -3   2    8.30    5.41
  15  -3   2  -11.46   10.47
 -15   3   2  -15.39   10.52
 -15   3   2   12.03    8.12
  15  -4  -2    7.29    5.37
 -15   4  -2   -5.24    8.02
  15  -4  -2   -2.22   13.58
  15  -4   2    8.91   11.81
 -15   4   2   -7.22   10.16
 -15   5  -2   10.64   10.85
  15  -5   2   -1.07   13.05
 -15   6  -2   21.10   11.01
  15  -6   2  -21.87   14.63
  16   7  -2    0.23    6.20
  16   6  -2   39.33    9.00
  16   6  -2   13.88    8.85
  16   6   2   22.55    8.78
 -16  -6   2   31.85   14.27
  16   5  -2    1.52    5.73
  16   5  -2   10.30    5.60
 -16  -5  -2  -10.00   11.34
 -16  -5   2   15.03   11.39
  16   5   2  -10.25    5.95
  16   5   2    9.97    5.97
  16   4  -2   -6.40    5.65
 -16  -4  -2    0.35   10.14
  16   4  -2   -5.12    5.15
 -16  -4   2   -0.56    8.61
  16   4   2    0.21    5.81
  16   4   2    9.64    5.73
 -16  -3  -2   -2.64    9.37
  16   3  -2   -2.95    5.41
  16   3  -2   -0.84    5.63
  16   3   2    0.22    5.59
  16   3   2    6.22    5.44
 -16  -3   2    3.05    7.87
 -16  -3   2   12.07   11.33
 -16  -2  -2   19.96   12.25
  16   2  -2    4.35    6.02
  16   2  -2    0.20    5.34
 -16  -2  -2    7.97    8.03
 -16  -2   2    2.99   11.30
 -16  -2   2    7.14    7.45
  16   2   2    3.64    6.01
  16   2   2    4.08    5.77
  16   1  -2    3.03    5.32
 -16  -1  -2    5.46   12.29
 -16  -1  -2    6.27    7.73
  16   1  -2   -7.01    7.27
 -16  -1   2   -0.88   11.66
 -16  -1   2   -2.30    7.51
  16   1   2   -5.70    6.54
  16   1   2   -6.05    5.49
  16   0  -2   11.98    5.47
  16   0  -2    2.83    8.75
 -16   0  -2    7.02   11.91
 -16   0  -2    3.78    7.96
 -16   0   2    7.33   10.67
  16   0   2  -16.80    7.83
  16   0   2    4.57    5.50
 -16   0   2   -0.61    7.36
 -16   1  -2    1.94   11.73
 -16   1  -2    8.28    7.89
  16  -1  -2   14.44    9.78
  16  -1  -2   11.64    5.47
 -16   1   2   -4.02    8.04
 -16   1   2   -0.49   11.54
  16  -1   2  -23.50    9.36
  16  -1   2    0.22    5.52
  16  -2  -2    6.33   11.37
  16  -2  -2   -4.78    5.55
 -16   2  -2   -0.52   11.94
 -16   2  -2    4.80    8.03
  16  -2   2   14.02    5.85
  16  -2   2    4.51   10.62
 -16   2   2   11.14   11.24
 -16   2   2  -11.96    8.69
 -16   3  -2    0.45    8.61
  16  -3  -2    3.49   12.87
 -16   3  -2  -14.35   12.37
  16  -3  -2    0.48    5.53
  16  -3   2    0.61   10.96
 -16   3   2   -1.84    8.59
  16  -3   2  -12.68    5.96
 -16   3   2   -3.98   11.69
 -16   4  -2    2.10    8.80
  16  -4  -2   -0.39   13.87
  16  -4  -2    5.98    5.79
 -16   4   2   13.43   11.78
  16  -4   2   -5.10   12.17
 -16   5  -2  -12.94    9.19
  16  -5   2    0.39   13.97
 -16   6  -2   -0.66   12.67
  16  -6   2   14.98   16.58
  17   7  -2    5.13    7.12
  17   6  -2    5.24    6.16
 -17  -6  -2  -10.47   12.56
  17   6  -2    6.70    6.92
 -17  -6   2  -24.00   13.10
  17   6   2  -14.35    6.71
  17   5  -2    1.23    6.83
 -17  -5  -2   -3.95   12.38
  17   5  -2    4.28    5.88
  17   5   2    0.84    6.15
  17   5   2    0.24    6.47
 -17  -5   2  -15.31   12.56
  17   4  -2   -4.33    6.53
  17   4  -2   -1.23    5.85
 -17  -4  -2    4.31   12.12
 -17  -4   2    9.68   10.45
  17   4   2   -5.09    6.56
  17   4   2    1.57    6.00
 -17  -4   2  -26.41   13.79
 -17  -3  -2  -33.89   15.58
  17   3  -2  -21.88    7.30
  17   3  -2  -13.52    6.85
 -17  -3  -2    0.33   11.10
  17   3   2  -11.17    7.26
 -17  -3   2  -26.92    9.98
 -17  -3   2   -8.73   13.82
 -17  -2  -2    5.06    9.89
  17   2  -2   10.09    6.89
 -17  -2  -2    4.06   13.91
 -17  -2   2  -11.88    9.31
 -17  -2   2   26.66   13.06
  17   2   2  -23.05    7.27
 -17  -1  -2   44.10   24.81
  17   1  -2  115.60   21.35
 -17  -1  -2  113.31   24.83
 -17  -1   2   61.63   24.83
  17   1   2   83.32   21.20
 -17  -1   2   33.51   24.44
  17   1   2  138.19   23.32
 -17   0  -2   23.74   15.05
  17   0  -2   49.25   12.14
 -17   0  -2   36.64   17.16
  17   0  -2   35.23   15.81
  17   0   2   75.51   12.42
  17   0   2   39.40   14.78
 -17   0   2   33.91   15.01
 -17   0   2    3.16   16.89
  17  -1  -2   52.57   17.97
 -17   1  -2   27.82   22.47
  17  -1  -2   65.26   24.42
 -17   1  -2   45.18   22.50
 -17   1   2   49.45   22.66
  17  -1   2   83.96   18.33
  17  -1   2  125.60   23.52
 -17   1   2   27.01   23.22
  17  -2  -2    0.25    6.19
 -17   2  -2   -8.87    9.27
 -17   2  -2   10.47   13.61
  17  -2  -2  -34.39   12.70
 -17   2   2   -7.77   12.95
 -17   2   2    4.92    9.71
  17  -2   2    0.31   11.87
  17  -2   2  -25.68    6.80
  17  -3  -2   -7.80   13.96
 -17   3  -2   -6.76   10.13
 -17   3  -2   -5.58   13.75
  17  -3  -2  -10.15    6.90
 -17   3   2  -28.01   11.14
  17  -3   2  -16.94   13.04
  17  -3   2   -4.73    7.13
 -17   3   2    0.63   13.31
 -17   4  -2   11.10    9.71
  17  -4  -2   -9.29    7.72
  17  -4  -2  -28.69   16.30
  17  -4   2   -3.27   13.13
 -17   4   2  -28.72   15.86
  17  -4   2    2.72    6.39
 -17   4   2    6.06   12.99
 -17   5  -2   13.86   10.61
  17  -5   2   25.42   15.77
 -17   6  -2    1.93   10.48
 -17   6  -2   -4.38   13.21
  17  -6   2    0.45   16.04
  18   7  -2    4.60    8.03
  18   6  -2  -21.32    9.59
  18   6  -2  -12.32    8.12
 -18  -6   2  -52.67   15.70
  18   6   2  -29.82    9.27
  18   5  -2   -3.24    6.45
 -18  -5  -2   14.00   13.62
  18   5  -2   -4.13    7.88
 -18  -5   2   -2.16   12.79
  18   5   2    2.28    6.93
  18   5   2   -9.20    7.59
 -18  -5   2  -25.70   16.28
 -18  -4  -2  -10.01   12.83
  18   4  -2    3.36    6.70
  18   4  -2    0.79    7.08
  18   4   2   -7.99    6.91
  18   4   2    0.27    7.36
 -18  -4   2  -11.90   11.66
 -18  -4   2    0.55   14.93
  18   3  -2    3.30    6.75
 -18  -3  -2   18.78   15.70
  18   3  -2   -4.45    6.80
 -18  -3  -2   -6.32   12.46
  18   3   2    5.53    6.95
 -18  -3   2   -0.31   10.47
 -18  -3   2    0.54   13.97
  18   3   2   -9.73    7.38
  18   2  -2   -0.25    6.57
  18   2  -2    3.44    7.28
 -18  -2  -2   25.18   11.31
 -18  -2  -2   31.33   15.42
  18   2   2   11.88    7.18
  18   2   2   -0.26    7.00
 -18  -2   2  -11.43    9.86
 -18  -2   2  -27.04   14.42
  18   1  -2    3.45    8.39
 -18  -1  -2  -13.42    9.95
 -18  -1  -2  -23.54   15.12
  18   1  -2    3.56    6.49
  18   1   2    0.69    7.94
 -18  -1   2   -6.38    9.61
 -18  -1   2  -17.04   14.14
  18   1   2    0.77    6.90
 -18   0  -2   35.69   15.20
  18   0  -2   18.91   11.07
  18   0  -2   17.41    7.78
 -18   0  -2   15.56   11.12
  18   0   2   11.38    8.06
 -18   0   2    5.42   14.77
 -18   0   2    5.83   10.87
  18   0   2   24.22   10.10
 -18   1  -2   10.31    9.98
  18  -1  -2    6.98   11.83
 -18   1  -2    1.87   14.99
  18  -1  -2    0.27    6.86
  18  -1   2   -6.69   10.78
  18  -1   2    1.93    7.21
 -18   1   2   13.77   10.20
 -18   1   2   -3.16   14.10
  18  -2  -2    0.56    6.90
  18  -2  -2    3.57   12.99
 -18   2  -2    0.67   15.19
 -18   2  -2    3.03   10.09
  18  -2   2   -5.03   12.38
  18  -2   2   -0.28    6.63
 -18   2   2    5.43   10.38
 -18   2   2  -18.73   15.05
  18  -3  -2   21.37   15.04
  18  -3  -2   15.47    6.90
 -18   3  -2    0.56   10.37
 -18   3  -2  -14.63   15.04
  18  -3   2   -5.54   13.90
  18  -3   2    0.29    7.11
 -18   3   2   19.84   14.24
 -18   3   2    3.10   11.14
  18  -4  -2  -14.37   16.33
  18  -4  -2    0.30    6.67
 -18   4  -2    1.72   11.20
 -18   4  -2    5.14   15.12
  18  -4   2  -25.77    7.66
  18  -4   2    1.19   14.72
 -18   4   2  -13.40   11.79
 -18   4   2   -5.24   14.36
 -18   5  -2    0.59   11.63
  18  -5   2  -23.21   16.28
 -18   6  -2  -25.94   16.38
 -18   6  -2  -10.08   13.61
  19   7  -2    4.20    9.16
  19   6  -2   -1.27    8.81
 -19  -6   2   -1.92   18.51
  19   6   2   -7.30    8.96
 -19  -6   2  -27.97   15.34
  19   5  -2    1.99    6.88
 -19  -5  -2   -7.07   15.56
  19   5  -2    7.33    8.33
 -19  -5   2   -4.30   14.41
  19   5   2   -1.75    7.49
 -19  -5   2    3.71   16.84
  19   5   2    8.82    8.73
  19   4  -2   -0.58    7.90
  19   4  -2   -2.62    7.23
 -19  -4  -2   32.42   15.87
 -19  -4  -2    5.80   17.41
 -19  -4   2  -15.81   13.23
  19   4   2   -2.91    7.79
  19   4   2    2.46    8.40
 -19  -4   2   24.50   17.33
 -19  -3  -2  -53.39   20.53
 -19  -3   2  -57.39   19.72
  19   2  -2  592.56  140.32
  19   2  -2  849.59  143.29
  19   2   2 1000.00  142.36
  19   2   2  801.04  139.34
 -19  -2   2  625.44  148.98
 -19  -1  -2   24.17   34.66
  19   1  -2   88.64   29.01
 -19   0  -2   46.48   14.28
 -19   0  -2  -79.68   20.32
  19   0   2  -24.81   10.67
 -19   0   2    3.35   12.68
  19  -1  -2  109.16   40.01
 -19   1  -2  135.67   38.27
 -19   1  -2   54.90   36.22
 -19   1   2   44.61   38.87
  19  -1   2   97.60   38.20
 -19   1   2   44.52   36.48
 -19   2  -2   48.35   79.60
  19  -2  -2  162.65   87.25
 -19   2  -2  126.00   69.94
  19  -2  -2   59.01   58.26
  19  -2   2  100.12   58.85
 -19   2   2   55.27   82.61
  19  -2   2  334.16   82.69
 -19   2   2  124.96   70.55
 -19   3  -2  -22.14   20.14
  19  -3   2  -37.53   11.63
 -19   3   2  -47.41   19.83
 -19   3   2  -39.72   16.24
 -19   4  -2    2.49   16.87
 -19   4  -2    7.30   12.10
  19  -4  -2  -31.49   17.62
 -19   4   2   -8.67   12.24
  19  -4   2  -11.21   16.92
 -19   4   2   11.64   15.39
  19  -4   2  -22.14    8.00
 -19   5  -2  -12.78   12.35
  19  -5   2    6.56   18.39
  20   7  -2   10.64   10.65
 -20  -7   2   10.94   20.86
  20   6  -2   -5.64    9.79
 -20  -6   2   -3.41   16.05
 -20  -6   2   -7.76   20.03
  20   5  -2  -23.64    9.58
  20   5  -2   -4.87    7.92
 -20  -5  -2   -0.60   17.86
 -20  -5   2   30.18   16.69
  20   5   2   -3.04    8.46
 -20  -5   2  -26.90   18.82
 -20  -4  -2    6.24   16.48
 -20  -4  -2   10.06   19.48
  20   4  -2   -7.74    8.80
  20   4  -2   -0.97    8.19
 -20  -4   2   10.39   15.50
  20   4   2   -1.62    8.45
  20   4   2   -2.73    9.58
 -20  -4   2    6.22   17.66
  20   3  -2    0.32    8.45
  20   3  -2  -21.48    8.76
 -20  -3  -2    1.00   15.74
 -20  -3  -2   42.12   19.71
  20   3   2   -3.25    9.14
 -20  -3   2    0.43   14.12
  20   3   2  -17.72    9.04
 -20  -3   2   31.96   17.94
 -20  -2  -2    9.65   15.17
 -20  -2  -2  -49.76   19.81
  20   2  -2   -2.26    8.74
  20   2  -2   -8.57    8.44
  20   2   2  -11.03    9.34
  20   2   2    0.32    8.81
 -20  -2   2   20.11   13.24
 -20  -2   2    7.82   18.32
  20   1  -2  -14.03    8.68
  20   1  -2   13.90   10.34
 -20  -1  -2   -8.17   18.55
 -20  -1  -2   23.65   13.71
  20   1   2    6.99   10.11
 -20  -1   2   23.52   17.92
 -20  -1   2   -1.71   12.03
  20   1   2   26.25    8.98
 -20   0  -2  -12.44   12.88
  20   0  -2   17.40   12.07
  20   0  -2  -14.79    8.62
 -20   0  -2   40.34   19.13
  20   0   2    1.22   11.01
 -20   0   2  -27.96   18.04
 -20   0   2  -19.41   12.73
  20   0   2   -0.33    8.86
  20  -1  -2   33.94   13.57
 -20   1  -2    6.48   19.25
  20  -1  -2  -25.23    8.55
 -20   1  -2   -0.36   12.98
  20  -1   2  -28.55    9.21
 -20   1   2   12.10   18.08
 -20   1   2    1.36   12.49
  20  -1   2    0.35   13.16
  20  -2  -2   18.89   16.01
 -20   2  -2    9.97   12.68
  20  -2  -2   -8.97    8.62
 -20   2  -2   17.96   19.25
  20  -2   2  -17.04    9.13
  20  -2   2    9.60   14.51
 -20   2   2   -9.32   17.77
 -20   2   2   10.47   12.86
 -20   3  -2    7.00   13.06
  20  -3  -2    0.47   17.46
  20  -3  -2  -10.87    8.49
 -20   3   2   13.71   13.21
  20  -3   2    0.36    8.06
 -20   3   2  -12.44   18.20
  20  -3   2  -29.83   16.82
  20  -4  -2   -6.01   18.73
 -20   4   2   -6.05   13.51
   0   0  -3   -0.16    0.27
   0   0  -3    0.05    0.15
   0   0   3   -0.01    0.06
   1   0   3   67.75   19.45
   1   0   3   83.74   18.78
  -1   0   3  141.57   19.42
  -1   1  -3    0.02    0.22
  -1   1  -3    0.08    0.22
   1   1  -3    0.08    0.27
   1  -1   3    0.03    0.09
  -1  -1   3   -0.02    0.18
   2   1  -3   40.65    9.24
   2   1  -3   32.84   10.25
   2   1  -3   42.15    9.56
   2   1  -3   34.96   10.14
  -2  -1   3   35.28   10.10
  -2  -1   3   35.44    8.73
   2   0  -3    0.19    0.32
   0   2  -3    0.34    0.50
   2   0  -3    0.16    0.24
  -2   0  -3    0.24    0.43
   2   0  -3   -0.22    0.51
   0  -2   3    0.02    0.21
   2   0   3    0.06    0.50
  -2   0   3    0.05    0.21
   2   0   3   -0.08    0.29
  -2   0   3    0.06    0.75
   2  -1   3   42.88   10.06
   2  -1   3   37.44   10.87
   2   2  -3    0.10    0.45
   2   2  -3    0.10    0.33
  -2   2  -3    0.32    1.10
   2   2  -3    0.29    0.58
  -2  -2   3   -0.08    0.76
   2  -2   3    0.34    0.58
  -2  -2   3   -0.03    0.30
   3   2  -3    5.56    1.21
   3   2  -3    5.39    1.38
   3   2  -3    5.15    1.37
   3   2  -3    4.27    1.43
  -3  -2   3    4.21    1.53
  -3  -2   3    4.34    1.19
   3   1  -3   21.10    5.74
  -3  -1  -3   15.26    5.79
   3   1  -3   22.67    5.40
   3   1  -3   20.40    5.80
   3   1  -3   19.63    5.22
   3   1   3   20.15    4.89
  -3  -1   3   22.94    5.75
  -3  -1   3   22.20    4.88
   3   1   3   19.65    5.42
   3   0  -3   12.82    4.14
   3   0  -3   12.69    3.44
   3   0  -3   12.84    4.02
  -3   0  -3   15.57    3.43
   3   0  -3   14.34    3.25
   3   0   3   12.10    3.51
   3   0   3   10.31    3.15
  -3   0   3   12.56    3.11
  -3   0   3   15.31    3.75
   3  -1   3   19.31    5.29
   3  -1   3   17.85    5.92
  -3   2  -3    7.13    1.78
   2   3  -3    4.30    1.42
   3  -2   3    4.11    1.35
   3  -2   3    3.47    2.15
  -2  -3   3    2.07    1.07
   3   3  -3    0.04    0.64
   3   3  -3   -0.67    1.06
  -3   3  -3    0.15    1.90
   3   3  -3   -0.24    0.71
  -3  -3   3    0.37    0.51
   4   3  -3   -0.34    1.29
   4   3  -3    0.70    0.79
   4   3  -3    0.61    0.95
   4   3  -3    0.52    1.36
  -4  -3   3   -0.89    2.02
  -4  -3   3    0.53    0.65
   4   2  -3   41.72   13.04
   4   2  -3   54.51   12.32
   4   2  -3   42.93   13.34
  -4  -2   3   47.51   12.01
  -4  -2   3   68.24   13.14
   4   1  -3    9.09    2.13
  -4  -1  -3    9.01    2.53
   4   1  -3    7.04    2.20
   4   1  -3    8.81    2.35
   4   1  -3    5.55    2.52
   4   1   3    8.56    2.37
  -4  -1   3    8.13    1.93
  -4  -1   3    6.81    2.40
   4   0  -3    0.06    1.63
   4   0  -3   -0.27    0.46
   4   0  -3    0.13    1.00
  -4   0  -3   -0.07    0.89
   4   0  -3   -0.08    0.73
   4   0   3    0.18    1.18
   4   0   3    0.07    0.65
  -4   0   3   -0.41    1.39
  -4   0   3    0.22    0.36
  -4   1  -3    8.14    2.67
   4  -1  -3    7.58    2.50
   4  -1  -3   13.37    2.49
   4  -1   3   10.51    2.45
   4  -1   3    9.03    3.02
  -4   1   3   10.75    3.29
  -4   2  -3   56.65   13.32
   4  -2   3   57.16   15.20
   4  -2   3   52.33   13.33
  -4   3  -3    1.38    2.35
  -3  -4   3    1.13    0.80
   4  -3   3    2.26    2.90
   4  -3   3    2.14    1.28
   5   4  -3    3.82    1.56
   5   3  -3   86.33   17.77
   5   3  -3   61.51   16.81
   5   3  -3   72.42   15.70
   5   3  -3   42.71   17.75
  -5  -3   3   45.60   18.45
  -5  -3   3   67.85   15.81
   5   2  -3  213.22   60.28
   5   2  -3  214.58   57.20
   5   2  -3  239.53   55.67
   5   2  -3  218.56   61.37
  -5  -2   3  265.58   55.93
  -5  -2   3  195.65   61.21
  -5  -1  -3   14.72    4.06
   5   1  -3   13.54    3.62
   5   1  -3   12.30    3.72
   5   1  -3   13.22    3.97
   5   1  -3   13.50    4.20
  -5  -1   3   13.63    4.06
   5   1   3   13.56    3.92
   5   0  -3    3.15    2.43
   5   0  -3    1.73    1.20
  -5   0  -3    1.37    1.46
   5   0  -3    3.92    0.91
   5   0  -3    2.21    1.55
  -5   0   3    2.44    0.82
   5   0   3    1.95    1.83
  -5   0   3    0.69    2.12
   5  -1  -3   13.96    5.61
   5  -1  -3   17.60    4.07
  -5   1  -3   15.19    4.35
   5  -1  -3   16.26    4.07
  -5   1   3   17.64    4.90
   5  -1   3   13.52    4.71
  -5   4  -3    7.21    3.78
   6   5  -3    5.41    2.16
   6   4  -3   18.97    4.46
  -6  -4   3   19.71    3.92
  -6  -3  -3    1.76    3.37
   6   3   3    3.78    1.67
  -6  -2  -3    0.52    2.65
   6   2  -3    0.55    1.13
   6   2  -3    0.42    1.41
  -6  -2   3    0.96    0.78
   6   2   3    1.90    1.22
   6   2   3    0.13    1.80
  -6  -1  -3    5.25    2.04
   6   1  -3    3.55    1.55
   6   1  -3    2.10    1.29
  -6  -1   3    1.78    0.94
   6   1   3    5.15    1.93
   6   0  -3    0.32    0.82
  -6   0  -3    2.72    1.66
   6   0  -3    0.23    1.67
   6   0   3    5.48    2.19
  -6   0   3   -0.14    0.70
  -6   1  -3    3.85    2.00
  -6   1  -3    2.26    2.85
   6  -1  -3    2.02    1.10
   6  -1   3    2.64    1.63
   6  -1   3    9.11    2.91
  -6   2  -3    1.32    2.76
   6  -2  -3    3.68    4.19
   6  -2  -3    2.60    1.63
   6  -2   3    1.99    3.45
   6  -2   3    2.03    1.56
  -6   2   3   -1.67    3.54
  -6   3  -3    5.21    3.47
   6  -3   3    5.59    2.22
   6  -3   3    5.40    4.24
  -6   4  -3   16.07    5.47
   6  -4   3   14.21    6.21
   6  -4   3   20.66    4.23
   7   5  -3   -4.43    1.96
   7   5  -3   -0.26    1.74
   7   4  -3    4.00    1.98
   7   4  -3    6.84    1.87
   7   4  -3    0.74    2.70
   7   4  -3    8.04    2.52
  -7  -4   3    0.42    4.18
  -7  -4   3    4.01    1.53
  -7  -3  -3    3.28    5.92
   7   3  -3   21.34    4.45
   7   3  -3   17.56    5.04
   7   3   3   14.98    4.17
  -7  -3   3   21.09    5.54
   7   3   3   14.40    4.94
   7   2  -3    0.89    1.35
   7   2  -3    1.77    1.47
  -7  -2  -3    0.10    2.68
   7   2  -3   -2.30    2.20
   7   2   3    1.38    1.97
   7   2   3    0.26    1.42
  -7  -2   3    1.47    2.10
  -7  -2   3    0.37    0.92
  -7  -1  -3    2.18    2.09
   7   1  -3    1.69    1.57
   7   1  -3    0.97    1.49
   7   1  -3    0.36    2.67
   7   1  -3   -1.81    1.27
  -7  -1   3    0.91    0.77
  -7  -1   3    3.39    3.11
  -7  -1   3    4.29    2.06
   7   1   3   -0.13    2.09
   7   1   3    1.18    0.75
   7   0  -3   28.40    9.39
   7   0  -3   39.76    7.77
   7   0  -3   28.36    9.93
  -7   0  -3   21.29    8.35
   7   0  -3   27.41    7.91
  -7   0   3   32.71    8.45
   7   0   3   40.37    8.54
  -7   0   3   33.91    8.10
   7  -1  -3    1.53    0.93
  -7   1  -3    3.03    2.25
   7  -1  -3    1.70    1.74
   7  -1  -3   -0.38    3.94
  -7   1  -3    2.54    3.26
   7  -1   3   -0.63    3.01
   7  -1   3    1.67    1.78
  -7   1   3    1.22    3.49
   7  -2  -3    3.53    4.73
  -7   2  -3   -0.31    3.25
   7  -2  -3   -0.56    1.85
  -7   2   3    1.56    3.75
   7  -2   3    1.48    3.93
   7  -2   3    1.52    1.80
  -7   3  -3   17.21    5.76
   7  -3   3   13.06    4.84
   7  -3   3   19.56    7.19
  -7   4  -3    3.64    4.39
   7  -4   3    2.84    2.29
   7  -4   3   -4.75    5.84
   7  -5   3   -1.54    5.88
   8   6  -3   40.12    9.03
   8   6  -3   31.89   10.06
   8   5  -3   10.65    2.82
   8   5  -3    9.60    3.09
  -8  -5   3   -2.87    5.31
   8   4  -3    4.96    2.32
   8   4  -3    4.04    2.91
   8   4  -3    5.95    2.21
   8   4  -3    9.06    2.98
  -8  -4  -3    0.20    4.68
  -8  -4   3    4.86    1.80
   8   4   3    4.78    2.24
  -8  -4   3    4.40    4.38
   8   3  -3   30.82    5.73
   8   3  -3   17.86    5.91
   8   3  -3   -0.62    6.21
   8   3  -3   15.47    5.44
  -8  -3  -3   14.32    7.02
   8   3   3   28.01    5.81
  -8  -3   3    8.98    6.62
  -8  -3   3   20.53    5.24
   8   3   3   29.77    5.02
   8   2  -3   -4.06    4.44
  -8  -2  -3   10.53    4.13
   8   2   3   10.73    3.05
   8   2   3    7.75    2.78
   8   2   3    8.89    3.48
   8   1  -3    3.16    2.02
   8   1  -3   -0.06    1.41
   8   1  -3    2.88    2.18
  -8  -1  -3    4.43    2.73
   8   1  -3   -9.15    3.64
  -8  -1   3    2.82    3.79
   8   1   3    3.66    1.04
   8   1   3    4.78    2.61
   8   1   3    4.75    1.93
  -8  -1   3   -1.30    2.82
  -8  -1   3    2.70    1.16
   8   0  -3   -2.02    3.91
   8   0  -3   -0.46    2.33
  -8   0  -3   -0.84    2.62
   8   0  -3    0.39    1.90
  -8   0  -3    0.68    0.43
   8   0  -3   -0.45    1.21
   8   0   3  -11.07    3.42
  -8   0   3   -0.74    0.96
  -8   0   3    1.30    3.64
   8   0   3   -0.32    0.99
  -8   1  -3    2.83    2.82
  -8   1  -3    3.48    3.98
   8  -1  -3    5.88    1.35
   8  -1  -3    3.80    2.15
   8  -1  -3   -1.83    5.06
   8  -1   3    0.08    2.50
  -8   1   3    3.93    4.36
   8  -1   3   -0.51    3.96
  -8   2  -3    8.18    4.98
   8  -2  -3   11.69    3.70
   8  -2  -3   11.63    7.05
   8  -2  -3   14.89    3.36
   8  -2   3   21.80    5.89
  -8   2   3    6.99    5.53
   8  -2   3   11.78    3.72
  -8   3  -3   23.61    7.38
   8  -3  -3   15.58    9.64
   8  -3   3   30.21    8.66
  -8   3   3   32.05    8.20
   8  -3   3   22.95    6.16
  -8   4  -3    3.61    4.79
   8  -4   3    1.84    2.74
   8  -4   3    0.73    6.16
  -8   5  -3    9.52    5.66
   8  -5   3    3.73    7.03
   9   6  -3    1.63    2.43
   9   6  -3   -2.61    2.54
   9   5  -3   44.43   12.63
   9   5  -3   51.16   11.11
   9   5  -3   47.99   12.62
  -9  -5   3    8.71   14.33
   9   4  -3   41.64   11.10
   9   4  -3   45.99    9.79
   9   4  -3   50.32   10.71
   9   4  -3   34.96   10.75
  -9  -4  -3    3.90   11.96
   9   4   3   39.85    9.06
  -9  -4   3   37.61    9.84
  -9  -4   3   35.91   12.11
   9   4   3   37.45   10.30
  -9  -3  -3    7.80    4.92
   9   3  -3   16.53    3.16
   9   3  -3   11.47    3.48
   9   3  -3   10.74    3.53
   9   3  -3    8.42    3.06
   9   3   3    8.12    3.68
  -9  -3   3    5.50    2.50
  -9  -3   3    8.17    4.09
   9   3   3    5.31    3.00
  -9  -3   3   10.40    2.58
   9   2  -3    1.72    2.03
   9   2  -3   -0.74    2.90
  -9  -2  -3    3.12    3.43
   9   2  -3    4.34    2.20
   9   2   3    1.33    2.64
   9   2   3    0.69    2.09
  -9  -2   3    2.72    2.84
  -9  -2   3    1.40    1.11
   9   1  -3   -0.59    3.61
   9   1  -3   -0.53    2.22
  -9  -1  -3    0.09    2.90
  -9  -1   3   -2.39    2.87
   9   1   3    0.44    2.23
  -9  -1   3    2.25    4.34
   9   1   3   -4.53    3.05
   9   0  -3    0.45    2.15
  -9   0  -3   -1.77    3.04
   9   0  -3    0.89    2.76
   9   0  -3    1.30    4.26
  -9   0   3    0.56    4.25
  -9   0   3    2.32    3.14
  -9   0   3    0.88    1.16
  -9   1  -3    1.27    3.07
   9  -1  -3    2.25    2.30
   9  -1  -3    1.83    5.41
  -9   1   3    0.43    4.58
   9  -1   3    2.71    4.21
  -9   2  -3    2.11    3.28
   9  -2  -3    3.32    2.43
  -9   2  -3    1.02    4.38
   9  -2  -3   -0.38    6.18
  -9   2   3    6.08    5.19
   9  -2   3   -2.01    5.05
   9  -2   3    1.19    2.44
  -9   3  -3    6.63    5.42
   9  -3  -3    7.21    3.57
   9  -3  -3    5.36    7.50
   9  -3   3    9.01    3.53
   9  -3   3   23.51    6.65
  -9   3   3   13.49    5.91
  -9   4  -3   47.68   12.40
   9  -4   3   51.11   10.90
   9  -4   3   33.85   14.38
  -9   5  -3   60.68   15.06
   9  -5   3   62.79   12.93
   9  -5   3   38.34   16.66
  10   6  -3   23.46    6.22
  10   6  -3   15.62    5.63
  10   5  -3   18.21    5.17
  10   5  -3    9.88    5.62
  10   5  -3   16.36    4.85
 -10  -5   3   11.43    7.73
 -10  -4  -3    4.58    6.21
  10   4  -3    9.00    3.71
  10   4  -3    5.07    3.55
  10   4  -3    5.60    2.96
  10   4  -3    3.68    3.13
 -10  -4   3    8.73    5.16
  10   4   3    6.61    3.85
  10   4   3   11.80    3.07
 -10  -4   3    8.76    2.53
 -10  -3  -3    8.69    5.19
  10   3  -3    3.58    2.90
  10   3  -3    5.57    3.16
  10   3  -3    3.14    2.63
  10   3  -3    2.36    2.39
 -10  -3   3    5.74    3.97
  10   3   3    6.38    3.31
 -10  -3   3    4.56    1.69
 -10  -3   3    3.50    1.73
  10   3   3    4.86    2.69
  10   2  -3    8.35    3.56
  10   2  -3    6.71    4.10
  10   2  -3    6.62    3.37
 -10  -2  -3   12.25    4.70
  10   2  -3   13.65    3.39
 -10  -2   3   11.16    4.17
 -10  -2   3    8.40    2.53
 -10  -2   3   12.66    2.69
  10   2   3    6.58    3.33
  10   2   3   12.31    3.82
 -10  -1  -3   10.24    4.19
  10   1  -3    9.37    3.41
  10   1  -3    9.68    4.66
  10   1  -3   10.10    2.99
  10   1   3    7.72    4.06
  10   1   3    9.82    3.53
 -10  -1   3    7.51    2.51
 -10  -1   3   12.51    4.08
 -10  -1   3    7.81    5.31
  10   0  -3   -0.31    2.50
  10   0  -3   -1.70    4.70
 -10   0  -3   -2.73    3.37
 -10   0   3    1.07    4.84
  10   0   3   -2.57    4.12
 -10   0   3    0.40    3.61
  10  -1  -3    4.88    6.55
 -10   1  -3   14.09    4.42
  10  -1  -3   10.43    3.54
 -10   1   3   14.88    5.92
  10  -1   3    2.77    5.33
 -10   2  -3    8.64    5.61
  10  -2  -3   -2.05    7.42
 -10   2  -3   11.72    4.65
  10  -2  -3    7.47    3.58
 -10   2   3    8.93    6.10
  10  -2   3    7.17    3.48
  10  -2   3    6.75    6.15
 -10   3  -3    7.04    5.87
  10  -3  -3   13.80    8.19
  10  -3  -3    4.73    3.36
  10  -3   3    7.58    3.24
 -10   3   3    6.72    6.18
  10  -3   3   22.51    7.07
 -10   4  -3    8.60    6.55
  10  -4   3   10.94    3.83
  10  -4   3   13.49    8.15
 -10   5  -3   20.64    8.15
  10  -5   3   20.63    5.75
  10  -5   3   24.36   10.13
  11   7  -3    0.40    3.34
  11   7  -3   -0.42    3.27
  11   6  -3   -2.29    2.98
  11   6  -3   -0.74    3.15
  11   5  -3    3.81    3.94
 -11  -5  -3   -4.83    7.08
  11   5  -3    2.52    3.27
  11   5  -3    4.36    2.90
  11   5   3    7.50    3.21
 -11  -5   3    7.91    6.82
  11   4  -3    7.93    3.79
 -11  -4  -3    4.85    6.76
  11   4  -3    8.12    3.43
 -11  -4   3    4.20    2.24
  11   4   3    9.18    3.38
 -11  -4   3    7.87    5.53
  11   4   3   11.92    4.18
 -11  -4   3    5.39    2.48
 -11  -3  -3    3.98    5.35
  11   3  -3    5.11    3.28
  11   3  -3    3.89    3.49
  11   3   3    5.33    3.63
 -11  -3   3    4.28    1.71
  11   3   3    1.80    2.91
 -11  -3   3    3.32    1.72
 -11  -3   3    5.07    4.22
  11   2  -3    1.05    3.79
 -11  -2  -3    2.16    4.43
  11   2  -3    1.37    3.05
 -11  -2   3   -2.26    3.87
  11   2   3    1.60    2.94
  11   2   3    4.31    3.37
 -11  -2   3   -2.07    6.00
 -11  -1  -3   -0.74    3.93
  11   1  -3    2.11    4.50
  11   1  -3    0.22    2.84
  11   1   3   -0.11    3.75
 -11  -1   3    3.23    5.79
 -11  -1   3    2.00    3.71
  11   1   3    0.12    3.08
  11   0  -3    5.30    7.05
  11   0  -3   12.52    5.01
 -11   0  -3   21.68    7.90
 -11   0  -3   17.79    5.96
 -11   0   3   19.68    6.27
  11   0   3   20.79    6.49
  11   0   3   15.20    5.08
 -11   0   3   18.59    7.07
 -11   1  -3    3.31    4.17
  11  -1  -3    4.67    6.71
  11  -1  -3    1.54    2.97
 -11   1   3    5.76    5.74
  11  -1   3   -2.65    5.30
  11  -2  -3    4.76    3.19
 -11   2  -3   -4.10    4.45
  11  -2  -3   -2.40    7.72
 -11   2  -3    7.82    6.35
 -11   2   3   -0.95    6.25
  11  -2   3    2.39    6.08
  11  -3  -3    2.84    8.78
  11  -3  -3   10.00    3.64
 -11   3  -3    2.69    6.59
 -11   3   3    3.64    6.84
  11  -3   3    5.40    3.56
  11  -3   3    9.37    7.65
  11  -4  -3  -14.67    9.94
 -11   4  -3    2.69    7.04
 -11   4   3    7.85    6.88
  11  -4   3   12.33    3.95
  11  -4   3    0.23    8.66
 -11   5  -3    3.82    7.71
  11  -5   3  -11.24    4.22
 -11   6  -3   -1.30    7.30
  11  -6   3    1.44    9.95
  12   7  -3   -2.67    3.98
  12   6  -3    2.18    3.60
 -12  -6   3   -3.00    8.11
  12   5  -3   -0.26    4.48
  12   5  -3    2.08    3.86
 -12  -5  -3    2.74    8.12
  12   5   3   16.23    3.98
 -12  -5   3    0.50    7.63
 -12  -4  -3    3.68    7.41
  12   4  -3    0.25    3.44
  12   4  -3    1.22    3.76
  12   4   3    0.14    4.00
 -12  -4   3   -2.02    5.80
  12   4   3   -1.06    3.35
 -12  -3  -3    5.78    6.21
  12   3  -3    4.10    3.62
  12   3  -3    1.78    3.83
  12   3   3    5.94    3.55
  12   3   3    3.14    3.87
 -12  -3   3    3.89    4.88
  12   2  -3    2.97    3.51
  12   2  -3    0.47    4.50
 -12  -2  -3    3.70    5.27
 -12  -2   3   12.21    7.19
 -12  -2   3    5.52    4.48
 -12  -1  -3   25.03    7.78
  12   1  -3   15.56    8.07
  12   1  -3   16.73    6.47
 -12  -1   3   17.90    7.64
 -12  -1   3   24.86    8.90
  12   1   3   33.31    6.88
 -12   0  -3   45.68    6.91
  12   0  -3    1.13    6.79
 -12   0   3    0.13    5.65
 -12   0   3    6.45    7.41
  12  -1  -3   10.29    9.71
 -12   1  -3   17.64    8.22
  12  -1  -3   22.94    6.27
 -12   1   3   34.49    9.21
 -12   1   3    8.59    8.20
 -12   2  -3   -0.14    5.21
  12  -2  -3   15.83    8.82
  12  -2  -3    4.01    3.62
 -12   2   3   12.64    7.26
  12  -2   3  -23.20    7.72
  12  -3  -3    4.30    3.85
 -12   3  -3    5.38    5.64
 -12   3  -3    6.39    7.42
  12  -3  -3    3.00    9.58
 -12   3   3   11.90    7.52
  12  -3   3    4.15    3.93
  12  -3   3   16.45    8.27
  12  -4  -3  -13.27   10.79
 -12   4  -3    4.83    7.73
  12  -4   3    4.97    4.09
 -12   4   3    7.54    7.84
  12  -4   3    1.00    9.29
 -12   5  -3    7.90    7.95
  12  -5   3   23.70    4.80
  12  -5   3  -11.70   10.61
  13   6  -3    1.53    4.18
 -13  -6   3    4.48    8.61
  13   5  -3    5.94    4.21
  13   5  -3    2.42    4.35
 -13  -5   3   -2.71    8.31
  13   4  -3    0.58    4.30
  13   4  -3    7.52    3.99
 -13  -4   3    3.43    6.76
  13   3  -3   -1.24    3.94
 -13  -3  -3   -0.44    6.86
  13   3  -3   -0.44    4.10
  13   3   3    1.58    4.12
 -13  -3   3   -0.16    5.20
 -13  -2  -3   -1.44    5.95
  13   2  -3   -2.17    4.63
  13   2  -3   -2.47    3.99
 -13  -2   3   -2.06    7.65
 -13  -2   3    1.13    5.09
  13   2   3    3.53    4.28
 -13  -1  -3   -0.47    5.37
  13   1  -3    2.28    3.78
  13   1  -3    0.61    5.72
 -13  -1   3    3.30    7.61
  13   1   3    0.14    4.91
  13   1   3   -0.15    3.55
 -13  -1   3    2.60    5.06
  13   0  -3    6.60    6.75
  13   0  -3    1.93    3.97
 -13   0  -3    3.52    5.51
  13   0   3    0.81    6.12
 -13   0   3    4.58    5.51
  13   0   3   -0.16    3.70
 -13   0   3   -7.57    7.69
  13  -1  -3    0.48    3.90
  13  -1  -3    3.76    7.99
 -13   1  -3    1.65    5.45
  13  -1   3    0.37    6.84
 -13   1   3    3.98    5.71
 -13   1   3    3.16    7.84
  13  -2  -3    3.83    9.35
  13  -2  -3    4.42    4.09
 -13   2  -3    5.34    5.84
 -13   2   3   23.35    8.14
  13  -2   3   -3.06    7.80
  13  -3  -3    5.30   10.54
 -13   5  -3   -5.47    8.98
  13  -5   3   -2.32    4.33
 -13   6  -3    8.99    8.71
  13  -6   3  -28.49   11.91
  14   7  -3   -1.96    4.88
  14   6  -3    5.35    5.18
 -14  -5  -3  -14.84   10.37
  14   5   3    2.08    5.15
  14   5   3    0.17    4.62
 -14  -4  -3  -12.82    9.75
  14   4   3    0.67    4.51
  14   4   3    0.62    4.70
 -14  -3  -3   -0.24    7.33
  14   3   3    3.66    4.61
 -14  -2  -3   40.01   10.91
  14   2   3   54.00    9.90
 -14  -1  -3    8.82   10.24
  14   1   3   -0.15    5.59
  14   1   3    1.39    5.74
 -14   0  -3   -5.11    9.60
  14   0   3   -0.17    5.31
  14   0   3    3.92    4.73
 -14   1  -3    4.55   12.04
 -14   1  -3   40.70   10.10
  14  -1   3   66.17   10.76
 -14   2  -3   -0.70    7.97
  14  -2  -3    0.19    5.75
 -14   2   3    6.04    9.90
  14  -2   3   23.98   10.22
  14  -3  -3   -0.32   11.75
  14  -3  -3   -0.99    4.53
 -14   3  -3    1.45    6.86
  14  -3   3    4.11    9.24
 -14   3   3   -1.43    9.47
 -14   4  -3    5.59    9.79
 -14   4  -3   10.48    7.11
 -14   4   3  -15.05    9.77
  14  -4   3  -31.33   11.56
  14  -4   3   -3.42    4.90
 -14   5  -3   11.05    9.87
  14  -5   3    4.01    4.91
  14  -5   3    1.58   11.94
 -14   6  -3    5.43    9.88
  14  -6   3   26.08   13.17
  15   7  -3   14.81    7.12
  15   6  -3   -2.80    5.38
  15   6  -3    2.71    5.13
 -15  -6   3    5.51   10.38
  15   6   3   -8.00    5.15
  15   5  -3   -0.92    4.88
  15   5  -3    5.29    5.24
 -15  -5  -3   -1.15   10.35
 -15  -5   3    5.52    9.46
  15   5   3    0.18    5.41
  15   5   3    0.19    5.20
  15   4  -3   -6.29    4.89
 -15  -4  -3   -3.09    9.98
  15   4  -3   -0.75    5.34
  15   4   3    0.38    5.08
  15   4   3   -3.35    5.05
 -15  -4   3    4.68    8.21
 -15  -3  -3  -16.51    8.79
  15   3  -3   -2.36    4.97
  15   3  -3   -2.96    5.11
  15   3   3   -2.64    5.05
 -15  -3   3  -11.62   10.07
  15   3   3    0.16    5.09
 -15  -3   3   -1.57    6.78
 -15  -2  -3    4.77    7.53
  15   2  -3    0.61    5.75
  15   2  -3   -0.36    4.80
 -15  -2   3   22.07   10.16
 -15  -2   3    1.45    6.66
  15   2   3   -7.12    5.45
  15   2   3    2.69    5.32
  15   1  -3    7.63    7.44
 -15  -1  -3   15.55   10.95
  15   1  -3    0.89    4.77
 -15  -1  -3   -1.21    7.06
 -15  -1   3    4.59    6.48
 -15  -1   3    5.02    9.54
  15   1   3    0.19    5.07
  15   1   3    6.45    6.13
  15   0  -3    4.87    4.90
 -15   0  -3   10.16    7.03
  15   0  -3    4.12    8.41
 -15   0  -3    0.41   10.82
  15   0   3  -17.57    7.45
  15   0   3   -8.90    5.40
 -15   0   3   12.16    9.64
 -15   0   3    5.93    6.69
  15  -1  -3    5.90    5.08
 -15   1  -3  -17.01   11.13
 -15   1  -3    0.39    6.96
  15  -1  -3   10.56    9.74
 -15   1   3   -6.67    7.25
  15  -1   3   -8.79    8.62
  15  -1   3   -5.18    4.88
 -15   1   3   16.12   10.15
 -15   2  -3   -3.52    7.22
  15  -2  -3    7.95   10.90
  15  -2  -3    1.03    5.01
  15  -2   3   -6.01    9.44
 -15   2   3    3.00    7.50
  15  -2   3   -0.20    5.40
 -15   2   3   -5.81   10.08
 -15   3  -3   -4.66    7.59
  15  -3  -3   -1.73    4.95
  15  -3  -3   -4.63   12.49
  15  -3   3   14.62   10.53
 -15   3   3    4.19   10.55
 -15   3   3   -7.91    7.85
 -15   4  -3    4.17    7.57
 -15   4  -3  -10.40   10.94
  15  -4  -3    5.24   14.19
 -15   4   3    2.26   10.18
  15  -4   3  -27.83   11.74
  15  -4   3    2.21    5.56
 -15   5  -3   13.28    8.51
 -15   5  -3    6.12   11.26
  15  -5   3    5.81   12.59
  15  -5   3   17.60    5.90
 -15   6  -3    9.53   10.36
  15  -6   3    0.38   13.41
  16   7  -3   -4.74    6.25
  16   6  -3    1.32    6.52
  16   6  -3   24.53    6.78
  16   6   3    0.22    6.28
  16   5  -3  -15.16    6.19
 -16  -5  -3   -3.76   11.47
  16   5  -3    3.96    5.37
  16   5   3    7.35    5.82
 -16  -5   3  -27.51   10.81
  16   5   3  -14.18    6.09
 -16  -4  -3   -6.43   11.00
  16   4  -3    5.08    5.49
  16   4  -3    4.23    5.29
 -16  -4   3  -10.74   12.17
  16   4   3    8.04    5.72
 -16  -4   3    0.27    8.84
  16   4   3    0.21    5.86
  16   3  -3    5.70    5.52
  16   3  -3    5.48    5.31
 -16  -3  -3    5.13    9.07
 -16  -3   3    3.37   11.43
  16   3   3   -5.34    5.56
 -16  -3   3    2.07    7.77
  16   3   3   -8.62    5.80
  16   2  -3   12.80    6.26
  16   2  -3    0.60    5.51
 -16  -2  -3   21.23   12.68
 -16  -2  -3   -0.26    8.33
  16   2   3   -4.97    5.76
  16   2   3    4.31    5.73
 -16  -2   3    0.20    7.51
 -16  -2   3   -2.55   10.87
  16   1  -3    1.63    5.07
 -16  -1  -3   -8.25   12.40
 -16  -1  -3   -4.34    7.84
  16   1  -3    0.20    7.38
  16   1   3   -0.18    6.43
  16   1   3    0.21    5.59
 -16  -1   3   18.02   11.14
 -16  -1   3    2.63    7.66
  16   0  -3   -7.00    5.50
 -16   0  -3   26.60   12.20
  16   0  -3   -5.41    8.97
 -16   0  -3    1.12    7.80
  16   0   3    3.99    7.42
 -16   0   3    9.31   11.06
 -16   0   3   10.98    7.67
  16   0   3    2.73    5.68
 -16   1  -3   -1.53    7.74
 -16   1  -3    6.78   11.88
  16  -1  -3   -6.97   10.40
  16  -1  -3   -2.64    5.21
 -16   1   3    3.51   10.94
 -16   1   3   -2.53    8.01
  16  -1   3    0.24    8.59
  16  -1   3    0.87    5.72
 -16   2  -3   -0.51   12.14
  16  -2  -3   -5.75    5.60
 -16   2  -3   -1.31    7.95
  16  -2  -3   13.64   11.61
  16  -2   3   -0.91    5.90
 -16   2   3   -8.64    8.70
 -16   2   3   16.68   11.47
  16  -2   3    9.66   10.19
  16  -3  -3    2.46   12.94
 -16   3  -3    7.44    8.55
  16  -3  -3   -1.42    5.45
 -16   3   3    0.23    9.23
 -16   3   3    2.31   11.25
  16  -3   3   11.43   11.00
  16  -4  -3   25.61   14.71
 -16   4  -3    9.01    8.78
  16  -4   3  -24.85   12.17
 -16   4   3    4.34   11.66
 -16   5  -3   10.22    9.04
 -16   5  -3   -3.71   12.17
  16  -5   3    0.36   13.43
  16  -5   3   -0.25    6.13
 -16   6  -3   -2.63   12.02
  16  -6   3  -39.12   15.25
  17   7  -3  -15.05    7.66
  17   6  -3   -1.98    7.08
  17   6  -3    5.50    6.21
 -17  -6   3    8.98   12.34
  17   6   3  -10.28    6.74
 -17  -5  -3    4.12   13.05
  17   5  -3  -10.00    6.82
  17   5  -3   -4.47    5.82
  17   5   3    6.02    6.38
  17   5   3   -0.24    6.49
 -17  -5   3   -3.95   14.16
 -17  -5   3    9.21   11.81
  17   4  -3    6.20    5.75
  17   4  -3   -0.70    6.26
 -17  -4  -3   -7.53   12.50
 -17  -4   3   26.50    9.77
  17   4   3    9.56    6.25
  17   4   3   -9.82    6.80
 -17  -4   3  -12.00   13.26
  17   3  -3   -4.95    6.18
 -17  -3  -3  -19.84   11.57
  17   3  -3  -20.86    6.74
 -17  -3   3    0.26    8.87
 -17  -3   3    6.15   13.04
  17   3   3  -19.57    6.95
  17   3   3    0.19    6.36
  17   2  -3  -27.65    7.34
 -17  -2  -3  -26.79   11.09
 -17  -2  -3  -14.34   14.72
 -17  -2   3    0.48   13.55
  17   2   3  -28.36    7.58
 -17  -1  -3   35.70   16.76
  17   1  -3   45.16   13.61
  17   1  -3   95.57   16.28
 -17  -1  -3   52.56   19.13
 -17  -1   3   36.04   16.48
 -17  -1   3   55.44   18.10
  17   1   3   49.64   13.72
  17   0  -3   69.63   20.98
 -17   0  -3   61.15   21.28
  17   0  -3   43.44   16.02
 -17   0  -3   59.64   20.23
  17   0   3   64.77   16.29
 -17   0   3   35.11   20.86
 -17   0   3   24.90   20.46
  17  -1  -3    9.41   16.34
 -17   1  -3   13.76   16.46
  17  -1  -3   15.77   10.45
 -17   1  -3    9.98   14.19
 -17   1   3   19.18   14.64
  17  -1   3    9.88   10.59
 -17   1   3    8.98   15.50
 -17   2  -3   -9.38   14.58
  17  -2  -3   -0.33   12.65
 -17   2  -3   -6.16   10.18
  17  -2  -3    0.25    6.44
 -17   2   3   -1.23   10.21
  17  -2   3  -11.87    7.18
 -17   2   3  -28.16   13.51
  17  -3  -3  -13.45   14.03
  17  -3  -3  -12.74    6.49
 -17   3  -3    4.49    9.48
 -17   3   3   18.55   13.22
 -17   3   3   -8.42   10.63
  17  -3   3   -4.92   12.39
  17  -4  -3  -15.01   17.31
 -17   4  -3  -11.56    9.76
  17  -4   3   25.08   13.28
 -17   4   3  -47.69   15.59
 -17   5  -3   13.10   13.76
 -17   5  -3   -6.07   10.08
  17  -5   3    3.64    6.53
  17  -5   3   -5.83   14.09
 -17   6  -3   -0.73   13.77
 -17   6  -3   -5.45   10.37
  17  -6   3    5.27   15.85
  18   7  -3  -20.65    9.10
  18   6  -3   -0.28   10.87
  18   6  -3  -22.31    9.28
  18   6   3    2.27    9.91
 -18  -6   3   -3.72   16.02
 -18  -5  -3   13.09   13.98
  18   5  -3   -8.50    6.44
  18   5  -3    9.47    7.44
  18   5   3   -5.51    7.54
 -18  -5   3    6.54   15.30
 -18  -5   3   -1.69   13.02
  18   5   3    5.86    6.91
  18   4  -3    2.08    6.32
 -18  -4  -3   20.93   13.77
  18   4  -3    6.42    7.17
  18   4   3    4.71    6.78
 -18  -4   3   -0.73   11.60
 -18  -4   3  -10.23   14.68
  18   4   3    0.28    7.51
 -18  -3  -3  -24.20   16.51
 -18  -3  -3   -0.40   12.34
  18   3  -3    3.39    6.57
  18   3  -3   -0.75    6.81
 -18  -3   3    5.84   10.39
 -18  -3   3   28.95   14.28
  18   3   3   -2.17    7.16
  18   3   3   -0.22    7.09
 -18  -2  -3    1.72   10.96
  18   2  -3    2.05    7.28
 -18  -2  -3  -21.75   15.38
  18   2  -3  -10.39    6.57
  18   2   3   -5.43    7.31
  18   2   3    2.89    7.40
 -18  -2   3   -2.20   13.95
 -18  -2   3   -0.26    9.58
 -18  -1  -3  -18.05   15.55
  18   1  -3   16.40    8.86
 -18  -1  -3  -15.50   10.38
  18   1  -3   -1.79    6.49
  18   1   3   -7.90    8.01
  18   1   3    4.67    6.89
 -18  -1   3   -5.61   13.46
 -18  -1   3    8.34    9.56
  18   0  -3    9.24    6.68
 -18   0  -3    2.00   10.18
  18   0  -3    7.59   10.45
 -18   0  -3    1.81   15.25
 -18   0   3   -1.57    9.65
  18   0   3    1.82    6.91
 -18   0   3  -16.16   13.96
  18   0   3    6.82    8.82
  18  -1  -3  -16.32   12.43
 -18   1  -3    3.71   14.85
 -18   1  -3   15.22   10.55
  18  -1  -3    9.25    6.82
  18  -1   3    4.94   10.51
 -18   1   3   12.12   10.22
 -18   1   3   17.19   14.10
  18  -1   3    0.27    6.84
 -18   2  -3   32.99   15.70
 -18   2  -3  -18.43   10.79
  18  -2  -3  -27.83   13.75
  18  -2  -3    2.79    6.80
 -18   2   3  -14.83   14.11
 -18   2   3    3.79   10.48
  18  -2   3   -0.28    7.24
  18  -2   3    3.85   12.03
 -18   3  -3  -10.25   10.38
  18  -3  -3   -9.53   15.00
  18  -3  -3   -0.29    6.65
  18  -3   3    4.33   13.05
 -18   3   3   -7.59   10.91
  18  -3   3  -10.56    7.30
 -18   3   3  -19.16   14.75
 -18   4  -3  -14.77   10.95
  18  -4  -3  -13.61   16.81
 -18   4   3   -6.77   14.64
 -18   4   3  -11.65   11.29
  18  -4   3   -3.51   14.81
 -18   5  -3   -6.20   14.98
 -18   5  -3   -2.34   11.08
  18  -5   3  -16.22   16.28
  19   6  -3   -9.55    7.09
  19   6  -3   11.50    8.48
 -19  -6   3   -1.01   14.48
 -19  -6   3   10.59   17.48
  19   6   3    7.02    8.57
 -19  -5  -3   25.05   15.72
  19   5  -3    0.87    6.93
  19   5  -3  -13.91    8.14
 -19  -5   3   -1.40   14.04
  19   5   3    5.60    8.58
 -19  -5   3    2.43   16.23
  19   5   3   10.55    7.70
 -19  -4  -3    2.59   15.46
 -19  -4  -3  -14.35   18.29
  19   4  -3    0.28    7.32
  19   4  -3   -4.71    7.07
 -19  -4   3   -9.71   16.24
  19   4   3   -3.48    7.93
 -19  -4   3    5.69   13.24
  19   4   3  -16.71    8.65
 -19  -3  -3  -23.82   18.32
 -19  -3   3  -19.50   17.13
 -19  -2   3  193.43   38.52
  19   1  -3  339.78   81.31
 -19  -1  -3  180.09   85.63
 -19  -1   3  503.56   97.52
  19   0  -3  129.68   44.13
  19   0  -3  121.13   55.64
 -19   0  -3  150.43   50.49
 -19   0   3  198.56   57.26
 -19   0   3  114.90   51.68
  19  -1  -3  232.53   92.79
 -19   1  -3  202.83   87.73
 -19   1  -3  178.26   77.92
  19  -1  -3  172.94   69.19
 -19   1   3  156.90   91.45
  19  -1   3  438.23   86.84
 -19   1   3  173.44   79.83
  19  -1   3  290.69   69.29
 -19   2  -3   49.17   21.50
  19  -2  -3   48.39   21.58
  19  -2  -3  -13.88   12.26
 -19   2  -3  -15.29   17.87
 -19   2   3   16.56   19.96
 -19   2   3    6.87   18.27
  19  -2   3   22.19   20.31
 -19   3  -3   -7.10   17.91
 -19   3  -3    2.82   12.50
  19  -3  -3  -17.38    8.36
 -19   3   3  -21.76   13.36
 -19   3   3  -70.67   17.99
  19  -3   3  -22.99    8.92
  19  -4  -3    0.48   18.02
 -19   4  -3   -2.84   12.20
 -19   4   3   21.80   12.28
 -19   4   3   16.65   15.45
  19  -4   3   -6.81   16.40
 -19   5  -3    3.58   12.76
  19  -5   3    4.53   17.27
 -19   6  -3   10.06   13.48
 -19   6  -3   14.48   17.37
  19  -6   3    8.68   18.55
  20   6  -3    9.26    9.74
  20   6  -3    1.73    7.40
 -20  -6   3   -8.88   16.11
 -20  -6   3   23.51   19.24
  20   5  -3    6.66    7.55
  20   5  -3    6.19    8.96
 -20  -5  -3   -6.18   16.78
  20   5   3  -10.52    8.65
 -20  -5   3  -14.95   18.51
 -20  -5   3    1.03   15.37
  20   4  -3    0.63    8.61
 -20  -4  -3  -23.23   17.12
  20   4  -3   16.80    7.99
 -20  -4   3   -6.36   14.51
  20   4   3    2.21    8.62
 -20  -4   3   -8.11   17.38
  20   3  -3   -6.83    8.25
 -20  -3  -3   38.75   17.24
 -20  -3  -3   13.01   19.44
 -20  -3   3    8.74   14.40
 -20  -3   3   24.19   17.91
  20   3   3   -8.88    9.02
  20   3   3   -9.64    9.20
  20   2  -3    4.73    9.11
  20   2  -3   12.71    8.81
 -20  -2  -3   16.43   15.75
 -20  -2  -3   -3.64   19.00
 -20  -2   3   25.26   17.70
  20   2   3    4.20    8.90
  20   2   3  -11.20    9.44
 -20  -2   3    1.46   12.84
 -20  -1  -3   58.63   19.34
 -20  -1  -3  -12.24   14.11
  20   1  -3    5.55    8.50
  20   1  -3   -3.85   10.17
 -20  -1   3   11.10   17.82
  20   1   3  -12.57    8.76
 -20  -1   3    3.35   12.06
  20   1   3    0.28    9.72
  20   0  -3    8.94   11.57
  20   0  -3   15.73    8.61
 -20   0  -3    0.77   13.46
 -20   0  -3    3.84   19.31
  20   0   3   -8.30   11.25
  20   0   3    0.33    8.81
 -20   0   3  -21.53   17.22
 -20   0   3    2.35   12.46
  20  -1  -3  -17.65   14.08
 -20   1  -3   -8.16   19.58
  20  -1  -3   21.93    8.51
 -20   1  -3   16.07   13.01
 -20   1   3   -5.62   12.44
  20  -1   3    4.02   12.30
 -20   1   3    8.08   17.85
  20  -1   3    8.19    8.80
  20  -2  -3    2.38    8.06
 -20   2  -3  -16.21   19.69
 -20   2  -3   11.43   13.17
  20  -2  -3   -0.42   15.81
 -20   2   3    2.01   12.65
  20  -2   3    8.41   14.07
 -20   2   3   18.67   17.61
  20  -3  -3    3.87    8.38
  20  -3  -3   18.60   17.56
 -20   3  -3   -8.52   13.23
 -20   3   3   17.72   17.41
 -20   3   3   19.83   13.02
  20  -3   3  -23.07   16.67
  20  -4  -3    8.53   18.93
 -20   4   3    0.93   13.05
 -20   4   3   18.42   13.68
   0   0  -4  126.47   41.50
   0   0  -4  174.82   34.50
   0   0   4  121.85   31.60
   1   0  -4   -0.07    0.58
   0   1  -4    0.08    0.36
   0   1  -4   -0.02    0.27
   0  -1   4    0.14    0.18
  -1   0   4    0.08    0.19
  -1   1  -4    0.23    0.37
  -1   1  -4    0.27    0.27
  -1   1  -4    0.21    0.29
   1   1  -4    0.16    0.42
   1  -1   4    0.05    0.27
   1  -1   4    0.03    0.52
   1  -1   4    0.24    0.18
  -1  -1   4    0.22    0.24
   2   1  -4    0.97    0.61
  -1   2  -4    0.82    0.44
   2   1  -4    0.38    0.57
   2   1  -4    0.49    0.37
  -1   2  -4    1.18    0.90
  -1   2  -4   -0.04    0.55
   2   1  -4    0.77    0.42
   1  -2   4    0.91    0.45
   1  -2   4    0.52    0.29
  -2  -1   4    1.06    0.70
  -2  -1   4    0.72    0.33
   0   2  -4   39.09    9.77
  -2   0  -4   35.27    9.51
   2   0  -4   51.36    9.38
   0   2  -4   22.19    8.88
   2   0  -4   42.90   11.26
   2   0   4   31.04    9.22
  -2   0   4   40.71    8.67
   2   0   4   26.16    8.37
   0  -2   4   37.80    8.57
  -2   1  -4    1.20    0.34
  -2   1  -4    0.56    0.53
   1   2  -4    0.50    0.49
  -2   1  -4    1.03    0.45
   2  -1   4    0.51    0.47
   2  -1   4    0.53    0.87
   2  -1   4    0.80    0.25
  -2   2  -4   22.93    5.43
   2   2  -4   24.06    4.85
   2   2  -4   20.72    5.19
  -2   2  -4   17.22    5.03
   2   2  -4   20.91    4.72
  -2   2  -4   18.80    5.41
   2  -2   4   21.99    4.61
   2  -2   4   23.93    5.26
   2  -2   4   25.22    5.87
  -2  -2   4   16.76    4.69
   3   2  -4   21.16    6.07
   3   2  -4   23.22    6.87
   3   2  -4   22.33    6.61
   3   2  -4   28.98    6.16
  -3  -2   4   29.90    6.71
  -3  -2   4   24.87    5.95
   3   1  -4    6.39    1.84
   3   1  -4    6.62    1.69
   3   1  -4    4.04    1.57
   3   1  -4    6.35    1.94
  -3  -1  -4    0.53    2.03
   1  -3   4    6.05    1.47
  -3  -1   4    7.36    1.43
   3   1   4    6.44    1.53
  -3  -1   4    7.57    1.89
   3   1   4    2.10    1.75
   3   0  -4   -0.17    0.58
   3   0  -4    0.05    0.85
  -3   0  -4   -0.21    0.74
   0   3  -4    0.14    0.74
   3   0  -4    0.06    0.37
   3   0   4   -0.03    0.48
  -3   0   4   -0.23    0.34
   3   0   4   -0.13    0.87
   0  -3   4    0.10    0.36
  -3   0   4   -0.43    1.25
  -3   1  -4    5.59    1.95
   1   3  -4    6.81    1.92
  -1  -3   4    9.36    1.65
   3  -1   4    5.99    1.77
   3  -1   4    6.22    2.21
   2   3  -4   22.03    6.63
  -3   2  -4   25.80    6.47
  -3   2  -4   28.31    6.93
   2   3  -4   19.48    6.16
   3  -2   4   21.77    7.41
   3  -2   4   25.31    6.46
   3   3  -4   42.53    9.31
  -3   3  -4   33.78   11.44
   3   3  -4   35.95   10.01
   3   3  -4   33.34    9.05
   3  -3   4   43.11    9.92
   4   3  -4   28.97    5.06
   4   3  -4   21.90    5.68
   4   3  -4   13.62    5.72
   4   3  -4   26.05    5.38
  -4  -3   4   18.13    5.05
  -4  -3   4    8.22    5.99
   4   2  -4    9.88    3.16
   4   2  -4   11.29    3.53
   4   2  -4   13.88    3.35
   4   2  -4    9.23    3.06
  -4  -2   4   16.08    3.48
  -4  -2   4   11.57    2.99
   4   1  -4    0.74    1.37
   4   1  -4    1.72    0.82
  -4  -1  -4    1.83    1.47
   4   1  -4    0.64    1.00
   4   1  -4    0.99    0.72
  -4  -1   4    1.00    0.54
  -4  -1   4    2.13    1.45
  -4  -1   4    0.95    0.94
   4   1   4    0.90    0.77
   4   1   4    1.83    1.15
   4   0  -4   94.05   24.75
  -4   0  -4   60.97   20.82
   4   0  -4   90.69   24.63
   4   0  -4   97.42   19.97
   4   0  -4   81.58   20.88
   4   0   4   62.56   20.97
  -4   0   4   73.58   22.21
  -4   0   4   88.76   19.54
   4   0   4   78.47   19.25
  -4   1  -4    1.35    1.11
   4  -1  -4    0.60    0.62
  -4   1   4    1.31    2.02
   4  -1   4    1.42    0.88
  -1  -4   4    1.88    0.69
   4  -1   4    0.20    1.63
  -4   2  -4    7.54    3.56
   4  -2   4   13.47    4.29
   4  -2   4   15.53    3.36
  -4   3  -4   18.46    6.75
   4  -3   4   25.67    6.04
   4  -3   4   24.84    7.36
   4   4  -4   23.53    6.04
   5   4  -4    4.57    1.73
   5   4  -4    6.67    2.34
  -5  -4   4    5.62    1.58
   5   3  -4   -0.20    1.53
   5   3  -4    0.08    1.01
   5   3  -4   -0.04    1.15
  -5  -3   4    1.38    2.07
   5   2  -4   10.73    2.53
   5   2  -4    9.08    2.99
   5   2  -4    9.71    2.72
   5   2  -4   10.12    2.63
  -5  -2   4    9.87    2.88
  -5  -2   4    9.53    2.32
  -5  -2   4    6.55    2.34
   5   1  -4   26.17    8.26
   5   1  -4   22.21    8.20
   5   1  -4   35.16    7.34
   5   1  -4   32.99    7.71
  -5  -1   4   36.98    7.77
  -5  -1   4   30.13    8.23
  -5  -1   4   23.30    6.79
   5   0  -4    0.18    0.77
   5   0  -4    0.77    1.21
  -5   0  -4    0.20    1.40
   5   0  -4    0.41    1.55
   5   0  -4    1.52    2.59
   5   0   4    0.87    1.80
  -5   0   4   -0.66    2.24
  -5   0   4    0.63    0.65
   5  -1  -4   22.85   10.36
  -5   1  -4   34.69    8.34
   5  -1  -4   36.29    8.20
  -5   1   4   31.55    9.13
   5  -1   4   29.73    8.55
  -5   4  -4    6.50    3.63
   5  -4   4    3.20    2.06
   5   5  -4    6.11    2.20
  -5  -5   4    5.94    1.91
   6   5  -4    9.90    3.05
   6   5  -4   11.78    2.83
  -6  -5   4    6.95    2.68
   6   4  -4   -0.66    2.09
   6   4  -4    0.05    1.45
  -6  -4   4    1.04    0.97
  -6  -3  -4   -0.16    3.34
   6   3   4    1.59    1.44
  -6  -2  -4   34.22   18.83
   6   2  -4   50.56   18.20
   6   2  -4   68.67   18.13
  -6  -2   4   77.64   18.41
  -6  -2   4   75.01   15.75
   6   2   4   67.95   17.19
   6   1  -4    0.85    1.04
   6   1  -4    0.15    1.46
  -6  -1  -4   -0.29    2.03
   6   1   4   -0.40    1.75
  -6  -1   4    0.10    0.69
  -6  -1   4    0.47    1.65
  -6   0  -4    7.33    2.97
   6   0  -4    7.74    3.44
   6   0  -4   11.04    2.48
   6   0   4   11.82    3.27
  -6   0   4    9.22    2.47
   6   0   4    8.89    2.61
  -6   1  -4   -0.97    1.78
   6  -1  -4   -0.75    0.82
   6  -1   4    3.10    2.68
   6  -1   4   -0.06    1.46
  -6   2  -4   64.70   18.08
   6  -2   4   73.36   18.28
  -6   2   4   76.28   21.32
   6  -2   4   77.43   21.07
  -6   3  -4    2.26    3.27
   6  -3   4    1.06    4.06
   6  -3   4    0.46    1.66
  -6   4  -4    0.22    3.64
   6  -4   4    1.27    4.51
   6  -4   4    1.97    1.90
   7   6  -4   11.91    3.82
   7   5  -4   12.29    3.10
   7   5  -4   11.34    3.93
   7   5  -4    9.67    3.42
  -7  -5   4   10.56    3.00
   7   4  -4    1.82    2.83
   7   4  -4    1.72    2.03
   7   4  -4    4.84    2.01
  -7  -4   4    4.88    1.64
  -7  -4   4   -6.16    4.91
   7   3  -4    2.73    2.19
   7   3  -4    4.43    1.71
   7   3  -4    4.30    2.09
  -7  -3  -4    2.86    4.02
   7   3  -4    6.45    1.76
  -7  -3   4    2.19    1.28
   7   3   4    3.16    1.71
   7   3   4    1.57    2.61
  -7  -3   4   -0.75    2.71
  -7  -2  -4   -1.60    2.90
   7   2  -4   -2.43    1.63
   7   2  -4   -3.65    2.32
  -7  -2   4   -0.41    2.02
   7   2   4    0.37    2.19
   7   1  -4   -2.91    2.69
   7   1  -4    1.12    1.70
   7   1  -4    3.01    1.63
  -7  -1  -4    1.09    2.24
  -7  -1   4    0.63    3.00
  -7  -1   4    1.21    0.81
   7   1   4    0.93    2.08
  -7  -1   4    1.61    2.09
   7   0  -4   -0.23    1.01
  -7   0  -4    0.07    2.13
   7   0  -4    1.83    1.58
   7   0  -4   -0.70    3.47
   7   0  -4    0.15    2.08
  -7   0   4    0.18    0.83
  -7   0   4   -0.29    3.16
   7   0   4   -1.28    2.49
   7   0   4   -1.07    1.53
  -7   1  -4   -0.07    2.18
   7  -1  -4    2.04    0.97
   7  -1  -4   -0.27    4.36
   7  -1  -4    1.08    1.77
   7  -1   4   -0.07    1.76
   7  -1   4   -0.26    3.01
  -7   1   4    5.33    3.65
   7  -2  -4   -3.74    4.98
  -7   2  -4   -2.11    3.28
   7  -2  -4   -0.39    1.86
   7  -2   4   -0.44    3.78
   7  -2   4    0.38    1.84
  -7   2   4    0.24    3.90
  -7   3  -4    3.21    3.64
   7  -3   4    2.66    4.69
   7  -3   4    2.36    2.19
  -7   4  -4    6.18    4.62
   7  -4   4    6.69    2.80
   7  -4   4   15.39    5.86
  -7   5  -4    2.61    5.22
   7  -5   4    7.28    6.47
   8   6  -4    6.00    3.05
   8   6  -4    8.73    2.81
   8   5  -4    4.32    3.37
   8   5  -4    6.77    2.83
   8   5  -4    9.97    2.62
  -8  -5   4   -0.37    5.18
  -8  -5   4    8.06    2.35
   8   4  -4    5.80    3.25
   8   4  -4    5.44    2.71
   8   4  -4   11.54    3.29
   8   4  -4    4.03    2.54
  -8  -4   4    9.08    2.18
  -8  -4   4   12.73    4.54
   8   3  -4   -6.06    2.16
  -8  -3  -4   -2.97    4.30
   8   3  -4   -1.97    2.40
   8   3  -4   -2.35    1.87
   8   3  -4   -0.27    1.76
  -8  -3   4    0.50    1.24
  -8  -3   4   -2.36    2.97
   8   3   4    0.48    2.47
  -8  -3   4   -0.92    1.24
   8   3   4    0.08    1.76
  -8  -1  -4    0.88    2.87
  -8  -1   4   -9.77    5.05
   8   1   4   -7.05    2.87
   8   1   4   -0.02    0.81
  -8   0  -4    8.92    3.14
   8   0  -4  -13.16    5.21
   8   0  -4    2.52    2.75
  -8   0   4   10.40    1.89
   8   0   4    3.65    2.82
   8   0   4   -1.74    4.15
  -8   0   4    8.43    4.07
   8  -1  -4  -12.81    6.12
  -8   1  -4   -1.53    4.32
   8  -1  -4   -2.93    2.64
  -8   1  -4   -1.11    2.92
  -8   1   4   -0.21    4.50
   8  -1   4   -8.30    2.91
   8  -2  -4   17.77    8.68
   8  -2  -4   -2.55   13.66
  -8   2  -4   10.63   10.28
  -8   2  -4    7.35    9.03
  -8   2   4   10.57   10.95
   8  -2   4   22.56    8.62
   8  -2   4   21.10   11.27
   8  -3  -4   -0.65    6.27
  -8   3  -4   -0.81    4.16
   8  -3   4    0.58    2.25
   8  -3   4   -7.59    5.07
  -8   4  -4    3.93    5.12
   8  -4   4    6.58    2.95
   8  -4   4    3.06    5.94
  -8   5  -4    8.17    5.52
   8  -5   4   -1.56    6.56
   8  -5   4    3.98    3.12
   9   6  -4   45.38   12.17
   9   6  -4   41.14   11.04
   9   5  -4    5.92    2.72
   9   5  -4    3.73    3.55
   9   5  -4    3.09    2.58
   9   5  -4    7.95    3.48
  -9  -5   4    7.04    2.14
  -9  -5   4   -1.98    5.50
   9   4  -4   52.14   10.90
  -9  -4  -4    8.34   12.95
   9   4  -4   37.93   11.80
   9   4  -4   49.59   11.93
   9   4  -4   47.48   11.87
  -9  -4   4   49.33   10.71
  -9  -4   4   42.53   13.36
   9   4   4   39.69    9.91
   9   3  -4    4.18    2.46
  -9  -3  -4    0.18    4.82
   9   3  -4   11.82    2.53
   9   3  -4   -1.71    2.86
   9   3  -4    6.32    2.92
   9   3   4    4.37    2.45
  -9  -3   4    6.55    1.87
  -9  -3   4    4.66    3.42
  -9  -3   4    5.87    1.86
   9   3   4    8.26    3.32
  -9  -2  -4    9.55    4.70
   9   2  -4   11.41    3.40
   9   2  -4   13.87    4.16
   9   2  -4   12.99    3.58
   9   2  -4    9.51    3.55
  -9  -2   4   11.38    2.88
   9   2   4    8.67    3.73
   9   2   4    8.33    3.27
  -9  -2   4   15.93    4.12
  -9  -2   4    7.67    2.73
   9   1  -4   -3.51    2.16
   9   1  -4   -1.55    3.70
   9   1  -4   -0.15    1.80
  -9  -1  -4    0.30    2.96
  -9  -1   4   -0.87    4.20
  -9  -1   4   -4.54    2.86
  -9  -1   4   -0.84    1.02
   9   1   4    0.09    2.90
   9   0  -4   -0.19    2.23
   9   0  -4   -4.71    4.58
  -9   0  -4    0.36    2.92
  -9   0   4   -0.95    3.02
   9   0   4    1.00    3.40
  -9   0   4    2.12    4.26
   9  -1  -4    1.15    2.32
   9  -1  -4    3.18    5.54
  -9   1  -4   -1.57    4.57
  -9   1  -4    0.18    3.02
  -9   1   4   -1.17    4.68
   9  -1   4    1.15    3.96
   9  -1   4   -0.59    2.45
  -9   2  -4    6.86    5.26
  -9   2  -4   10.53    4.52
   9  -2  -4   12.11    7.57
   9  -2  -4    7.92    3.80
   9  -2   4   19.35    5.88
   9  -2   4   15.10    3.78
  -9   2   4   13.93    6.00
   9  -3  -4    2.80    7.26
  -9   3  -4    0.91    4.94
  -9   3   4    2.96    5.53
   9  -3   4    7.44    5.95
   9  -3   4    4.24    2.80
  -9   4  -4   43.65   12.62
   9  -4   4   29.64   14.77
   9  -4   4   47.83   11.14
  -9   5  -4    3.19    5.51
   9  -5   4    3.97    3.12
   9  -5   4    3.37    7.47
   9  -6   4   43.94   15.17
  10   7  -4    8.99    4.19
  10   7  -4   12.72    4.13
  10   6  -4    0.54    2.78
  10   6  -4    3.04    2.89
  10   5  -4   17.61    5.37
  10   5  -4   23.34    6.20
  10   5  -4   22.46    5.74
 -10  -5   4    2.53    8.04
 -10  -5   4   18.00    5.12
  10   4  -4    6.28    3.40
  10   4  -4    3.35    2.73
  10   4  -4    5.31    3.23
  10   4  -4    2.30    2.48
 -10  -4  -4    1.21    6.24
 -10  -4   4    2.49    1.77
 -10  -4   4    3.85    4.75
  10   4   4    7.49    2.62
  10   4   4   -0.13    3.79
  10   3  -4   10.61    3.55
  10   3  -4    4.71    3.07
  10   3  -4   10.20    3.22
  10   3  -4    4.70    3.25
 -10  -3  -4    3.94    5.77
 -10  -3   4   10.47    4.09
  10   3   4    8.02    3.77
 -10  -3   4    5.38    2.32
 -10  -3   4    9.91    2.39
  10   3   4    9.89    3.09
  10   2  -4    8.16    2.60
 -10  -2  -4    5.85    4.44
  10   2  -4    2.17    3.04
  10   2  -4    4.19    2.68
  10   2  -4    1.72    3.57
 -10  -2   4    3.72    1.61
  10   2   4    3.79    3.12
 -10  -2   4    1.76    5.40
 -10  -2   4    5.57    1.66
 -10  -2   4    3.74    3.31
  10   2   4    3.88    2.62
  10   1  -4    0.69    2.41
  10   1  -4    0.33    2.00
 -10  -1  -4    2.12    3.53
  10   1  -4   -0.66    2.85
  10   1  -4    0.89    4.08
 -10  -1   4    0.97    1.25
  10   1   4    2.75    3.22
 -10  -1   4    0.20    4.95
 -10  -1   4    1.53    1.14
 -10  -1   4   -2.19    3.28
  10   0  -4   38.43    9.00
  10   0  -4   26.99   10.97
  10   0  -4   20.84    8.82
 -10   0  -4   37.70    9.66
  10   0  -4   36.23   12.31
  10   0   4   42.41    9.76
 -10   0   4   35.37   10.03
 -10   0   4   43.18   10.50
 -10   1  -4    3.60    5.41
  10  -1  -4    2.11    2.79
 -10   1  -4    3.23    3.55
  10  -1  -4    3.24    1.63
  10  -1  -4    1.23    6.19
  10  -1   4    0.89    2.79
  10  -1   4    8.41    4.68
 -10   1   4   -1.04    5.33
 -10   2  -4    1.85    5.29
  10  -2  -4    5.23    1.86
 -10   2  -4    7.65    4.01
  10  -2  -4   -2.99    7.44
  10  -2  -4    5.46    3.05
  10  -2   4    4.49    5.36
 -10   2   4    5.48    5.80
  10  -2   4    3.46    2.90
  10  -3  -4    5.90    3.58
  10  -3  -4    5.94    8.53
 -10   3  -4    3.61    6.02
  10  -3   4    8.88    3.42
 -10   3   4   -0.35    6.38
  10  -3   4   13.72    6.80
 -10   4  -4    4.16    6.31
  10  -4   4   11.27    3.59
  10  -4   4    9.46    7.51
 -10   5  -4   19.57    8.39
  10  -5   4   31.12   10.16
  10  -5   4   18.50    5.92
 -10   6  -4   -0.79    6.72
  11   7  -4    3.41    3.71
  11   7  -4    8.35    3.86
  11   6  -4    3.59    3.15
  11   6  -4    1.79    3.39
 -11  -6   4    9.92    7.51
  11   5  -4   -0.90    2.98
  11   5  -4    1.08    3.68
  11   5  -4   -0.49    2.75
 -11  -5   4   -1.33    1.97
 -11  -5   4    5.22    6.79
  11   4  -4   15.87    4.74
  11   4  -4   13.15    4.80
 -11  -4  -4    2.05    7.85
  11   4  -4   11.94    5.14
  11   4  -4   17.35    5.42
 -11  -4   4   21.76    6.58
 -11  -4   4   18.07    4.17
  11   4   4   11.27    5.42
 -11  -4   4   19.32    4.04
  11   4   4   19.87    4.63
  11   3  -4    1.58    3.37
  11   3  -4    3.32    3.04
  11   3  -4    6.46    3.18
 -11  -3  -4    3.43    5.75
 -11  -3   4    3.81    4.12
  11   3   4    6.67    3.03
 -11  -3   4    4.76    1.68
  11   3   4    3.27    3.79
 -11  -3   4    2.32    1.64
 -11  -2  -4   10.32    5.18
  11   2  -4   10.14    3.78
  11   2  -4    3.47    4.64
 -11  -2   4   12.73    4.60
 -11  -2   4    4.25    6.16
  11   2   4    9.81    4.07
 -11  -2   4    9.24    2.61
 -11  -2   4    8.78    2.66
  11   2   4   10.38    3.56
  11   1  -4   25.76    8.03
 -11  -1  -4   32.61    8.96
  11   1  -4   18.57    9.45
  11   1   4   32.91    7.83
  11   1   4   30.46    8.53
 -11  -1   4   35.37    9.60
 -11  -1   4   27.53    9.27
  11   0  -4    0.95    2.95
 -11   0  -4   -1.69    3.99
  11   0  -4    2.38    5.50
  11   0   4    3.34    4.57
 -11   0   4    1.35    4.14
 -11   0   4    3.03    6.01
 -11   1  -4   39.41   10.20
  11  -1  -4   12.49   11.67
 -11   1  -4   37.43    9.52
  11  -1  -4   23.63    8.25
  11  -1   4   36.42   10.08
 -11   1   4   35.82   10.18
 -11   2  -4   11.53    6.88
  11  -2  -4    2.27    8.73
  11  -2  -4    6.30    4.07
 -11   2  -4   14.33    5.27
  11  -2   4   17.15    6.83
  11  -2   4   11.58    4.20
 -11   2   4    9.59    7.10
 -11   3  -4    9.91    6.51
  11  -3  -4   -6.96    9.22
 -11   3  -4    5.01    4.85
  11  -3  -4    7.79    3.50
 -11   3   4   -0.38    7.22
  11  -3   4    8.83    3.55
  11  -3   4    0.20    7.23
 -11   4  -4    4.29    8.40
  11  -4   4   -2.22    4.95
  11  -4   4  -24.14   10.01
 -11   5  -4   -0.37    7.48
  11  -5   4   -7.25    3.99
  11  -5   4  -12.99    9.29
 -11   6  -4   -0.42    7.22
  11  -6   4   12.32    9.80
  12   7  -4   -0.86    4.03
  12   6  -4    2.78    3.63
 -12  -6   4   -5.30    8.11
  12   5  -4    3.36    3.98
 -12  -5  -4    6.27    7.83
  12   5  -4    0.90    3.61
  12   5   4    5.13    3.50
 -12  -5   4   -9.17    7.31
  12   4  -4   -2.64    3.56
  12   4  -4    1.00    3.40
 -12  -4  -4   -3.32    7.58
  12   4   4    0.67    3.34
  12   4   4    7.53    4.11
 -12  -4   4    5.36    5.54
  12   3  -4    1.54    3.75
 -12  -3  -4    2.43    6.27
  12   3  -4    0.38    3.50
 -12  -3   4    3.11    4.57
  12   3   4    0.13    3.36
  12   3   4    4.43    4.09
  12   2  -4   11.14    4.57
 -12  -2  -4   10.49    6.11
  12   2  -4    6.54    5.33
 -12  -2   4   12.04    5.59
  12   2   4   14.65    4.97
  12   2   4   10.37    4.50
 -12  -2   4   18.87    7.52
  12   1  -4   -0.13    3.16
  12   1  -4   -0.14    5.22
 -12  -1  -4  -10.22    5.26
 -12  -1   4    0.36    4.52
 -12  -1   4    3.67    6.32
 -12   0  -4    6.02   10.88
  12   0  -4   35.91    8.62
  12   0  -4   23.53   11.13
 -12   0   4   56.14   10.60
 -12   0   4   42.91   10.47
  12  -1  -4   -0.29    3.53
  12  -1  -4   10.17    7.71
 -12   1   4   11.05    7.21
 -12   1   4    4.65    5.28
  12  -2  -4   -6.14    9.63
  12  -2  -4   15.13    4.73
 -12   2  -4   10.32    6.12
 -12   2  -4    8.51    7.81
  12  -2   4    8.83    7.55
  12  -2   4   14.93    4.71
 -12   2   4   30.18    8.29
 -12   3  -4    5.26    7.33
  12  -3  -4    4.54    9.74
 -12   3  -4    4.91    5.46
  12  -3  -4    7.91    3.73
  12  -3   4   -7.38    8.01
 -12   3   4    0.41    7.68
  12  -3   4    2.78    3.88
  12  -4  -4    0.64   10.94
 -12   4  -4    4.05    7.60
  12  -4   4   -8.02    3.92
  12  -4   4    7.15    9.06
 -12   5  -4   17.04    7.96
  12  -5   4   -0.18    3.58
  12  -5   4   -6.38    9.75
  13   7  -4   15.99    5.82
  13   6  -4    6.14    4.14
  13   6  -4    3.78    4.67
 -13  -6   4    2.51    8.96
  13   5  -4   -0.13    4.25
  13   5  -4    1.46    3.93
 -13  -5   4   -5.09    7.91
  13   5   4   -6.28    4.00
  13   4  -4    2.61    4.02
  13   4  -4   -1.61    3.89
 -13  -4   4    3.50    6.04
  13   3  -4    2.46    3.97
  13   3  -4    2.05    4.18
 -13  -3   4    0.58    7.85
 -13  -3   4    5.69    5.15
 -13  -2  -4   -1.49    5.88
  13   2  -4    0.14    3.79
  13   2  -4    0.52    4.71
 -13  -2   4    1.74    7.67
 -13  -2   4    1.91    4.94
  13   2   4    0.13    4.16
  13   1  -4    8.66    4.15
 -13  -1  -4   12.50    5.90
  13   1  -4    8.96    6.19
 -13  -1   4   11.16    7.67
  13   1   4    0.13    5.00
 -13  -1   4    6.25    5.48
  13   0  -4   -1.96    3.81
 -13   0  -4    0.15    5.41
  13   0  -4    9.46    6.78
 -13   0   4   -7.06    7.51
 -13   0   4   -0.14    5.33
  13   0   4   -7.32    5.75
  13  -1  -4   13.32    8.82
 -13   1  -4   11.74    6.17
  13  -1  -4    5.85    4.56
  13  -1   4    5.01    6.94
 -13   1   4   12.26    6.21
 -13   1   4   11.23    8.17
  13  -2  -4   -6.71    9.52
  13  -2  -4   -0.52    4.08
  13  -2   4   -0.20    7.69
 -13   2   4   -0.80    8.43
  13  -3  -4  -10.37   10.93
 -13   5  -4    0.45    8.58
  13  -5   4   -9.06    4.67
 -13   6  -4    3.43    8.67
  13  -6   4   -0.21    4.47
  13  -6   4  -10.19   11.42
  14   8  -4   -2.60    5.12
  14   7  -4    3.53    4.95
 -14  -5  -4   -9.44    9.54
  14   5   4    1.03    4.30
 -14  -4  -4    4.51    9.97
  14   4   4    0.16    5.12
  14   4   4   -8.86    4.79
 -14  -3  -4   -5.65    7.96
  14   3   4   -6.82    4.87
 -14  -3   4    0.17    5.97
  14   3   4    4.49    4.35
 -14  -2  -4    5.62    6.74
 -14  -2   4   -1.10    5.62
  14   2   4    5.67    4.79
  14   2   4    1.51    4.42
 -14  -1  -4   23.43    8.12
  14   1   4   -0.17    6.67
  14   1   4   36.97    7.32
 -14   0  -4   15.64   12.24
 -14   0  -4   36.46   10.14
  14   0   4   12.56    8.59
  14   0   4   42.75    9.94
 -14   1  -4   24.02    7.92
  14  -1   4    4.01    8.97
 -14   2  -4    2.27    6.29
  14  -2  -4   -3.04    4.50
  14  -2   4  -13.33    8.46
 -14   2   4    1.77    9.33
 -14   3  -4   -3.25    6.58
  14  -3  -4   -0.20    4.45
 -14   3  -4    6.82   10.00
  14  -3   4   -1.33    4.96
 -14   3   4    9.76    9.09
  14  -3   4    1.22    9.07
 -14   4  -4    9.20   10.26
 -14   4  -4    6.68    7.54
  14  -4   4   27.43   11.53
 -14   4   4    9.56   10.13
  14  -4   4   15.96    6.05
 -14   5  -4    7.42    9.54
  14  -5   4   12.05    5.12
  14  -5   4  -18.93   11.56
 -14   6  -4   -1.60    9.78
  14  -6   4   -3.82    5.06
  14  -6   4   -1.01   12.33
  15   7  -4    4.39    5.68
  15   6  -4   -2.39    5.53
  15   6  -4   10.46    5.63
 -15  -6   4    2.88   10.34
  15   5  -4    2.70    4.95
 -15  -5  -4   12.59   10.55
  15   5  -4   -0.75    5.18
 -15  -5   4   11.72    9.50
  15   5   4   11.02    5.19
  15   4  -4   -2.60    4.73
  15   4  -4    0.19    5.18
 -15  -4  -4   14.81   10.28
  15   4   4    4.88    5.26
  15   4   4    3.48    5.33
 -15  -4   4    9.00   10.45
 -15  -4   4    0.68    7.86
  15   3  -4    6.25    5.06
  15   3  -4   -8.58    5.15
 -15  -3  -4   -0.60    9.16
 -15  -3   4    4.21    6.72
 -15  -3   4   -2.57    9.79
  15   3   4   13.62    5.36
  15   3   4    1.16    5.27
  15   2  -4   -1.26    6.03
 -15  -2  -4  -16.52    8.49
  15   2  -4    2.10    4.84
  15   2   4    0.19    5.05
 -15  -2   4   -7.27    6.48
  15   2   4   -8.49    5.52
 -15  -2   4    1.49    9.68
 -15  -1  -4   20.46   11.57
  15   1  -4   -3.25    4.96
 -15  -1  -4   -7.23    7.21
  15   1  -4    0.74    7.16
  15   1   4   -7.51    6.04
  15   1   4    2.33    5.30
 -15  -1   4   -1.55    9.54
 -15  -1   4    1.40    6.54
  15   0  -4    3.29    8.72
 -15   0  -4    9.65   11.47
  15   0  -4    1.70    4.70
 -15   0  -4   -0.20    6.80
 -15   0   4    1.24    9.48
  15   0   4   -9.01    7.15
  15   0   4    1.72    5.23
 -15   0   4   -4.83    6.75
  15  -1  -4   -0.59    4.93
  15  -1  -4    6.03   10.00
 -15   1  -4   -4.69    6.97
 -15   1   4   -4.96    9.81
 -15   1   4   -6.84    7.47
  15  -1   4  -12.35    8.33
  15  -2  -4    8.76    5.02
 -15   2  -4    0.78    7.18
  15  -2  -4   -2.66   11.58
 -15   2   4  -13.41    7.77
  15  -2   4   -1.23    9.37
 -15   2   4   -3.46   10.25
 -15   3  -4    0.48   10.87
 -15   3  -4    7.45    7.41
  15  -3  -4   -0.22    4.96
  15  -3  -4   30.12   13.29
 -15   3   4   14.97   10.67
  15  -3   4    7.51    5.42
  15  -3   4   -5.61   10.03
 -15   4  -4    4.96    7.67
  15  -4  -4   17.04   14.13
 -15   4  -4    0.52   11.08
  15  -4   4    3.86   11.19
  15  -4   4    7.57    5.62
 -15   4   4  -12.11   10.30
 -15   5  -4   -0.55   10.82
 -15   5  -4    8.49    8.14
  15  -5   4   -6.96    5.60
  15  -5   4   17.76   12.19
 -15   6  -4   15.89   11.45
  15  -6   4    7.36    5.95
  15  -6   4   18.38   13.32
  16   7  -4    3.55    6.04
  16   6  -4  -24.64    7.14
 -16  -6   4  -33.76   12.51
 -16  -5  -4   -4.71   11.56
  16   5   4    0.22    5.96
  16   5   4   -1.84    6.10
  16   4  -4   -0.41    5.51
  16   4  -4    5.69    5.13
 -16  -4  -4    1.55   11.00
 -16  -4   4   11.26   11.27
  16   4   4  -16.90    5.88
 -16  -4   4    2.94    8.73
  16   4   4   -5.53    5.90
  16   3  -4   17.44    5.47
 -16  -3  -4    0.33   10.06
  16   3  -4   -2.57    5.41
 -16  -3   4  -22.36   11.65
 -16  -3   4   -5.16    7.36
  16   3   4    1.48    5.74
  16   3   4   -4.76    5.96
 -16  -2  -4    1.11    9.17
  16   2  -4    6.24    6.24
  16   2  -4   -7.09    5.13
 -16  -2   4   -7.21   10.77
 -16  -2   4   -4.62    7.18
  16   2   4    2.83    5.90
  16   2   4    0.43    5.88
  16   1  -4   -1.43    5.41
 -16  -1  -4   -1.21    8.12
 -16  -1  -4   12.06   12.32
  16   1  -4    8.25    7.80
 -16  -1   4   32.12   11.02
 -16  -1   4   -2.60    7.19
  16   1   4   -3.45    5.83
  16   1   4    0.18    6.27
  16   0  -4   -3.84    5.36
 -16   0  -4    1.40   12.06
 -16   0  -4    8.66    7.79
  16   0  -4   11.11    9.06
 -16   0   4  -10.38    7.89
 -16   0   4   12.28   11.15
  16   0   4    0.20    7.19
  16   0   4    6.78    5.91
 -16   1  -4   -3.39   11.90
  16  -1  -4    3.55   10.68
 -16   1  -4   -2.68    8.13
  16  -1  -4    0.22    5.18
  16  -1   4   14.12    8.49
  16  -1   4    0.21    5.55
 -16   1   4  -35.15   11.08
 -16   1   4   -3.39    7.99
  16  -2  -4  -16.70   12.08
  16  -2  -4    6.64    5.48
 -16   2  -4    7.71    8.04
 -16   2   4    7.98    8.43
  16  -2   4  -11.16    9.73
 -16   2   4   -5.47   11.34
  16  -3  -4   -0.24    5.44
  16  -3  -4    1.47   13.22
 -16   3  -4   -2.90    8.22
 -16   3  -4    6.50   12.54
 -16   3   4  -48.19   12.76
  16  -3   4    0.88   10.74
 -16   3   4   -0.23    8.94
  16  -4  -4   11.59   14.92
 -16   4  -4    2.89   12.08
 -16   4  -4    5.96    8.49
  16  -4   4    3.19    6.31
 -16   4   4   -3.77   11.36
  16  -4   4   21.93   12.20
 -16   5  -4    6.80   12.61
 -16   5  -4   14.15    9.09
  16  -5   4   -0.26    6.20
 -16   6  -4   24.83   12.66
 -16   6  -4   -7.04    9.70
  16  -6   4   -7.79    6.59
  16  -6   4    0.39   14.38
  17   6  -4   -5.94    6.08
  17   6  -4   14.72    7.05
 -17  -6   4   11.74   11.82
  17   5  -4   10.21    6.49
  17   5  -4   -3.32    5.57
 -17  -5  -4    0.47   12.80
  17   5   4  -11.67    6.72
 -17  -5   4   28.81   11.33
 -17  -5   4   12.91   13.50
  17   5   4    3.32    6.43
  17   4  -4   -5.56    5.75
  17   4  -4   -6.11    6.28
 -17  -4  -4   27.04   13.20
 -17  -4   4   -4.67   12.32
  17   4   4   -0.24    6.46
  17   4   4    2.50    6.39
 -17  -4   4   12.48    9.92
  17   3  -4    5.94    5.89
  17   3  -4   -1.33    5.97
 -17  -3  -4   -8.89   11.41
 -17  -3   4   12.19   12.55
 -17  -3   4  -13.61    9.09
  17   3   4   -5.27    6.36
  17   3   4   -9.71    6.82
 -17  -2  -4    2.81   10.09
  17   2  -4  -23.16    6.45
 -17  -2  -4    0.52   14.33
 -17  -2   4  -29.93    9.23
 -17  -2   4   -3.86   12.47
  17   1  -4  -14.94    6.86
 -17  -1  -4  -14.24   10.57
 -17  -1  -4   -3.63   14.37
  17   1  -4   -7.69    9.43
  17   1   4  -26.41    7.21
  17   1   4  -15.02    8.57
 -17  -1   4  -30.70    9.36
 -17  -1   4   18.65   12.69
  17   0  -4    0.47    6.12
 -17   0  -4    1.79    9.40
 -17   0  -4   32.87   14.25
  17   0  -4  -25.53   10.85
 -17   0   4   -5.30   12.55
  17   0   4    0.23    6.98
 -17   0   4   11.95    8.77
  17  -1  -4    8.27    6.44
 -17   1  -4    1.00    9.63
 -17   1  -4   23.69   13.75
  17  -1  -4   -1.19   11.94
 -17   1   4   -0.57   13.11
  17  -1   4   -8.54   10.38
 -17   1   4   -3.50    9.43
  17  -1   4  -19.98    7.07
  17  -2  -4   13.77   13.34
 -17   2  -4   -1.25    9.60
  17  -2  -4    0.76    6.22
  17  -2   4  -21.04   11.48
 -17   2   4  -17.60   13.13
 -17   2   4   -1.71    9.62
 -17   3  -4    2.48    9.28
  17  -3  -4   -5.44   14.92
  17  -3  -4    8.93    6.08
 -17   3   4    6.11   10.10
 -17   3   4  -17.49   12.87
 -17   4  -4   -2.81    9.49
  17  -4  -4   -6.03   16.30
 -17   4  -4   -9.17   14.05
  17  -4   4    4.85   12.47
  17  -4   4   -0.28    6.60
 -17   4   4   -1.58   10.64
 -17   4   4    5.51   12.59
 -17   5  -4    1.38   14.11
 -17   5  -4    0.26   10.25
  17  -5   4    0.37   13.37
  17  -5   4    7.58    6.81
 -17   6  -4    1.35    9.96
 -17   6  -4  -39.94   14.26
  17  -6   4   -6.50    6.65
  17  -6   4  -12.00   15.43
  18   6  -4   17.66   18.20
  18   6  -4   31.24   21.31
 -18  -6   4   92.85   27.58
 -18  -6   4   19.16   25.25
  18   5  -4   -3.04    6.21
  18   5  -4    5.51    7.28
 -18  -5  -4    2.58   13.75
 -18  -5   4   -0.40   12.17
  18   5   4  -18.53    7.88
 -18  -5   4   -5.32   14.89
  18   5   4    0.24    6.86
  18   4  -4   17.09    6.36
 -18  -4  -4   -5.24   13.99
  18   4  -4   -0.75    6.95
 -18  -4   4    8.62   10.77
  18   4   4    1.36    7.44
  18   4   4    6.65    6.95
 -18  -4   4  -45.04   14.88
 -18  -3  -4    1.17   16.64
  18   3  -4   -3.70    6.74
 -18  -3  -4   -2.49   12.66
  18   3  -4    8.89    6.67
  18   3   4   15.08    7.50
  18   3   4    1.91    7.12
 -18  -3   4    1.70    9.75
 -18  -3   4    5.87   13.62
  18   2  -4    0.25    6.37
 -18  -2  -4   12.19   15.87
 -18  -2  -4    3.75   11.82
  18   2  -4    0.20    7.60
 -18  -2   4   -7.66   14.00
  18   2   4    0.88    7.17
 -18  -2   4    4.37    8.97
  18   2   4    0.27    7.36
 -18  -1  -4   -2.91   15.47
 -18  -1  -4   -4.85   10.61
  18   1  -4   -0.26    6.58
  18   1  -4  -13.87    8.82
 -18  -1   4    6.23   13.40
  18   1   4   -7.04    7.02
 -18  -1   4    4.12    9.60
  18   1   4   -4.33    7.84
 -18   0  -4    0.88   10.25
  18   0  -4    0.79    6.38
  18   0  -4  -13.11   10.48
 -18   0  -4   -7.84   15.45
  18   0   4  -11.56    7.04
  18   0   4    0.73    8.79
 -18   0   4   17.54   13.97
 -18   0   4    6.12    9.65
 -18   1  -4    2.31   10.11
  18  -1  -4   13.68    6.51
 -18   1  -4   11.26   15.33
  18  -1  -4   -1.95   11.93
  18  -1   4   -1.39    9.88
  18  -1   4  -15.35    6.99
 -18   1   4   27.57   13.93
 -18   1   4  -10.85   10.23
  18  -2  -4   33.05   14.02
 -18   2  -4    2.24    9.93
  18  -2  -4    2.49    6.43
 -18   2   4    2.17   10.29
  18  -2   4    0.85    6.81
 -18   2   4  -25.65   14.25
  18  -2   4  -11.15   11.58
  18  -3  -4    9.14   14.76
  18  -3  -4  -11.26    6.78
 -18   3  -4   11.19   10.64
 -18   3   4    2.24   10.99
  18  -3   4    5.55   13.07
 -18   3   4   47.27   14.87
  18  -4  -4   18.20   17.02
 -18   4  -4   -0.28   10.71
 -18   4  -4  -13.98   15.40
  18  -4   4    4.91   14.13
 -18   4   4    2.32   11.68
 -18   4   4   -6.06   13.57
 -18   5  -4    9.58   11.19
 -18   5  -4   26.32   15.42
  18  -5   4   -8.38    7.49
 -19  -6   4   18.72   17.06
 -19  -6   4    1.49   14.30
 -19  -5  -4    0.57   15.60
  19   5  -4   -0.21    6.82
  19   5  -4    0.57    7.71
  19   5   4  -18.16    8.69
 -19  -5   4  -18.69   14.60
 -19  -5   4   13.11   16.79
  19   4  -4   -3.05    7.38
  19   4  -4   -1.84    6.91
 -19  -4  -4    7.58   15.35
 -19  -4   4  -19.51   15.46
  19   4   4   19.98    8.59
  19   4   4   -0.51    7.78
 -19  -4   4  -19.39   12.92
 -19  -3  -4   -4.95   15.92
 -19  -3  -4  -33.70   18.54
  19   3  -4  -17.66    8.13
 -19  -3   4  -12.70   16.34
 -19  -3   4  -10.13   11.82
  19   3   4  -15.46    8.88
 -19  -2  -4  -22.14   19.40
  19   2   4  -28.57   13.97
 -19  -1  -4  179.81   40.94
 -19  -1   4  157.46   41.87
 -19  -1   4  202.38   41.61
  19   0  -4   84.26   52.09
 -19   0  -4  282.60   58.85
 -19   0   4  206.65   60.20
 -19   0   4  195.50   67.29
  19   0   4  171.57   51.60
 -19   1  -4  112.53   30.18
  19  -1  -4   50.51   22.04
  19  -1  -4   17.46   32.70
 -19   1  -4   10.78   30.28
 -19   1   4   93.07   29.99
 -19   1   4   54.54   31.39
  19  -1   4  -33.42   22.69
  19  -2  -4  -53.89   18.83
 -19   2  -4  -20.44   14.76
 -19   2  -4  -19.53   19.48
 -19   2   4  -39.28   14.65
 -19   2   4  -21.94   17.73
  19  -3  -4   -3.00   16.66
 -19   3  -4  -14.58   12.42
  19  -3  -4    1.91    7.49
 -19   3   4  -19.48   12.23
  19  -3   4   -9.65   15.33
 -19   3   4   -7.15   15.72
  19  -4  -4   13.97   17.55
 -19   4  -4    8.47   11.70
 -19   4   4  -31.33   12.34
  19  -4   4    7.47   16.07
 -19   5  -4  -26.94   17.51
 -19   5  -4  -10.28   12.96
  19  -5   4    4.80    8.32
  19  -5   4    2.62   16.69
 -19   6  -4    9.96   13.02
 -19   6  -4  -43.57   17.77
  19  -6   4    0.47   18.34
  20   5  -4   -0.93    7.53
  20   5  -4   -5.37    8.66
 -20  -5   4  -21.45   18.42
 -20  -5   4   23.18   15.74
  20   4  -4   -0.62    8.52
  20   4  -4   -0.93    7.66
 -20  -4  -4    4.24   17.46
 -20  -4   4  -11.08   14.56
 -20  -4   4  -18.12   17.37
  20   4   4    6.93    8.84
 -20  -3  -4   22.87   17.30
  20   3  -4   10.62    8.33
  20   3  -4    0.31    8.38
 -20  -3   4   60.27   17.74
 -20  -3   4    7.98   13.05
  20   3   4   -1.97    9.36
 -20  -2  -4   18.37   19.68
 -20  -2  -4  -16.30   15.26
  20   2  -4    9.06    8.79
  20   2  -4    2.22    8.26
 -20  -2   4   27.45   17.35
  20   2   4    2.55    9.41
 -20  -2   4    0.34   12.18
  20   2   4   -5.50    8.86
 -20  -1  -4    3.97   14.79
 -20  -1  -4  -18.72   19.05
  20   1  -4    4.20   10.26
  20   1  -4    0.32    8.20
 -20  -1   4   25.34   12.62
  20   1   4  -30.47    9.21
  20   1   4   14.52   10.08
 -20  -1   4   39.35   17.86
 -20   0  -4   34.93   19.58
  20   0  -4    4.94   12.27
 -20   0  -4  -14.51   13.45
  20   0  -4   20.56    8.52
  20   0   4   -3.90   10.92
  20   0   4   -9.24    8.92
 -20   0   4  -22.34   17.75
 -20   0   4   -0.33   12.08
  20  -1  -4  -25.90    8.41
 -20   1  -4   28.30   19.73
  20  -1  -4    1.86   13.89
 -20   1  -4   15.08   13.19
  20  -1   4  -11.03   12.17
 -20   1   4   -2.42   17.16
 -20   1   4   13.07   12.18
  20  -1   4   26.81    9.33
  20  -2  -4   13.73   16.43
  20  -2  -4  -11.13    8.16
 -20   2  -4   -7.35   13.27
 -20   2  -4    8.61   18.85
 -20   2   4   15.19   17.22
  20  -2   4  -20.43   14.06
 -20   2   4   -3.94   12.43
  20  -2   4    0.36    7.69
 -20   3  -4   -5.32   13.42
  20  -3  -4   14.43    8.45
  20  -3  -4   13.92   17.73
 -20   3   4  -15.06   17.50
  20  -3   4    0.42   16.15
 -20   3   4   27.83   13.78
 -20   4   4   42.17   15.35
  21   3  -4   -5.80    9.10
 -21  -3   4   20.56   15.85
  21   2  -4   -4.07    9.63
 -21  -2   4   18.88   13.93
   0   0  -5   -0.16    0.30
   0   0  -5   -0.13    0.68
   0   0   5   -0.07    0.22
   1   0  -5    5.23    2.40
  -1   0  -5    4.79    1.99
   0   1  -5    8.72    2.06
   0   1  -5    7.52    1.78
   0  -1   5    8.34    1.64
  -1   0   5    8.98    1.76
  -1   1  -5   -0.17    0.55
  -1   1  -5    0.10    0.43
   1   1  -5    0.36    0.55
  -1   1  -5    0.18    0.34
  -1  -1   5    0.02    0.27
   1  -1   5    0.33    0.22
   1  -1   5    0.36    0.31
   1  -1   5    0.06    0.50
  -1   2  -5   15.42    4.45
   2   1  -5   16.48    3.82
  -1   2  -5   15.09    4.09
   2   1  -5   12.90    3.67
  -1   2  -5   14.78    3.73
   2   1  -5   14.58    4.37
   2   1  -5   12.31    4.23
   1  -2   5   15.10    3.55
   1  -2   5   14.73    4.47
  -2  -1   5   18.62    4.39
  -2  -1   5   14.54    3.41
   1  -2   5   12.66    4.15
   2   0  -5   -0.09    0.38
   0   2  -5    0.05    0.51
  -2   0  -5    0.05    1.03
   2   0  -5   -0.45    0.88
   0   2  -5    0.08    0.55
   2   0   5    0.39    0.75
   0  -2   5    0.07    0.30
  -2   0   5    0.18    0.31
   2   0   5   -0.03    0.44
  -2   1  -5   13.71    4.55
   1   2  -5   16.02    3.79
  -2   1  -5   19.44    3.79
   1   2  -5   17.33    4.11
  -2   1  -5   13.62    4.02
   2  -1   5   15.94    3.52
   2  -1   5   17.08    3.79
  -1  -2   5   13.23    3.62
   2  -1   5   12.55    4.17
  -2   2  -5    0.02    0.49
  -2   2  -5    0.38    1.00
   2   2  -5   -0.03    0.62
  -2   2  -5    0.11    0.59
   2  -2   5   -0.22    0.62
   2  -2   5    0.30    1.37
   2  -2   5    0.12    0.28
   3   2  -5    1.18    0.88
   3   2  -5    1.19    0.84
   3   2  -5    1.25    0.58
   3   2  -5    1.62    0.86
  -2   3  -5    0.81    1.57
  -2   3  -5    1.30    0.96
  -3  -2   5    1.44    0.88
   2  -3   5    1.44    0.52
   3   1  -5   21.23    4.41
  -1   3  -5   18.25    5.01
   3   1  -5   20.09    5.07
   3   1  -5   14.97    5.13
   3   1  -5   17.49    4.76
   3   1   5   10.65    4.15
  -3  -1   5   17.91    4.08
  -3  -1   5   22.60    5.00
   1  -3   5   18.15    4.24
   3   0  -5    0.43    0.49
  -3   0  -5    0.39    0.95
   0   3  -5    0.58    0.64
   0   3  -5   -0.39    0.77
   3   0  -5    0.71    1.07
   3   0   5    0.98    0.57
  -3   0   5    0.39    0.42
   0  -3   5    0.63    0.46
   3   0   5    0.73    0.96
   1   3  -5   18.97    4.57
   1   3  -5   15.66    4.96
  -3   1  -5   18.97    4.47
  -3   1  -5   19.19    4.83
  -3   1  -5   19.96    5.66
   3  -1   5   10.07    4.99
  -1  -3   5   20.99    4.34
   3  -1   5   16.87    4.52
   3  -1   5   20.57    4.31
  -3   2  -5    1.54    0.74
  -3   2  -5    0.97    0.60
  -3   2  -5    0.75    1.36
   2   3  -5    1.55    0.85
   3  -2   5    0.92    0.84
   3  -2   5    1.52    0.46
   3  -2   5    1.31    1.80
   3   3  -5    0.85    0.59
   3   3  -5    1.04    0.95
   3   3  -5    0.37    1.21
  -3   3  -5    1.30    1.99
   3  -3   5    0.92    2.40
  -3  -3   5    0.59    0.65
   3  -3   5    1.09    1.10
   4   3  -5   42.91    9.60
   4   3  -5   32.67   11.02
   4   3  -5   46.47   10.62
  -4  -3   5   21.86   11.27
   4   2  -5   20.05    4.32
   4   2  -5   10.11    4.64
   4   2  -5   20.00    4.82
   4   2  -5   14.81    4.28
  -4  -2   5   16.70    4.69
  -4  -2   5   11.35    3.98
  -4  -2   5   19.87    4.09
   4   1  -5   47.68   16.97
   4   1  -5   71.46   16.97
  -4  -1  -5   41.52   16.58
   4   1  -5   63.37   14.88
   4   1  -5   62.21   15.98
  -4  -1   5   63.99   16.10
  -4  -1   5   70.99   13.82
   4   1   5   54.39   15.33
   4   0  -5   -0.09    0.87
   4   0  -5    0.07    2.13
   0   4  -5   -0.20    1.16
   4   0  -5    0.18    0.60
  -4   0  -5   -0.09    1.23
   4   0  -5    0.36    1.37
   4   0   5   -0.46    0.80
   0  -4   5    0.15    0.62
   4   0   5   -0.53    1.25
  -4   0   5    0.10    0.50
  -4   0   5    0.78    1.92
  -4   1  -5   70.41   16.43
   4  -1  -5   66.88   16.96
   1   4  -5   67.07   15.96
   4  -1   5   40.02   16.69
   4  -1   5   52.83   15.38
  -1  -4   5   71.42   14.44
  -4   2  -5   20.02    4.86
   2   4  -5   15.28    4.82
  -4   2  -5   19.52    4.85
   4  -2   5   24.04    5.63
   4  -2   5   13.34    4.70
  -4   3  -5   53.88   12.52
   4  -3   5   55.94   13.64
   4  -3   5   42.86   12.02
   4   4  -5   -0.22    1.76
   4   4  -5    0.17    0.97
  -4  -4   5   -0.47    0.94
   4  -4   5   -0.73    3.46
   5   4  -5   -0.35    1.95
   5   4  -5    0.36    1.41
   5   4  -5    0.87    1.10
  -5  -4   5    1.40    0.96
   5   3  -5    7.63    2.10
   5   3  -5    7.27    2.66
  -5  -3   5    7.17    2.92
   5   2  -5    2.72    1.70
   5   2  -5    4.75    1.96
   5   2  -5    5.49    2.19
  -5  -2   5    5.58    2.02
   5   2   5    5.49    1.68
  -5  -2   5    6.01    1.47
   5   1  -5    2.29    1.39
   5   1  -5    4.85    2.40
   5   1  -5    5.46    1.87
   5   1  -5    4.39    1.57
  -5  -1   5    4.88    1.20
  -5  -1   5    5.66    2.47
   5   0  -5   11.55    6.09
   5   0  -5   19.20    5.75
   5   0  -5   17.45    4.49
   5   0  -5   19.03    4.75
  -5   0   5   22.16    5.58
  -5   0   5   20.01    4.46
   5  -1  -5    3.67    1.36
  -5   1   5    3.79    3.08
   3   5  -5    4.76    2.77
  -3  -5   5    7.96    2.05
   4   5  -5   -0.15    2.11
   4   5  -5    0.11    1.40
  -5   4  -5   -0.78    3.40
   5  -4   5    1.16    1.69
  -4  -5   5    0.31    1.15
   5   5  -5   -0.06    1.56
   5   5  -5    1.33    1.38
   5   5  -5   -0.16    2.34
  -5  -5   5   -1.16    1.15
   6   5  -5   -0.82    2.56
   6   5  -5   -1.02    1.73
  -6  -5   5    0.41    1.32
   6   4  -5   10.68    2.60
   6   4  -5    5.42    2.89
  -6  -4   5    6.71    2.18
   6   3  -5   75.53   23.83
   6   3  -5   84.72   22.97
   6   3  -5   84.22   21.58
  -6  -3   5   98.08   24.30
  -6  -3   5   90.86   21.13
   6   2  -5    0.16    1.95
  -6  -2  -5   -1.47    3.26
   6   2   5    0.75    2.02
  -6  -2   5    0.97    1.63
   6   2   5    0.83    1.25
   6   1  -5   10.09    3.97
   6   1  -5   13.23    4.33
  -6  -1  -5   10.04    4.10
   6   1   5   12.76    3.21
  -6  -1   5   11.85    3.05
  -6  -1   5   13.44    3.99
   6   1   5   12.76    3.77
   6   0  -5   -0.45    1.98
  -6   0  -5    0.19    1.88
   6   0  -5    1.00    0.90
   6   0   5   -0.13    2.14
  -6   0   5   -0.61    0.79
   6   0   5   -0.62    1.26
  -6   1  -5   13.20    4.10
   6  -1  -5   16.33    3.72
   6  -1   5   12.92    4.49
   6  -1   5   12.91    3.70
  -6   2  -5    0.38    2.79
  -6   2  -5    2.11    2.11
   6  -2   5    2.41    3.31
   6  -2   5    1.36    1.56
  -6   3  -5   89.83   22.40
   6  -3   5   84.38   26.10
  -6   4  -5    6.89    4.17
   6  -4   5    6.95    2.72
   6  -4   5    5.14    5.20
  -6   5  -5   -2.40    4.36
   5   6  -5    0.46    1.59
   6  -5   5   -3.12    5.56
   6   6  -5   -1.85    1.88
   7   6  -5    0.69    2.08
   7   6  -5    2.71    1.91
  -7  -6   5    0.12    1.72
   7   5  -5    3.45    1.73
   7   5  -5    1.41    2.08
   7   5  -5   -0.52    2.66
  -7  -5   5    1.05    1.52
   7   4  -5    2.37    3.23
   7   4  -5    5.84    2.38
   7   3  -5   -0.28    1.71
   7   3  -5    1.02    1.56
  -7  -3  -5    1.42    3.91
   7   3  -5    1.42    2.10
  -7  -3   5    9.49    2.37
  -7  -3   5   -0.88    1.22
  -7  -3   5   -0.35    1.13
   7   2  -5   10.49    2.55
   7   2  -5    5.47    2.40
  -7  -2  -5    3.89    4.00
   7   2   5    6.40    2.94
  -7  -2   5    4.02    1.99
  -7  -2   5   11.98    2.87
  -7  -1  -5   -0.86    2.43
   7   1  -5   -5.23    3.09
   7   1  -5   -1.27    1.62
   7   1   5    0.74    2.15
  -7  -1   5    5.66    2.04
  -7  -1   5   -0.91    3.06
   7   1   5    0.13    1.45
   7   0  -5    2.09    3.64
  -7   0  -5    0.57    2.33
   7   0  -5    1.05    1.72
   7   0   5   -0.74    1.67
  -7   0   5    1.27    3.28
   7   0   5   -1.84    2.69
   7  -1  -5   -3.52    4.50
   7  -1  -5    2.09    1.93
  -7   1  -5   -0.68    2.22
  -7   1   5    1.86    3.70
   7  -1   5   -0.29    1.81
   7  -1   5   -0.68    3.18
  -7   2  -5    5.21    3.05
  -7   2  -5    3.74    3.80
   7  -2  -5   -1.41    5.52
   7  -2   5    6.13    2.50
   7  -2   5    8.02    4.20
  -7   2   5    4.56    4.18
  -7   3  -5    0.34    3.57
   7  -3   5   -0.25    1.99
   7  -3   5    1.00    4.57
  -7   4  -5   -1.08    4.29
   7  -4   5    5.40    5.80
   7  -4   5    5.98    2.88
  -7   5  -5    0.55    4.55
   7  -5   5    1.75    2.33
   7  -5   5    0.17    5.65
   8   7  -5   10.64    3.85
   8   6  -5   11.43    3.48
   8   6  -5   12.20    3.75
  -8  -6   5    9.60    3.34
   8   5  -5    0.30    1.93
   8   5  -5    0.22    2.13
   8   5  -5   -0.91    2.84
  -8  -5   5   -1.02    1.43
  -8  -5   5    3.08    4.72
   8   4  -5    2.32    1.88
   8   4  -5    1.28    1.98
   8   4  -5    3.22    2.47
   8   4  -5   -0.70    2.60
  -8  -4   5   -1.79    3.83
  -8  -4   5    1.84    1.29
   8   3  -5    2.18    1.94
   8   3  -5    5.01    2.34
  -8  -3  -5    2.81    4.61
   8   3  -5    3.07    2.04
   8   3  -5    4.06    2.49
  -8  -3   5    0.85    2.73
  -8  -3   5    2.21    1.25
  -8  -3   5    1.63    1.36
   8   3   5    0.10    2.78
   8   2  -5   -2.46    2.64
  -8  -2  -5    7.15    3.47
   8   2   5    3.04    2.53
  -8  -2   5    2.61    1.50
  -8  -2   5   -1.02    1.55
  -8  -2   5  -14.82    5.98
  -8   0  -5   10.32    4.21
  -8   0   5    9.06    5.35
  -8   1  -5    5.08    3.50
  -8   1   5    7.68    5.45
  -8   2  -5    4.74    2.87
   8  -2  -5   -0.06    1.20
   8  -2  -5  -13.13    6.64
   8  -2  -5    1.87    2.41
  -8   2  -5    3.32    4.04
   8  -2   5   -1.25    4.51
  -8   2   5    0.55    4.89
   8  -2   5    2.28    2.25
  -8   3  -5    2.52    4.03
   8  -3   5    0.42    5.21
   8  -3   5    2.55    2.33
  -8   4  -5   -0.71    4.62
   8  -4   5    0.65    2.51
   8  -4   5   -1.46    5.71
  -8   5  -5    2.02    4.98
   8  -5   5    5.57    6.50
   8  -5   5    2.24    2.72
   8  -6   5    7.79    7.57
   9   7  -5   16.86    5.14
   9   7  -5   14.65    4.85
   9   6  -5   11.80    3.19
   9   6  -5    8.48    3.45
  -9  -6   5    5.12    2.76
   9   5  -5   18.14    6.76
   9   5  -5   18.23    6.90
   9   5  -5   28.86    5.93
   9   5  -5   23.87    6.45
  -9  -5   5   21.79    5.56
  -9  -5   5    6.97    8.59
   9   4  -5   -0.61    2.15
  -9  -4  -5    1.88    5.29
   9   4  -5    0.76    2.65
   9   4  -5    0.08    2.18
   9   4  -5    6.60    2.87
  -9  -4   5    0.16    1.48
   9   4   5    1.57    2.26
  -9  -4   5    2.09    4.18
  -9  -3  -5   -0.40    5.28
   9   3  -5    6.94    2.92
   9   3  -5    7.03    2.69
   9   3  -5    4.19    2.69
   9   3  -5    8.33    3.14
  -9  -3   5    6.19    1.98
  -9  -3   5    7.91    3.48
   9   3   5    7.17    2.58
  -9  -3   5    5.98    2.02
   9   3   5    5.75    3.34
   9   2  -5    2.82    3.07
   9   2  -5    3.86    2.02
   9   2  -5    1.45    2.24
   9   2  -5    0.59    2.20
  -9  -2  -5   -1.01    4.10
  -9  -2   5    1.63    1.18
  -9  -2   5   -2.82    4.39
  -9  -2   5    1.16    1.18
   9   2   5    0.09    2.87
  -9  -2   5    4.22    2.87
   9   1  -5    5.57    1.79
   9   1  -5   -2.40    2.25
  -9  -1  -5    0.10    3.14
   9   1  -5    1.78    2.53
   9   1  -5    1.18    3.85
  -9  -1   5    0.88    4.10
  -9  -1   5    0.55    1.20
   9   1   5    0.09    2.83
  -9  -1   5    2.69    2.98
   9   0  -5    6.04    2.09
   9   0  -5    6.26    3.69
  -9   0  -5    6.06    3.37
   9   0  -5    2.18    5.00
   9   0  -5   10.49    2.62
   9   0   5    2.23    2.69
   9   0   5    5.70    3.58
  -9   0   5    5.65    2.03
  -9   0   5    6.59    4.68
   9  -1  -5    1.09    1.36
  -9   1  -5   -0.82    3.04
   9  -1  -5    4.48    5.73
   9  -1  -5    1.41    2.31
  -9   1   5    1.98    4.78
   9  -1   5    1.68    2.63
   9  -1   5    0.11    4.07
   9  -2  -5   -0.61    6.46
  -9   2  -5    1.72    3.32
   9  -2  -5    1.80    2.40
  -9   2  -5    1.61    4.87
   9  -2  -5    1.79    1.32
   9  -2   5    0.39    4.73
  -9   2   5    2.94    5.04
   9  -2   5    2.00    2.44
  -9   3  -5    6.41    4.98
   9  -3  -5    1.46    7.42
   9  -3   5    8.69    6.00
   9  -3   5    5.55    2.95
  -9   4  -5    4.92    5.03
   9  -4   5    4.24    2.95
   9  -4   5   -4.85    6.55
  -9   5  -5   18.37    8.55
   9  -5   5   21.92    9.84
   9  -5   5   29.99    6.58
  -9   6  -5    3.99    6.20
   9  -6   5   10.34    7.92
  10   7  -5   22.34    5.69
  10   7  -5   15.86    6.03
  10   6  -5   25.85    7.02
  10   6  -5   21.50    6.52
  10   5  -5   -5.84    3.56
  10   5  -5    6.52    3.50
  10   5  -5    0.33    2.71
  10   5  -5    0.10    2.61
 -10  -5   5    3.30    1.80
 -10  -5   5   -0.82    6.02
  10   4  -5   32.08   10.31
  10   4  -5   36.98   10.31
  10   4  -5   47.53    9.82
  10   4  -5   38.29   10.41
 -10  -4  -5    0.25   12.02
  10   4   5   43.59    8.76
 -10  -4   5   37.78    9.08
 -10  -4   5   35.05   11.75
 -10  -4   5   39.28    9.33
 -10  -3  -5   -0.21    5.52
  10   3  -5    0.17    3.02
  10   3  -5    2.04    2.72
  10   3  -5    0.66    2.53
  10   3  -5    0.36    2.47
 -10  -3   5    0.49    3.48
  10   3   5    1.36    2.56
 -10  -3   5    1.95    1.41
  10   3   5    4.82    3.36
 -10  -3   5   -0.19    1.44
  10   2  -5    1.72    2.81
  10   2  -5    6.98    2.61
 -10  -2  -5    6.27    4.59
  10   2  -5    4.28    2.87
  10   2  -5    3.71    3.78
 -10  -2   5    3.06    4.98
  10   2   5    5.22    3.19
 -10  -2   5    6.10    3.48
 -10  -2   5    3.79    1.60
 -10  -2   5    3.51    1.58
  10   1  -5   12.96    5.08
  10   1  -5   12.56    5.98
  10   1  -5   15.17    6.46
 -10  -1  -5   26.86    5.99
  10   1  -5   21.08    5.02
  10   1   5   19.70    5.57
 -10  -1   5   17.52    4.76
 -10  -1   5   17.31    6.80
 -10  -1   5   17.29    6.08
  10   0  -5    0.45    1.80
  10   0  -5   -0.43    2.52
  10   0  -5    1.57    5.22
 -10   0  -5    0.11    3.54
  10   0  -5    1.49    3.66
 -10   0   5    3.96    5.07
  10   0   5   -0.11    2.72
  10   0   5   -7.34    3.80
 -10   0   5    1.30    1.48
 -10   0   5    1.88    3.80
 -10   1  -5    9.70    7.17
  10  -1  -5   15.41    5.46
  10  -1  -5   10.48    8.60
 -10   1  -5   21.09    6.19
  10  -1  -5   20.91    5.16
 -10   1   5   15.92    7.53
  10  -1   5   27.75    6.89
  10  -1   5   23.80    5.42
  10  -2  -5    5.32    1.99
  10  -2  -5    9.13    7.48
  10  -2  -5    5.15    3.00
 -10   2  -5    7.29    3.84
 -10   2  -5    6.80    5.61
 -10   2   5   13.72    6.08
  10  -2   5    2.29    5.34
  10  -2   5    3.83    3.12
 -10   3  -5   -1.01    5.47
  10  -3  -5    2.05    8.25
 -10   3  -5    3.74    4.20
  10  -3   5    5.14    6.51
 -10   3   5   -0.73    5.77
  10  -3   5    1.71    3.03
 -10   4  -5   32.57   12.16
  10  -4   5   54.25   14.16
  10  -4   5   45.75   10.71
 -10   5  -5   -0.66    6.38
  10  -5   5   -1.18    3.44
  10  -5   5   -8.13    8.14
 -10   6  -5   10.72    8.75
  11   7  -5    3.06    3.61
  11   7  -5    1.27    3.58
  11   6  -5    3.52    3.23
  11   6  -5   -1.72    3.23
 -11  -6   5   -2.17    7.47
  11   5  -5   12.06    4.55
  11   5  -5    9.31    3.88
  11   5  -5    9.55    3.65
  11   5  -5    4.86    4.30
 -11  -5   5    7.87    2.91
 -11  -5   5   12.13    7.15
 -11  -4  -5   14.60    7.89
  11   4  -5    8.97    4.60
  11   4  -5    7.83    4.18
  11   4  -5    8.11    4.16
  11   4  -5    6.87    4.65
 -11  -4   5    6.55    3.13
 -11  -4   5    6.45    3.20
  11   4   5   18.60    5.04
 -11  -4   5    5.46    5.96
  11   3  -5   12.21    5.11
  11   3  -5   15.22    4.71
  11   3  -5   13.59    4.83
 -11  -3  -5   16.55    7.57
  11   3  -5   12.87    4.86
 -11  -3   5   12.39    3.96
 -11  -3   5   20.53    5.72
  11   3   5    9.78    5.16
 -11  -3   5   16.14    3.75
  11   3   5   18.69    4.51
 -11  -2  -5   32.35   10.68
  11   2  -5   29.38    9.33
  11   2  -5   24.90    9.97
  11   2  -5   28.78    9.94
  11   2  -5   35.15    9.35
  11   2   5   40.25    9.41
 -11  -2   5   44.00   10.37
 -11  -2   5   36.79    8.50
 -11  -2   5   36.54    8.81
  11   2   5   39.66    8.66
 -11  -2   5   27.74   10.71
  11   1  -5    4.24    3.04
  11   1  -5    1.01    4.81
 -11  -1  -5   11.88    4.44
  11   1   5    4.66    3.76
 -11  -1   5    5.16    5.54
 -11  -1   5    3.99    1.62
 -11  -1   5    3.26    1.80
 -11  -1   5    1.46    3.93
  11   0  -5   55.71   28.97
 -11   0  -5  113.60   26.25
  11   0   5   89.35   23.81
  11   0   5   96.20   25.65
 -11   0   5  103.39   28.85
 -11   0   5  108.07   25.68
 -11   1  -5   11.90    4.24
 -11   1  -5    2.63    6.76
  11  -1  -5   -1.16    7.11
  11  -1  -5    3.05    3.27
  11  -1   5    0.13    3.37
 -11   1   5    3.04    6.49
  11  -1   5   -0.73    5.34
  11  -2  -5   29.05    9.35
 -11   2  -5   43.62   10.94
 -11   2  -5   31.57   10.91
  11  -2  -5    8.94   14.25
  11  -2   5   45.15    9.45
  11  -2   5   44.49   11.79
 -11   2   5   34.21   11.76
  11  -3  -5   16.05   10.72
 -11   3  -5   17.54    6.60
 -11   3  -5   21.97    7.61
  11  -3   5   19.04    5.39
  11  -3   5   10.02    8.59
 -11   3   5   23.63    8.30
 -11   5  -5    4.35    7.45
  11  -5   5   10.89    4.31
  11  -5   5    6.78    8.72
 -11   6  -5   -0.82    7.27
  11  -6   5   14.82    9.45
  11  -6   5   -1.05    3.75
  12   8  -5    3.55    4.18
  12   8  -5   -1.67    4.13
  12   7  -5    2.64    3.90
  12   6  -5   -1.17    3.63
 -12  -6   5   -7.53    7.71
  12   5  -5   -0.88    3.39
  12   5  -5    0.49    3.88
 -12  -5   5   -2.07    7.08
 -12  -4  -5   -5.44    7.59
  12   4  -5    5.79    3.72
  12   4  -5    5.14    3.69
  12   4   5    3.25    3.45
 -12  -4   5    5.04    5.54
  12   4   5    5.30    4.43
 -12  -3  -5    5.37    7.47
  12   3  -5    4.65    3.57
  12   3  -5    1.25    4.08
 -12  -3   5   14.29    7.27
  12   3   5    1.95    3.59
  12   3   5    0.13    4.19
 -12  -3   5    6.96    4.76
  12   2  -5    0.36    4.55
 -12  -2  -5    6.77    5.56
  12   2  -5    0.37    3.36
 -12  -2   5   -5.29    6.54
 -12  -2   5   -3.73    4.38
  12   2   5   -0.24    3.91
  12   2   5   -9.70    3.54
 -12  -1  -5   31.88    9.26
  12   1  -5   29.61    7.88
  12   1  -5   17.68    9.63
 -12  -1   5   31.47    9.48
 -12  -1   5   31.03    9.97
  12   1   5   24.70    8.42
 -12   0  -5   -5.27    5.01
  12   0  -5    1.10    3.33
  12   0  -5    1.85    6.41
 -12   0   5    3.25    6.71
 -12   0   5   -1.79    4.95
  12  -1  -5   20.24    8.16
 -12   1  -5   29.86   10.79
  12  -1  -5   24.19   12.29
 -12   1  -5   43.11    9.67
 -12   1   5   33.34   10.83
  12  -1   5   29.24   10.06
  12  -1   5   30.22    8.35
  12  -2  -5   -0.16    3.64
 -12   2  -5    2.47    7.72
  12  -2  -5   -1.24    8.79
 -12   2  -5    0.55    5.06
  12  -2   5   -0.28    3.78
  12  -2   5  -11.77    6.82
 -12   2   5   12.09    7.39
 -12   3  -5    7.91    5.77
 -12   3  -5   10.99    7.85
  12  -3  -5    0.88   10.38
  12  -3  -5    4.16    4.17
  12  -3   5   14.50    4.74
 -12   3   5    8.07    7.95
  12  -3   5   37.15    8.57
 -12   4  -5    7.69    5.47
 -12   4  -5   -0.72    7.68
  12  -4   5  -16.69    9.08
  12  -4   5   -2.80    4.20
 -12   5  -5   10.38    7.01
  12  -5   5   -5.83    9.61
  13   7  -5    3.96    4.33
  13   6  -5   -2.79    4.28
  13   6  -5    1.39    4.72
 -13  -6   5  -12.99    9.68
  13   5  -5    7.23    4.32
  13   5  -5    0.51    4.50
  13   5   5    1.27    4.13
 -13  -5   5   -3.98    8.02
  13   4  -5    8.88    4.06
  13   4  -5    4.45    4.09
  13   4   5   -0.15    4.00
 -13  -4   5    5.57    6.27
  13   3  -5   -0.78    4.07
  13   3  -5   -0.42    3.83
 -13  -3   5   -1.28    5.06
 -13  -3   5    2.26    7.52
  13   2  -5   14.29    5.94
  13   2  -5   16.16    6.81
 -13  -2   5   23.38    7.27
 -13  -2   5   18.19    9.03
  13   1  -5    0.62    5.81
  13   1  -5   -2.01    3.77
 -13  -1   5    3.47    5.05
  13   1   5   -0.14    4.73
 -13  -1   5   -9.42    7.54
  13   0  -5   20.78    7.72
  13   0  -5   24.42   10.61
 -13   0  -5   33.57    9.40
 -13   0   5   27.48    9.87
  13   0   5   32.13    9.17
 -13   0   5   24.48   10.29
  13  -1  -5   -0.23    8.50
  13  -1  -5   -1.62    3.78
 -13   1   5   -5.52    5.87
 -13   1   5   -1.12    7.68
  13  -1   5   -0.17    6.49
  13  -2  -5   23.92    6.41
  13  -2  -5   19.52   12.00
 -13   2   5   16.97    9.59
  13  -3  -5   -6.78   11.09
  13  -4   5   -0.18    4.34
 -13   6  -5   -4.82    8.94
  13  -6   5   -1.02    4.92
  13  -6   5  -17.60   11.52
  13  -7   5   -0.33   12.01
 -14  -5  -5   -1.87    9.51
  14   5   5    0.17    4.69
 -14  -4  -5    5.07    9.65
  14   4  -5   13.83    5.21
 -14  -4   5    5.96    7.84
  14   4   5    5.05    4.91
  14   4   5    9.30    5.52
  14   3  -5   -6.57    5.00
 -14  -3  -5   -1.67    8.44
 -14  -3   5    0.80    5.90
  14   3   5   -4.33    5.04
  14   3   5    0.17    4.39
  14   2  -5    3.33    5.42
 -14  -2  -5   -1.36    6.92
  14   2   5    3.64    4.96
 -14  -2   5   -3.18    5.65
  14   2   5    0.17    4.46
 -14  -1  -5   12.32    6.65
 -14  -1   5   10.64    6.12
  14   1   5    4.54    4.99
  14   1   5    0.88    5.42
 -14   0  -5    0.18    6.40
  14   0   5   12.80    6.64
 -14   1  -5    6.82    6.47
 -14   1  -5   -6.85   10.12
  14  -1   5   11.00    7.47
  14  -2  -5   -1.53    4.47
 -14   2  -5   -0.35    6.26
 -14   2  -5   15.98    9.84
  14  -2   5    0.54    4.73
 -14   2   5   -5.00    8.82
  14  -2   5    0.87    8.32
  14  -3  -5  -12.64    4.87
  14  -3  -5   -8.92   12.61
 -14   3  -5  -11.38   10.16
 -14   3  -5   -6.11    6.98
  14  -3   5   -6.87    9.44
 -14   3   5    1.00    9.05
  14  -3   5  -15.59    5.45
 -14   4  -5   -0.91    9.96
 -14   4  -5    0.37    7.08
  14  -4   5   15.52   10.63
  14  -4   5    3.82    5.75
 -14   5  -5   -5.42    9.44
 -14   5  -5   10.95    7.26
  14  -5   5   -1.27    5.32
  14  -5   5  -16.01   11.57
 -14   6  -5    7.94   10.00
  14  -6   5    9.14    5.54
  14  -6   5   12.43   12.90
  14  -7   5    4.24   12.52
  15   6  -5   -2.34    5.31
  15   6  -5   -1.50    5.27
 -15  -6   5  -18.07   10.33
  15   5  -5    4.38    5.10
  15   5  -5    7.04    5.45
 -15  -5  -5   -0.40   10.54
 -15  -5   5   13.22    9.43
  15   5   5   15.34    5.53
  15   4  -5   -8.56    4.90
  15   4  -5    3.26    4.97
 -15  -4  -5  -21.44   10.54
  15   4   5   10.23    4.98
  15   4   5    2.68    5.36
 -15  -4   5   -3.27    9.89
 -15  -4   5    5.50    7.47
  15   3  -5    3.13    4.98
  15   3  -5    1.37    5.26
 -15  -3  -5    2.15    9.23
 -15  -3   5   12.91    6.74
  15   3   5    0.75    5.12
 -15  -3   5   11.54    9.95
  15   3   5    2.37    5.38
  15   2  -5   -3.12    4.82
  15   2  -5    2.80    6.04
 -15  -2  -5   -3.55    7.72
 -15  -2   5   -2.62    6.56
  15   2   5    2.10    5.35
 -15  -2   5   -6.31    9.49
  15   2   5    1.53    5.55
 -15  -1  -5    4.69   11.81
 -15  -1  -5    9.90    7.15
  15   1  -5   -1.09    4.63
  15   1  -5   -4.56    7.36
  15   1   5   12.97    5.86
  15   1   5   -5.49    5.39
 -15  -1   5   15.55    9.34
 -15  -1   5   10.91    6.77
  15   0  -5    6.77    8.82
  15   0  -5   -1.90    4.81
 -15   0  -5   -2.25    7.25
 -15   0   5    8.92    6.91
  15   0   5   -0.18    6.62
 -15   0   5   11.41   10.15
  15  -1  -5   -8.29    9.91
 -15   1  -5   10.01    7.31
  15  -1  -5    7.36    5.00
 -15   1   5   -2.47    7.45
  15  -1   5  -10.11    7.90
 -15   1   5   -9.22    9.71
  15  -2  -5    1.78   11.45
 -15   2  -5   -5.39   11.26
 -15   2  -5    1.38    7.21
  15  -2  -5    0.21    4.87
 -15   2   5    6.99    7.53
  15  -2   5   -8.74    9.14
 -15   2   5   24.02   10.30
  15  -2   5    0.41    5.47
  15  -3  -5   -5.10    5.16
  15  -3  -5    4.82   13.16
 -15   3  -5    7.13   11.02
 -15   3  -5    9.38    7.45
  15  -3   5   20.23    5.73
  15  -3   5    0.52    9.73
 -15   3   5    6.53   10.17
  15  -4  -5   23.78   14.19
 -15   4  -5    1.02    7.68
 -15   4  -5   -2.07   11.23
  15  -4   5  -12.64    5.39
  15  -4   5    5.36   10.54
 -15   5  -5    6.73    8.08
 -15   5  -5    0.55   11.24
  15  -5   5    1.17    5.63
  15  -5   5    1.90   11.95
 -15   6  -5    5.85   11.34
 -15   6  -5    2.81    8.26
  15  -6   5   -9.52    5.79
  15  -6   5   -7.90   12.48
  15  -7   5   -5.32   13.64
  16   6  -5   -3.80    6.21
 -16  -6   5  -31.02   11.72
 -16  -5  -5   13.19   12.75
  16   5   5   11.61    7.49
 -16  -5   5   17.49   12.72
 -16  -4  -5   -7.72   11.55
  16   4  -5   -9.73    5.49
  16   4  -5    4.25    5.10
 -16  -4   5    3.66   11.07
  16   4   5   -2.14    5.87
 -16  -4   5  -11.00    8.56
  16   4   5   -0.21    5.78
 -16  -3  -5  -14.66   10.44
  16   3  -5   -0.39    5.49
  16   3  -5   -4.75    5.25
  16   3   5   -5.09    5.81
 -16  -3   5  -11.14    7.19
  16   3   5    4.29    6.05
 -16  -3   5  -26.16   11.26
  16   2  -5    2.96    5.39
  16   2  -5   -3.81    6.52
 -16  -2  -5   15.09    9.40
  16   2   5    8.01    5.96
 -16  -2   5  -16.47   10.76
  16   2   5    3.05    6.02
 -16  -2   5    3.96    7.27
  16   1  -5    7.42    5.28
 -16  -1  -5  -26.94   13.27
 -16  -1  -5   13.89    8.33
  16   1  -5   -2.86    7.84
 -16  -1   5   10.48    7.61
 -16  -1   5    8.02   10.89
  16   1   5    4.22    6.38
  16   1   5   -6.10    6.27
  16   0  -5    6.51    5.12
 -16   0  -5    0.23    7.82
  16   0  -5    6.25    9.36
 -16   0   5   -6.54    7.50
  16   0   5    0.86    5.55
  16   0   5    0.81    7.16
 -16   0   5   -6.73   10.83
  16  -1  -5   -1.09   10.49
 -16   1  -5    8.99    7.98
  16  -1  -5   11.38    5.59
 -16   1   5    8.22    8.14
 -16   1   5    0.52   11.32
  16  -1   5    1.15    8.45
 -16   2  -5   -2.91    8.18
 -16   2  -5  -26.62   12.93
  16  -2  -5    5.94    5.22
  16  -2  -5    4.73   11.92
 -16   2   5    1.11    8.48
  16  -2   5    5.80    9.74
 -16   2   5    2.78   11.11
 -16   3  -5   -8.19   12.55
 -16   3  -5    9.53    8.32
  16  -3  -5   -4.11    5.38
  16  -3  -5    3.31   13.85
 -16   3   5   12.51   11.33
  16  -3   5    0.24    6.00
  16  -3   5   -8.56   10.67
 -16   3   5    3.22    9.05
 -16   4  -5   -6.97   12.47
  16  -4  -5    4.57   15.47
 -16   4  -5   -2.96    8.17
  16  -4   5  -14.40    6.48
  16  -4   5   13.52   11.47
 -16   5  -5   24.74    9.89
 -16   5  -5   -3.07   13.23
  16  -5   5  -17.94   13.25
  16  -5   5    1.29    6.91
 -16   6  -5   -0.24    9.11
 -16   6  -5    5.85   12.03
  16  -6   5   12.44   13.84
  16  -6   5   -9.91    6.46
  16  -7   5   -2.04   14.69
 -17  -6   5   -4.44   11.48
 -17  -6   5    6.71   13.67
  17   5  -5   14.98    6.56
  17   5  -5    3.76    5.72
 -17  -5  -5   -3.37   13.72
  17   5   5    6.85    7.07
 -17  -5   5   -0.46   12.32
 -17  -5   5    1.76   11.43
 -17  -4  -5   15.70   13.20
  17   4  -5   -3.51    6.07
  17   4  -5   -2.26    5.45
  17   4   5   -9.66    6.87
  17   4   5   -6.82    6.45
 -17  -4   5    8.67   12.22
 -17  -4   5   -8.71    9.67
  17   3  -5   -2.57    5.73
  17   3  -5    1.81    5.92
 -17  -3  -5   25.48   12.47
 -17  -3   5  -11.17   12.02
  17   3   5  -17.83    6.96
  17   3   5   -8.63    6.47
 -17  -3   5   -3.31    8.52
 -17  -2  -5  -11.25   10.92
  17   2  -5  -19.69    6.26
  17   2  -5  -10.93    7.34
 -17  -2  -5   12.16   14.53
  17   2   5   -4.37    6.61
 -17  -2   5   -6.23   12.13
 -17  -2   5  -14.42    8.44
  17   1  -5  -24.38    9.47
 -17  -1  -5  -13.45   10.56
  17   1  -5  -19.51    6.58
 -17  -1  -5  -15.83   14.73
  17   1   5  -10.98    7.03
 -17  -1   5  -11.50   12.89
  17   0  -5  -24.07   11.22
 -17   0  -5  -18.33   14.85
  17   0  -5  -20.19    6.76
 -17   0  -5  -27.67   10.40
 -17   0   5    3.76   12.66
 -17   0   5   -1.12    9.45
  17  -1  -5  -19.26   12.27
  17  -1  -5   -8.32    6.40
 -17   1  -5   11.64    9.28
 -17   1   5   -9.98    9.63
 -17   1   5  -17.80   13.75
 -17   2  -5   16.02    9.30
  17  -2  -5   -7.38   13.04
 -17   2   5    6.57    9.84
 -17   2   5    9.22   12.92
  17  -2   5   10.49   10.57
 -17   3  -5    1.25    9.24
  17  -3  -5    6.61   15.12
 -17   3  -5    3.70   14.08
  17  -3  -5   -6.36    6.00
  17  -3   5    0.32   11.71
  17  -3   5    0.26    6.48
 -17   3   5    1.97   12.47
 -17   3   5   11.66    9.96
  17  -4  -5   34.54   16.65
 -17   4  -5   -9.59    9.58
 -17   4  -5    1.96   13.97
  17  -4   5    1.34   12.33
  17  -4   5   -8.21    6.95
 -17   5  -5   -7.24    9.71
 -17   5  -5   12.40   13.97
  17  -5   5   10.14   13.68
  17  -5   5   -6.80    6.95
 -17   6  -5  -11.59   13.70
  17  -6   5    1.56   14.23
  17  -6   5  -25.37    7.06
 -17   7  -5   -3.04   10.44
  18   5  -5   -4.52    6.98
  18   5  -5    0.93    6.37
 -18  -5  -5  -15.86   14.79
 -18  -5   5   10.29   14.03
 -18  -5   5    7.36   12.62
  18   5   5   -7.39    7.71
  18   4  -5    0.73    6.50
 -18  -4  -5   14.43   14.41
  18   4  -5    2.36    6.09
 -18  -4   5  -16.19   11.28
  18   4   5    0.27    7.58
  18   4   5   -9.61    7.05
 -18  -4   5   26.30   13.66
 -18  -3  -5   32.11   13.85
  18   3  -5   -4.56    6.49
  18   3  -5   -1.99    6.52
 -18  -3   5   15.84   13.70
  18   3   5    5.52    7.39
 -18  -3   5   -3.88    9.93
  18   3   5    2.17    7.54
  18   2  -5   -8.40    6.90
 -18  -2  -5   -3.07   12.36
 -18  -2  -5   43.93   16.58
  18   2  -5    6.58    7.57
 -18  -2   5   10.75   13.13
  18   2   5   12.36    7.66
  18   2   5    2.70    7.63
 -18  -2   5   16.40    9.26
 -18  -1  -5    6.51   15.69
  18   1  -5   -0.73    8.82
  18   1  -5    4.60    6.51
 -18  -1  -5    6.61   10.43
 -18  -1   5   20.55    9.69
 -18  -1   5    1.71   13.47
  18   1   5    5.01    7.74
  18   1   5  -26.86    6.95
  18   0  -5   14.95   10.99
 -18   0  -5   26.34   15.99
  18   0  -5   -0.26    6.51
 -18   0  -5   -2.98   10.05
  18   0   5   -3.66    7.12
 -18   0   5    6.81    9.77
  18   0   5   -5.16    8.70
 -18   0   5   10.35   13.54
  18  -1  -5   -2.96    6.42
 -18   1  -5   -6.44   10.23
  18  -1  -5  -25.90   12.46
 -18   1   5   21.26   10.43
 -18   1   5   19.82   13.53
  18  -1   5   18.57   10.07
  18  -1   5   -5.98    6.91
  18  -2  -5    3.85    6.56
 -18   2  -5   10.85   10.76
  18  -2  -5   -4.71   13.91
 -18   2   5    1.08   10.67
 -18   2   5   11.57   13.89
  18  -2   5   26.00   11.51
 -18   3  -5    8.94   10.59
 -18   3  -5   -4.94   16.00
  18  -3  -5   -8.64   15.71
  18  -3   5    2.74   12.80
 -18   3   5   22.60   11.06
  18  -3   5    7.40    7.62
 -18   3   5   21.67   13.90
 -18   4  -5   -1.12   10.68
 -18   4  -5   19.31   16.61
  18  -4   5   -0.30    7.62
  18  -4   5   -6.25   13.54
 -18   4   5  -11.26   11.54
 -18   5  -5  -24.15   15.93
 -18   5  -5   -8.35   11.09
 -18   6  -5  -13.58   11.75
 -18   6  -5   18.65   16.45
 -19  -5  -5   16.93   15.94
  19   5   5   -9.29    8.81
 -19  -5   5  -23.61   15.67
  19   4  -5    0.20    6.63
 -19  -4  -5  -13.30   16.15
  19   4  -5    7.08    7.48
 -19  -4   5   21.68   11.84
  19   4   5   -4.32    8.40
  19   4   5    2.66    8.22
 -19  -4   5    1.17   14.81
 -19  -3  -5   -6.08   15.35
 -19  -3  -5  -22.99   18.40
  19   3  -5   -0.20    7.23
  19   3  -5   -1.63    7.20
 -19  -3   5    2.35   14.88
  19   3   5   -5.38    8.21
 -19  -3   5   20.57   11.22
  19   3   5   -3.95    8.20
 -19  -2  -5   -0.65   18.24
 -19  -2  -5  -25.59   14.47
 -19  -2   5  -28.33   16.10
 -19  -1  -5  -49.37   19.26
  19   0  -5  -31.83    9.57
 -19   0  -5  -21.86   20.35
 -19   0   5  -34.72   17.79
 -19   0   5  -25.16   13.89
 -19   1  -5  -42.73   19.29
 -19   1   5    2.87   11.52
 -19   1   5  -26.60   16.39
 -19   2  -5   -0.33   12.69
  19  -2  -5   -3.33    7.89
  19  -2  -5  -32.87   16.34
 -19   2   5   -9.15   11.89
 -19   2   5  -29.44   15.82
 -19   3  -5  -14.89   12.10
  19  -3  -5  -27.46   17.56
 -19   3  -5   -7.95   17.87
  19  -3   5   16.59   14.31
 -19   3   5  -10.72   11.63
 -19   3   5   -5.58   14.60
 -19   4  -5    4.18   17.68
 -19   4  -5    9.80   12.37
  19  -4   5  -24.23   15.06
  19  -4   5   -0.34    8.29
 -19   5  -5    9.89   12.27
 -19   5  -5    7.89   18.00
  19  -5   5   -8.61   16.65
  19  -5   5    0.35    8.26
 -19   6  -5    3.95   13.46
 -19   6  -5    4.57   17.49
  19  -6   5   33.22   18.08
  19  -6   5   10.83    8.97
  20   4  -5    1.36    7.77
 -20  -4   5   -3.97   16.83
 -20  -4   5   13.80   14.52
  20   4   5   -0.59    9.08
  20   3  -5   19.37    8.42
  20   3  -5   -3.62    8.09
 -20  -3  -5   17.86   18.15
 -20  -3   5   14.06   16.34
  20   3   5   -7.18    9.41
 -20  -3   5   19.65   12.94
  20   2  -5   14.16    8.67
  20   2  -5  -18.87    7.94
 -20  -2  -5    7.34   16.23
 -20  -2   5   28.16   17.21
  20   2   5    8.50    9.96
  20   2   5    0.33    7.26
 -20  -2   5   -4.66   12.09
  20   1  -5   -5.80   10.24
 -20  -1  -5   -9.45   14.63
  20   1  -5    7.26    8.31
 -20  -1   5   -0.73   16.38
  20   1   5    1.74   10.31
  20   1   5    0.32    8.77
 -20  -1   5    9.88   11.77
 -20   0  -5   -7.08   14.27
  20   0  -5    4.55   12.51
  20   0  -5    0.32    8.04
 -20   0   5  -11.55   17.10
 -20   0   5   -9.86   11.88
  20   0   5    0.60   10.94
  20  -1  -5    9.57   14.67
  20  -1  -5    9.83    8.15
 -20   1  -5    1.51   13.49
 -20   1   5   17.09   12.33
  20  -1   5    0.34    7.35
 -20   1   5   20.07   17.45
  20  -1   5    9.35   12.12
  20  -2  -5   -4.38    7.88
  20  -2  -5  -53.63   16.82
 -20   2  -5  -20.66   13.97
 -20   2   5    8.43   12.51
  20  -2   5    3.99   13.42
 -20   2   5   18.58   17.14
  20  -3  -5    3.29   18.05
 -20   3   5   10.61   16.52
 -20   3   5   -2.03   13.29
  21   3  -5    1.01    8.86
 -21  -3   5  -29.59   14.89
  21   2  -5   -6.15    9.45
 -21  -2   5   23.12   13.60
  21   1  -5   13.93   10.85
 -21  -1   5  -14.49   13.26
   0   0  -6    0.35    0.39
   0   0  -6    0.48    0.94
   0   0   6    0.19    0.31
  -1   0  -6   -0.14    0.37
   0   1  -6    0.20    0.44
   0   1  -6   -0.07    0.72
   1   0  -6   -0.51    0.99
   1   0  -6   -0.14    0.40
  -1   0   6    0.17    0.35
   0  -1   6    0.35    0.30
  -1   1  -6   12.02    3.91
   1   1  -6    8.57    3.79
   1   1  -6   17.03    3.24
  -1   1  -6   10.01    3.60
  -1  -1   6   13.34    2.93
   1  -1   6    8.74    3.32
   1  -1   6   15.87    3.17
  -1   2  -6    1.30    0.84
  -1   2  -6    2.09    1.03
   2   1  -6    2.90    1.16
  -1   2  -6    3.33    0.86
  -1   2  -6    3.35    0.93
   1  -2   6    1.91    1.16
   1  -2   6    2.32    0.71
   1  -2   6    2.30    0.83
  -2  -1   6    2.31    0.71
   1  -2   6    2.22    0.69
   2   0  -6   31.33   10.05
   2   0  -6   35.99    8.39
   0   2  -6   20.17    8.57
   0   2  -6   35.97    7.85
   2   0   6   35.80    7.45
  -2   0   6   37.36    7.77
   0  -2   6   37.07    7.49
  -2   1  -6    2.57    0.99
   1   2  -6    2.62    0.92
   1   2  -6    3.71    1.02
  -2   1  -6    3.75    1.11
  -2   1  -6    3.10    0.76
   2  -1   6    2.28    0.83
   2  -1   6    2.47    0.66
  -1  -2   6    1.00    0.74
   2  -1   6    1.81    1.09
  -2   2  -6  166.39   41.68
  -2   2  -6  191.53   40.94
   2   2  -6  173.73   44.97
  -2   2  -6  173.20   45.42
  -2   2  -6  166.61   45.84
   2  -2   6  163.94   39.08
  -2  -2   6  165.65   38.86
   2  -2   6  138.68   46.54
   2  -2   6  168.09   43.99
   2  -2   6  164.70   39.37
   3   2  -6   13.36    6.38
   3   2  -6   31.22    6.76
  -2   3  -6   29.20    8.14
  -2   3  -6   25.12    7.21
  -2   3  -6   28.32    6.66
   3   2  -6   21.97    7.24
   3   2  -6   24.64    7.01
  -3  -2   6   19.55    6.00
  -3  -2   6   31.44    7.03
   2  -3   6   26.52    7.97
   2  -3   6   29.09    6.12
   2  -3   6   32.20    7.05
  -1   3  -6    7.10    2.31
   3   1  -6   10.95    2.18
   3   1  -6    8.73    2.24
   3   1  -6    8.08    2.76
   3   1  -6    6.44    2.61
  -1   3  -6    7.68    2.43
   1  -3   6   10.58    2.08
  -3  -1   6    7.70    1.99
  -3  -1   6    9.14    2.80
   0   3  -6   -0.03    0.75
   0   3  -6    0.25    0.87
   3   0  -6    0.19    0.55
  -3   0  -6   -0.55    1.34
   3   0  -6    0.57    1.23
  -3   0   6   -0.07    0.49
   0  -3   6   -0.18    0.49
   3   0   6   -0.03    0.64
   3   0   6    0.08    1.09
   1   3  -6   10.35    2.36
  -3   1  -6    8.27    2.83
  -3   1  -6    9.19    2.19
   1   3  -6    8.67    2.43
  -3   1  -6    8.20    2.42
  -1  -3   6    6.84    2.10
   3  -1   6    8.08    2.11
   3  -1   6    9.98    2.59
   3  -1   6    9.11    2.23
  -3   2  -6   29.00    6.50
   2   3  -6   31.74    7.00
   2   3  -6   21.09    6.48
  -3   2  -6   25.00    7.16
  -3   2  -6   26.02    7.22
  -3   2  -6   22.38    6.57
   3  -2   6   26.29    6.13
   3  -2   6   24.23    7.48
   3  -2   6   27.90    6.18
   3  -2   6   28.12    6.82
  -3   3  -6    0.07    1.10
   3   3  -6    0.51    0.56
   3   3  -6    0.21    1.12
  -3   3  -6    0.42    2.01
  -3   3  -6    0.19    0.75
   3  -3   6    0.31    0.58
   3  -3   6    1.28    2.54
   3  -3   6    0.58    1.14
   4   3  -6   11.18    3.97
   4   3  -6   14.62    3.33
  -4  -3   6   13.05    4.20
   4   2  -6   71.37   18.33
   4   2  -6   52.36   18.59
   4   2  -6   69.59   17.70
  -4  -2   6   76.04   18.49
  -4  -2   6   75.99   15.75
   4   1  -6   17.72    4.75
   4   1  -6   17.21    5.74
   4   1  -6   16.18    5.10
   4   1  -6   13.97    5.58
  -1   4  -6   27.05    5.25
  -4  -1  -6    3.58    5.67
   4   1   6   11.58    5.00
   1  -4   6   24.98    4.53
  -4  -1   6   21.51    5.62
   4   1   6   22.91    4.42
  -4  -1   6   20.41    4.37
   0   4  -6    3.03    1.63
   0   4  -6    4.05    1.30
   4   0  -6    4.78    1.99
  -4   0  -6    3.04    1.72
   4   0  -6    4.15    1.11
   4   0   6    2.34    1.62
  -4   0   6    2.79    1.04
   0  -4   6    3.15    1.07
  -4   0   6    4.39    2.19
   4   0   6    2.12    1.19
   1   4  -6   23.20    5.66
  -4   1  -6   21.22    5.19
  -4   1  -6   23.17    5.55
   4  -1  -6   14.36    5.68
   4  -1   6   21.11    5.76
   4  -1   6   24.08    5.22
  -4   2  -6   57.08   18.62
  -4   2  -6   68.41   16.83
  -4   2  -6   73.50   19.25
  -4   2  -6   73.47   17.49
   4  -2   6   58.39   15.94
   4  -2   6   62.67   19.12
   4  -2   6   73.28   17.53
   4  -2   6   77.74   16.23
  -4   3  -6   16.82    4.40
   3   4  -6    9.92    3.56
  -4   3  -6   13.58    3.96
   3   4  -6   12.95    3.90
  -3  -4   6   20.68    3.40
   4  -3   6   12.57    5.02
   4  -3   6   10.20    3.86
   4   4  -6   10.16    2.98
   4   4  -6    8.07    2.59
   4   4  -6   10.49    3.07
  -4  -4   6   10.75    2.56
   4  -4   6   11.01    4.69
   5   4  -6   21.93    5.49
   5   4  -6   24.39    6.04
   5   4  -6   26.98    5.79
  -5  -4   6   24.98    5.36
  -5  -4   6    1.72    6.73
   5   3  -6   61.27   16.85
   5   3  -6   75.18   16.77
   5   3  -6   64.93   19.36
   5   3  -6   65.77   18.15
  -5  -3   6   69.13   19.35
  -5  -3   6   75.64   16.42
   5   2  -6   22.78    6.25
  -5  -2  -6    4.06    6.51
   5   2  -6   23.99    5.88
  -5  -2   6   27.78    6.10
   5   2   6   24.05    5.22
  -5  -2   6   27.42    6.23
   5   1  -6   27.57    9.59
   5   1  -6   40.17    8.82
   5   1  -6   37.52    9.47
  -5  -1   6   38.46    9.22
  -5  -1   6   36.80    7.82
   5   0  -6    0.23    1.27
   5   0  -6   -0.38    1.97
   5   0  -6    0.18    3.08
  -5   0   6   -0.43    0.74
  -5   0   6   -0.14    2.66
   1   5  -6   21.45    8.56
  -1  -5   6   39.81    7.59
   2   5  -6   31.43    6.50
  -5   2  -6   25.91    7.12
   5  -2   6   22.63    5.79
   3   5  -6   61.75   18.23
   3   5  -6   74.39   18.57
  -5   3  -6   67.73   20.08
  -3  -5   6   88.75   16.72
   4   5  -6   23.74    6.28
  -5   4  -6   20.23    7.26
   4   5  -6   24.28    6.32
  -4  -5   6   21.24    5.57
   5  -4   6   25.63    6.32
   5   5  -6   -0.76    2.43
   5   5  -6    1.52    1.29
   5   5  -6   -0.24    1.62
   5  -5   6   -0.53    4.36
  -5  -5   6    2.19    1.25
   6   5  -6    5.12    3.36
   6   5  -6    8.93    2.51
  -6  -5   6    2.00    1.96
   6   4  -6   26.64    7.41
   6   4  -6   26.61    6.51
   6   4  -6   25.88    6.82
  -6  -4   6   25.42    6.06
  -6  -4   6   10.62    7.98
   6   3  -6   10.89    3.17
   6   3  -6   11.73    2.80
   6   3  -6    7.12    3.32
   6   3  -6    7.53    3.12
  -6  -3   6    9.91    2.63
  -6  -3   6   10.36    3.47
  -6  -3   6   12.69    2.66
   6   2  -6   51.36   14.49
   6   2  -6   56.95   13.98
   6   2  -6   53.30   13.54
  -6  -2   6   80.83   13.95
   6   2   6   57.11   12.38
  -6  -2   6   49.85   14.67
   6   2   6   66.62   13.67
  -6  -1  -6    1.39    2.66
   6   1  -6    0.27    2.48
   6   1   6    0.59    1.93
   6   1   6    0.59    1.32
  -6   0  -6    4.53    2.37
   6   0   6    4.83    1.88
   6   0   6    4.63    2.42
  -6   1  -6   -0.47    1.89
   6  -1   6    0.49    1.55
   6  -1   6    2.38    2.70
  -6   2  -6   68.57   13.87
  -6   2  -6   57.76   14.96
   6  -2   6   49.74   13.96
   6  -2   6   62.10   15.38
  -6   3  -6    8.03    3.94
  -6   3  -6   10.31    2.94
   6  -3   6   12.97    3.15
   6  -3   6    7.05    4.98
  -6   4  -6   31.06    8.02
   4   6  -6   28.03    7.00
   6  -4   6   37.15    9.07
   6  -4   6   23.66    7.14
  -4  -6   6   22.16    6.49
   5   6  -6    3.05    2.96
   5   6  -6    1.24    2.01
  -6   5  -6    5.05    5.02
   6  -5   6   17.98    6.21
  -5  -6   6    2.72    1.89
   6  -5   6   10.06    3.08
   6   6  -6    2.94    1.92
   6   6  -6    1.80    2.87
   6   6  -6    2.27    2.02
  -6  -6   6    2.66    1.65
   6  -6   6    2.70    5.38
   7   6  -6    1.11    1.88
   7   6  -6    2.31    3.32
   7   6  -6    2.15    2.19
  -7  -6   6    0.97    1.65
   7   5  -6    2.20    2.74
   7   5  -6    3.02    1.83
   7   5  -6    3.92    2.21
  -7  -5   6    3.48    1.59
   7   4  -6    4.23    2.12
   7   4  -6   13.00    2.94
   7   4  -6    2.15    2.72
   7   4  -6    6.43    2.42
  -7  -4   6    3.27    1.81
  -7  -4   6    8.14    3.77
   7   3  -6    9.05    3.89
   7   3  -6   16.92    4.08
  -7  -3  -6   -0.19    5.50
   7   3  -6   10.98    4.17
  -7  -3   6   11.96    3.32
  -7  -3   6   15.29    3.35
   7   2  -6   15.24    3.36
   7   2  -6    7.08    3.20
   7   2  -6    8.90    3.64
  -7  -2  -6    3.86    4.88
  -7  -2   6    9.65    2.91
   7   2   6   12.07    3.00
  -7  -2   6    9.50    2.78
   7   2   6   20.79    3.80
  -7  -2   6   12.54    4.34
   7   1  -6    8.34    2.46
  -7  -1  -6    2.86    3.09
   7   1  -6    3.57    2.09
   7   1  -6    2.55    1.85
   7   1   6    3.71    1.92
  -7  -1   6    4.82    1.48
  -7  -1   6    6.47    3.53
  -7  -1   6   10.42    2.53
   7   1   6    3.17    2.50
  -7   0  -6    1.23    2.27
   7   0  -6    0.45    1.19
   7   0  -6    8.29    3.92
   7   0  -6    1.87    1.88
   7   0   6    0.90    1.69
   7   0   6    1.53    2.54
  -7   0   6   -2.98    3.46
   7  -1  -6   -4.88    5.14
  -7   1  -6    2.79    2.50
   7  -1  -6    3.81    1.54
   7  -1  -6    1.87    1.98
  -7   1   6    2.42    3.97
   7  -1   6    4.97    2.13
   7  -1   6    0.17    3.33
  -7   2  -6   10.87    3.88
  -7   2  -6   11.16    4.39
   7  -2   6   13.34    4.76
   7  -2   6    8.33    3.37
  -7   3  -6   17.73    5.27
   7  -3   6   14.09    6.38
   7  -3   6   17.40    4.34
  -7   4  -6   10.08    4.40
   7  -4   6    3.77    5.50
   7  -4   6    7.86    2.82
  -7   5  -6   -1.04    4.59
   7  -5   6    3.48    2.56
   7  -5   6    2.88    5.59
   7  -6   6   -0.37    6.23
   7   7  -6    8.41    3.43
   8   7  -6    0.73    2.63
   8   7  -6   -0.58    2.44
   8   6  -6    3.55    2.49
   8   6  -6   -0.22    3.30
   8   6  -6    0.56    2.16
  -8  -6   6    2.61    1.90
   8   5  -6    2.56    2.01
   8   5  -6    1.91    2.21
   8   5  -6    3.32    3.15
   8   5  -6    2.69    3.20
  -8  -5   6    2.69    1.64
  -8  -5   6   -2.65    4.89
   8   4  -6    1.30    2.47
   8   4  -6   -0.60    1.81
   8   4  -6   -0.61    1.98
   8   4  -6    0.41    2.51
  -8  -4   6   -2.64    3.70
  -8  -4   6    0.08    1.30
   8   3  -6    2.36    2.44
   8   3  -6    5.85    2.21
   8   3  -6    1.99    2.25
   8   3  -6    2.03    1.98
  -8  -3  -6   -0.60    4.61
  -8  -3   6    1.59    1.43
  -8  -3   6    3.34    1.27
  -8  -3   6    2.29    2.71
   8   3   6   -2.04    3.03
   8   2  -6   10.32    3.61
   8   2  -6   10.53    3.22
  -8  -2  -6    8.18    5.23
   8   2  -6   11.95    3.96
   8   2  -6    9.05    3.33
  -8  -2   6   12.10    2.80
  -8  -2   6   11.29    4.52
   8   2   6   11.93    2.98
  -8  -2   6    6.59    2.65
  -8  -2   6   10.59    3.77
   8   2   6    9.42    3.74
  -8  -1  -6   -0.11    3.17
   8   1  -6   -1.92    1.77
   8   1  -6   -1.87    2.63
   8   1   6   -4.11    2.56
  -8  -1   6   -1.76    4.21
   8   1   6   -0.55    1.96
  -8  -1   6   -1.50    1.25
  -8  -1   6   -4.67    2.74
   8   0  -6   -0.88    3.65
  -8   0  -6   14.85    3.69
   8   0  -6   -7.84    6.01
   8   0  -6    4.64    4.58
   8   0  -6   13.38    2.83
  -8   0   6   14.43    5.34
   8   0   6   -2.32    4.28
   8   0   6   17.78    3.27
  -8   0   6   13.44    2.80
   8  -1  -6   -2.04    1.36
   8  -1  -6   -5.76    5.65
  -8   1  -6   -0.89    2.72
  -8   1   6    1.44    4.56
   8  -1   6   -4.84    2.72
   8  -1   6   -2.06    3.84
  -8   2  -6    9.14    4.19
   8  -2  -6   14.10    7.14
  -8   2  -6   12.17    5.06
   8  -2   6    8.73    3.70
  -8   2   6    4.87    5.41
   8  -2   6   23.33    5.40
  -8   3  -6    4.00    4.33
   8  -3   6    2.47    2.39
   8  -3   6    0.26    4.93
  -8   4  -6    1.59    4.48
   8  -4   6    0.96    2.45
   8  -4   6    5.91    5.83
  -8   5  -6    0.55    5.20
   8  -5   6    1.57    6.38
   8  -5   6    2.32    2.82
  -8   6  -6    3.34    5.34
   8  -6   6    5.76    6.90
   9   7  -6   40.01    9.81
   9   7  -6   34.08   10.26
   9   6  -6   16.21    5.27
   9   6  -6    8.60    5.80
   9   6  -6   16.91    4.87
  -9  -6   6   19.09    4.51
   9   5  -6    6.34    3.69
   9   5  -6    7.58    2.76
   9   5  -6    1.90    3.73
   9   5  -6    8.06    3.18
  -9  -5   6    8.13    5.80
  -9  -5   6    6.06    2.29
   9   4  -6    3.27    2.99
   9   4  -6    0.92    2.40
   9   4  -6    2.83    2.20
   9   4  -6    0.64    2.67
  -9  -4   6    0.24    1.41
  -9  -4   6    0.67    1.55
  -9  -4   6    1.78    3.90
  -9  -3  -6   -3.60    5.28
   9   3  -6    1.19    2.42
   9   3  -6    0.07    2.44
   9   3  -6    4.25    2.26
   9   3  -6    7.07    2.74
  -9  -3   6    0.28    1.38
   9   3   6   -0.34    3.11
  -9  -3   6    2.60    1.44
  -9  -3   6    1.94    3.02
   9   2  -6    6.23    3.89
   9   2  -6    8.50    3.00
   9   2  -6    4.78    3.36
  -9  -2  -6    8.83    5.09
   9   2  -6   10.89    3.08
  -9  -2   6   13.85    4.81
  -9  -2   6   10.66    3.57
   9   2   6    4.98    3.60
  -9  -2   6    7.45    2.40
  -9  -2   6    7.52    2.27
   9   1  -6    3.65    3.84
   9   1  -6    2.17    2.75
   9   1  -6   -0.52    2.19
  -9  -1  -6   -3.07    3.35
   9   1  -6    1.71    1.80
  -9  -1   6    0.79    2.87
  -9  -1   6   -2.58    4.59
  -9  -1   6    0.06    1.20
   9   1   6    1.04    2.85
   9   1   6   -0.63    2.14
   9   0  -6   -0.27    4.99
   9   0  -6    2.00    2.35
   9   0  -6   -1.07    3.32
  -9   0  -6    0.90    3.18
   9   0  -6   -0.99    1.66
   9   0   6    0.75    2.43
  -9   0   6    0.07    1.35
   9   0   6    0.38    3.15
  -9   0   6   -0.66    4.59
   9  -1  -6   -0.11    2.50
   9  -1  -6   -0.69    6.01
   9  -1  -6    3.13    1.55
  -9   1  -6    0.19    3.12
   9  -1   6    0.33    3.84
  -9   1   6    0.53    4.96
   9  -1   6    0.10    2.56
   9  -2  -6   -0.84    7.22
  -9   2  -6   11.87    4.24
   9  -2  -6   13.75    2.89
  -9   2  -6    9.39    5.39
   9  -2   6   10.65    3.50
   9  -2   6   -0.86    5.22
  -9   2   6   13.92    5.90
  -9   3  -6    1.20    3.73
  -9   3  -6    4.37    4.93
   9  -3   6    3.74    5.25
   9  -3   6    1.29    2.74
  -9   4  -6    2.00    5.33
   9  -4   6  -11.09    6.50
   9  -4   6    4.05    2.79
  -9   5  -6    7.13    5.86
   9  -5   6    5.05    3.33
   9  -5   6    4.22    7.14
  -9   6  -6   16.45    7.89
   9  -6   6   30.71    9.61
  10   8  -6   32.02    9.36
  10   7  -6    1.43    3.08
  10   7  -6    1.98    3.14
  10   6  -6    9.02    4.50
  10   6  -6    7.48    3.79
  10   6  -6   11.72    3.62
 -10  -6   6    9.91    2.97
  10   5  -6   32.21    9.61
  10   5  -6   37.04   10.01
  10   5  -6   28.30    9.70
  10   5  -6   32.71    8.96
 -10  -5   6   24.94   12.08
 -10  -5   6   38.21    8.45
  10   4  -6    2.84    3.10
  10   4  -6    0.73    2.62
  10   4  -6    2.67    2.93
 -10  -4  -6    2.62    5.97
  10   4  -6    0.58    2.65
 -10  -4   6    3.51    4.29
 -10  -4   6   -2.51    1.61
  10   4   6   -1.03    2.50
 -10  -4   6    0.69    1.74
  10   3  -6   23.97   10.13
  10   3  -6   34.75   10.00
  10   3  -6   38.76    9.72
 -10  -3  -6   16.80   11.65
  10   3  -6   41.86    9.71
 -10  -3   6   51.87   10.73
 -10  -3   6   37.96    9.25
 -10  -3   6   36.31    8.62
  10   3   6   38.66    9.69
  10   2  -6    0.31    2.35
  10   2  -6   -0.09    2.46
 -10  -2  -6    1.84    4.73
  10   2  -6    2.41    3.57
  10   2  -6    2.86    2.89
 -10  -2   6    2.54    1.45
  10   2   6    2.92    3.13
 -10  -2   6    0.38    4.93
 -10  -2   6    3.28    1.36
 -10  -2   6    1.39    3.32
  10   1  -6   -1.58    4.74
  10   1  -6    3.33    2.84
  10   1  -6    8.20    2.55
 -10  -1  -6    1.78    4.10
  10   1  -6    3.12    3.48
 -10  -1   6    7.82    3.70
  10   1   6    4.06    3.41
  10   1   6    5.78    2.90
 -10  -1   6    4.71    1.87
 -10  -1   6    5.48    5.17
  10   0  -6   19.46    5.14
  10   0  -6   18.25    7.71
 -10   0  -6   30.35    6.13
  10   0  -6   18.91    5.27
  10   0  -6   15.28    7.19
  10   0   6   21.89    5.28
 -10   0   6   10.55    7.16
  10   0   6   24.09    6.08
 -10   0   6   16.57    5.44
  10  -1  -6    4.86    3.09
  10  -1  -6    0.92    6.90
 -10   1  -6    1.71    3.90
  10  -1  -6    8.15    2.30
  10  -1   6    8.59    4.88
 -10   1   6   10.36    5.78
  10  -1   6    7.30    3.20
 -10   2  -6    4.26    3.94
  10  -2  -6    1.63    2.85
 -10   2  -6   10.16    5.65
  10  -2  -6   -1.57    7.59
  10  -2  -6    1.18    1.63
  10  -2   6    2.24    5.18
 -10   2   6   -0.33    5.69
  10  -2   6   -0.12    2.90
  10  -3  -6    6.38   15.22
 -10   3  -6   38.39   10.96
 -10   3  -6   31.03   11.22
  10  -3   6   44.70    9.69
  10  -3   6   48.38   12.55
 -10   4  -6   -0.28    6.14
  10  -4   6   -5.34    6.90
  10  -4   6    7.83    3.32
 -10   5  -6   29.23   11.49
  10  -5   6   44.74   13.29
  10  -5   6   42.74    9.67
 -10   6  -6   12.23    7.15
  10  -6   6  -30.29    9.36
  10  -6   6    5.28    3.97
  10  -7   6    5.68    9.05
  11   8  -6    2.56    3.78
  11   7  -6    6.80    3.94
  11   7  -6    7.22    3.81
  11   6  -6    8.16    3.96
  11   6  -6   10.69    3.72
  11   6  -6    3.82    4.73
 -11  -6   6   -7.20    7.91
 -11  -6   6    7.52    2.98
  11   5  -6    3.91    4.11
  11   5  -6   -0.11    2.93
  11   5  -6    3.73    3.62
  11   5  -6    3.22    3.15
 -11  -5   6    1.93    2.05
 -11  -5   6   -0.42    6.49
 -11  -5   6   -0.21    1.89
  11   4  -6    1.20    4.34
  11   4  -6   18.80    4.60
  11   4  -6    8.06    4.08
 -11  -4  -6    5.89    7.59
  11   4  -6    3.51    4.12
 -11  -4   6   17.73    3.12
  11   4   6   13.06    3.79
 -11  -4   6   15.09    3.07
 -11  -4   6    6.77    5.48
  11   3  -6   11.39    4.08
  11   3  -6    9.53    3.76
  11   3  -6    6.57    3.76
 -11  -3  -6   -1.21    7.28
  11   3  -6    9.49    3.84
 -11  -3   6   14.40    6.40
 -11  -3   6    8.16    2.72
 -11  -3   6   10.61    2.58
 -11  -3   6   15.42    4.60
  11   3   6    1.65    4.61
  11   2  -6    7.76    4.22
 -11  -2  -6   -4.97    5.65
  11   2  -6    1.71    3.04
  11   2  -6    2.37    3.19
  11   2  -6    0.12    2.70
  11   2   6    0.11    3.62
 -11  -2   6   -0.87    5.59
 -11  -2   6    3.85    1.63
 -11  -2   6    3.00    1.51
 -11  -2   6    4.69    3.79
  11   1  -6   47.26   21.32
  11   1  -6   59.76   17.95
  11   1  -6   53.11   20.25
 -11  -1  -6   92.89   19.43
 -11  -1   6   73.55   19.11
 -11  -1   6   82.29   20.63
  11   1   6   72.30   18.13
  11   1   6   68.29   16.96
 -11  -1   6   78.82   18.96
  11   0  -6    0.88    3.11
 -11   0  -6    1.28    4.14
  11   0  -6   -3.24    6.15
  11   0   6   -4.68    3.31
 -11   0   6    0.83    1.81
 -11   0   6   -3.29    6.11
 -11   0   6   -0.23    4.27
  11   0   6   -1.08    4.25
  11  -1  -6   41.72   24.66
 -11   1  -6   97.16   21.12
 -11   1  -6  122.24   20.93
  11  -1  -6   75.47   19.33
  11  -1   6   86.75   21.24
 -11   1   6   72.63   21.63
  11  -1   6   84.54   19.45
  11  -2  -6    2.51    3.16
 -11   2  -6    2.42    6.64
  11  -2  -6   -0.24    8.34
 -11   2  -6    4.80    4.46
 -11   2   6    4.71    6.77
  11  -2   6    1.40    5.87
  11  -2   6   -5.03    3.49
 -11   3  -6   -2.83    7.87
  11  -3  -6   -2.24    9.76
 -11   3  -6    6.00    5.66
 -11   4  -6   14.16    7.33
 -11   4  -6    8.15    5.84
  11  -4   6  -11.65    4.62
 -11   5  -6   -2.12    6.91
  11  -5   6    4.31    3.84
  11  -5   6  -18.76    8.57
 -11   6  -6    6.38    7.77
  11  -6   6   19.54    9.73
  11  -6   6   15.50    4.86
  11  -7   6   22.54   10.86
  12   8  -6    5.56    4.55
  12   7  -6    0.47    3.91
  12   7  -6    4.51    3.89
  12   6  -6    0.29    4.45
  12   6  -6    3.37    3.57
  12   6  -6    3.30    3.70
 -12  -6   6    2.76    2.35
 -12  -6   6   -0.65    2.45
 -12  -6   6   -3.71    8.06
  12   5  -6    5.92    3.88
  12   5  -6    0.37    3.35
 -12  -5   6    1.04    2.03
 -12  -5   6    0.84    2.19
 -12  -5   6    1.35    7.01
 -12  -4  -6    7.85    8.49
  12   4  -6   11.13    4.67
  12   4  -6    9.10    4.61
  12   4   6   -0.14    4.04
  12   4   6   19.96    5.43
 -12  -4   6   21.40    6.21
  12   3  -6    2.35    3.77
  12   3  -6    0.37    3.46
 -12  -3  -6    1.27    7.14
  12   3   6    0.13    3.42
 -12  -3   6   -0.49    4.37
  12   3   6   -0.81    4.10
 -12  -3   6   -1.96    6.55
  12   2  -6   41.77   11.59
 -12  -2  -6   36.93   12.66
  12   2  -6   35.48   10.58
 -12  -2   6   46.82   12.09
 -12  -2   6   24.44   12.15
  12   2   6   38.86   10.70
  12   1  -6    1.02    3.18
 -12  -1  -6    1.44    5.21
  12   1  -6   -4.55    5.65
 -12  -1   6   -1.91    6.87
  12   1   6    1.68    4.19
 -12  -1   6    2.47    4.53
  12   0  -6   50.74   20.07
  12   0  -6   49.99   16.13
 -12   0  -6   86.45   17.87
 -12   0   6   76.40   18.17
 -12   0   6   57.00   19.58
  12   0   6   67.76   15.99
  12   0   6   58.84   17.28
 -12   1  -6    0.30    8.09
  12  -1  -6   -0.75    3.61
  12  -1  -6    6.98    8.03
 -12   1  -6   -7.93    5.21
  12  -1   6   -9.32    4.12
  12  -1   6  -18.54    6.26
 -12   1   6    7.34    7.22
 -12   2  -6   25.68   12.99
  12  -2  -6   25.91   16.39
  12  -2  -6   33.84   10.51
 -12   2  -6   56.87   12.38
 -12   2   6   31.37   13.42
  12  -2   6   46.70   10.58
  12  -2   6   31.63   13.24
 -12   3  -6    4.24    7.80
 -12   3  -6   -3.58    5.33
  12  -3  -6   -2.37   10.43
  12  -3   6   -0.58    7.63
  12  -3   6    4.09    4.08
 -12   3   6    3.51    7.45
 -12   4  -6    9.55    8.46
 -12   4  -6   13.41    6.62
  12  -4   6   23.56    5.49
  12  -4   6    4.34    9.24
  12  -5   6    0.24    9.06
  13   6  -6   12.56    5.55
  13   6  -6    8.17    6.07
 -13  -6   6    7.91   10.78
  13   5  -6    6.38    5.84
  13   5  -6   11.60    5.88
 -13  -5   6    9.83    8.82
  13   4  -6    4.21    4.10
  13   4  -6   -0.22    3.80
  13   4   6   -1.37    4.00
 -13  -4   6    2.15    5.61
 -13  -4   6   -3.36    8.00
  13   3  -6    4.89    4.37
  13   3  -6   11.02    4.69
 -13  -3   6    7.74    7.79
 -13  -3   6   11.00    5.54
  13   2  -6    0.54    3.50
  13   2  -6   -1.34    4.94
 -13  -2   6    0.78    4.75
 -13  -2   6   -0.58    7.32
  13   1  -6   31.23   11.20
  13   1  -6   27.53    9.22
 -13  -1   6   33.88   11.54
 -13  -1   6   44.10   10.94
  13   0  -6    3.40    3.89
  13   0  -6   -2.00    7.02
 -13   0   6   -0.71    5.57
 -13   0   6   14.62    8.13
  13  -1  -6   24.49   13.85
  13  -1  -6   28.59    9.30
 -13   1   6   55.57   12.60
 -13   1   6   38.12   11.96
  13  -2  -6    0.83   10.43
  13  -2  -6   -1.76    3.94
 -13   2   6   -2.99    8.04
  13  -3  -6    1.59   11.40
  13  -4   6    6.52    4.68
 -13   5  -6   22.25   13.17
 -13   5  -6   48.69   11.53
  13  -5   6   87.63   13.80
 -13   6  -6   13.24   10.53
  13  -6   6   26.88   13.37
  13  -6   6   32.29    7.34
 -13   7  -6   15.98    9.54
  13  -7   6    0.32   12.19
  14   5  -6   14.41    5.09
  14   5   6    9.33    5.02
 -14  -5   6   -1.99    8.27
 -14  -4  -6    1.74   10.00
  14   4  -6   -7.60    4.81
 -14  -4   6   -5.82    7.40
  14   4   6   -4.18    4.74
  14   4   6    0.35    5.10
 -14  -3  -6    2.44    9.39
  14   3  -6   11.09    5.65
 -14  -3   6    7.66    6.71
  14   3   6   -6.68    5.32
  14   3   6    1.17    4.90
 -14  -2  -6   13.25    7.96
  14   2  -6    0.14    5.61
 -14  -2   6    6.28    5.68
  14   2   6    3.86    4.82
  14   2   6    6.09    5.14
  14   1  -6   -0.87    6.84
 -14  -1  -6   -1.41    6.50
 -14  -1   6    3.57    5.68
  14   1   6    4.76    5.17
 -14   0  -6   18.66    6.96
 -14   0  -6   20.16   11.28
  14   0   6   -0.16    6.53
 -14   1  -6   -0.39   10.96
 -14   1  -6    2.52    6.12
  14  -1   6   -7.19    7.06
  14  -1   6   -6.22    4.89
  14  -2  -6    2.49    4.35
 -14   2  -6   -4.01   10.18
 -14   2  -6   -0.71    6.57
 -14   2   6    1.87    8.91
 -14   3  -6    7.50    7.54
 -14   3  -6    0.83   10.63
  14  -3   6   33.18   10.36
 -14   3   6   22.54   10.53
  14  -3   6   15.06    6.30
 -14   4  -6   -6.41    7.06
 -14   4  -6  -12.32   10.11
  14  -4   6  -10.37    5.50
  14  -4   6    8.26   10.01
 -14   5  -6    9.57    7.25
 -14   5  -6    1.95   10.72
  14  -5   6    1.49    5.36
  14  -5   6   -7.01   10.75
 -14   6  -6  -10.45   10.19
  14  -6   6    0.31   11.83
  14  -6   6   -2.87    5.12
 -14   7  -6   17.41   10.55
  14  -7   6    1.01   13.07
 -15  -6   6    2.73   10.24
 -15  -5  -6   -0.42   10.59
  15   5  -6   -0.29    4.75
  15   5  -6    0.18    5.12
  15   5   6   -7.39    5.33
 -15  -5   6  -20.29    8.92
 -15  -5   6    3.25   10.13
  15   4  -6    4.67    6.02
 -15  -4  -6   -4.18   10.83
  15   4  -6   18.48    5.56
 -15  -4   6   15.50   10.43
 -15  -4   6   40.68    8.24
  15   4   6    6.78    5.89
  15   4   6   12.04    6.40
  15   3  -6   -2.03    4.89
 -15  -3  -6    1.68   10.14
  15   3   6   -6.37    5.09
 -15  -3   6    4.27    9.07
  15   3   6   -2.26    5.64
 -15  -2  -6   -2.79    8.83
  15   2  -6    5.22    4.56
 -15  -2   6  -10.37    9.45
  15   2   6   -3.20    5.69
  15   2   6   -0.57    5.37
  15   1  -6   -1.64    4.97
 -15  -1  -6   -2.36    7.82
  15   1  -6   10.55    7.34
  15   1   6    3.13    5.80
 -15  -1   6  -10.28    9.58
 -15  -1   6   -6.25    6.82
 -15   0  -6    0.21    7.03
  15   0  -6    2.86    4.93
  15   0  -6   -2.22    8.78
  15   0   6   -9.10    6.74
 -15   0   6   22.49   10.05
 -15   0   6   -2.48    6.97
  15  -1  -6    5.04    4.95
  15  -1  -6    6.77    9.96
 -15   1  -6   17.23   12.21
 -15   1  -6    4.97    7.31
 -15   1   6  -24.46   10.46
  15  -1   6    0.20    5.02
  15  -1   6   -4.74    8.04
 -15   1   6    1.89    7.17
  15  -2  -6    0.63    4.91
  15  -2  -6    6.80   12.09
 -15   2  -6  -12.43    7.59
 -15   2  -6    4.12   12.08
 -15   2   6   19.46   10.42
 -15   2   6    0.80    8.17
  15  -2   6    5.87    9.17
  15  -2   6    3.61    5.39
  15  -3  -6    5.31   13.55
 -15   3  -6   -2.98    7.52
 -15   3  -6  -14.42   11.69
  15  -3   6   -8.19    5.77
  15  -3   6   -3.34    9.79
 -15   3   6    1.67   10.24
 -15   4  -6    6.73    8.12
 -15   4  -6    6.16   11.71
  15  -4   6   12.35    6.07
  15  -4   6  -16.36   11.01
 -15   5  -6   10.36   11.05
 -15   5  -6   -7.72    7.97
  15  -5   6   -5.39    5.62
  15  -5   6   -1.80   11.40
 -15   6  -6   18.19    8.58
 -15   6  -6   -0.58   11.35
  15  -6   6    8.23    5.81
  15  -6   6   -6.39   12.48
 -15   7  -6    5.55   12.19
  15  -7   6   25.58   14.02
 -16  -5   6  102.14   27.97
  16   4  -6  -17.23    5.69
 -16  -4  -6   10.85   11.81
 -16  -4   6  -17.44   11.09
  16   4   6    0.20    6.07
  16   4   6    0.21    6.05
 -16  -3  -6   12.69   10.83
  16   3  -6   -7.98    5.45
  16   3  -6   -8.09    5.74
 -16  -3   6   -8.01    7.39
  16   3   6  -17.05    6.05
 -16  -3   6  -21.49   10.86
  16   3   6    0.19    5.86
  16   2  -6   10.58    6.39
 -16  -2  -6   -1.25    9.98
  16   2  -6   -4.82    5.30
 -16  -2   6   10.92   10.68
  16   2   6   -7.30    6.08
 -16  -2   6   -5.61    7.27
  16   2   6  -19.28    6.33
 -16  -1  -6    6.11    8.78
  16   1  -6   -9.67    5.11
  16   1  -6   -2.43    7.83
 -16  -1   6    1.81   10.51
 -16  -1   6    0.38    7.26
  16   1   6   -1.84    6.37
  16   1   6    0.22    5.91
  16   0  -6   18.37   10.03
 -16   0  -6   12.59    8.60
  16   0  -6    1.89    5.80
 -16   0   6    5.85   11.21
  16   0   6   16.33    7.50
 -16   0   6    4.33    8.39
 -16   1  -6    3.46   12.55
  16  -1  -6  -11.38   10.87
 -16   1  -6    1.16    7.85
  16  -1  -6   10.82    5.37
 -16   1   6   -1.88    8.24
 -16   1   6   13.52   10.61
  16  -1   6   -8.18    8.19
  16  -1   6    0.22    5.97
  16  -2  -6   16.02    5.67
 -16   2  -6    0.51   12.63
 -16   2  -6    4.71    8.12
  16  -2  -6   -0.33   13.08
  16  -2   6   19.20    9.61
 -16   2   6    9.45    8.47
 -16   2   6    9.56   11.63
  16  -2   6    1.36    6.27
 -16   3  -6   -5.09    8.28
  16  -3  -6   -9.07   14.56
 -16   3  -6   18.45   12.95
 -16   3   6  -16.98   11.51
  16  -3   6    5.24    6.28
  16  -3   6   -5.08   10.36
 -16   4  -6   -6.36   12.89
 -16   4  -6   -2.26    8.48
  16  -4   6   -2.23    6.48
  16  -4   6   16.36   11.66
 -16   5  -6   -3.47   22.67
 -16   5  -6   -8.64   22.76
  16  -5   6    0.52   17.23
  16  -5   6   27.27   25.90
 -16   6  -6    8.08    9.33
 -16   6  -6    4.55   12.80
  16  -6   6    0.27    6.56
  16  -6   6   35.45   13.85
 -16   7  -6  -10.05    9.70
 -16   7  -6  -10.23   12.61
  16  -7   6  -23.68   14.95
 -17  -5  -6   -0.49   13.41
 -17  -5   6    1.38   10.84
  17   5   6  -13.10    7.37
 -17  -5   6   -3.58   12.68
 -17  -4  -6    2.30   13.25
  17   4  -6    2.55    5.88
  17   4  -6    0.95    5.49
  17   4   6    6.70    6.91
  17   4   6   -6.93    6.70
 -17  -4   6   13.88   11.80
 -17  -4   6  -10.38    9.01
 -17  -3  -6    6.22   12.58
  17   3  -6    5.68    5.48
  17   3  -6    2.10    5.86
  17   3   6   10.78    6.88
 -17  -3   6    1.62    8.07
 -17  -3   6    6.44   11.68
  17   3   6   -2.17    6.80
  17   2  -6    5.44    5.74
 -17  -2  -6    7.71   11.20
  17   2  -6    6.57    6.92
 -17  -2   6   -1.96    7.74
 -17  -2   6    1.89   11.48
  17   2   6    0.24    6.73
  17   2   6    5.61    6.76
  17   1  -6   -5.21    5.82
 -17  -1  -6    2.39    9.55
 -17  -1  -6  -13.35   14.91
  17   1  -6    1.58    8.61
  17   1   6    0.82    7.17
  17   1   6    0.24    6.59
 -17  -1   6    5.02    8.17
 -17  -1   6    7.08   11.92
 -17   0  -6    8.93    9.41
  17   0  -6   -5.38    5.95
  17   0  -6  -10.32   10.42
 -17   0   6    3.80   12.45
 -17   0   6   -5.31    8.90
  17   0   6    0.66    7.80
 -17   1  -6    3.67    8.89
  17  -1  -6  -11.62    5.68
  17  -1  -6    1.50   11.85
 -17   1   6    0.92    9.18
  17  -1   6    7.18    8.93
 -17   1   6    2.91   12.41
  17  -2  -6   22.88   14.27
  17  -2  -6   -7.52    5.76
 -17   2  -6    2.30    9.16
 -17   2  -6    6.43   14.28
 -17   2   6   13.07   12.69
  17  -2   6    1.28    6.71
  17  -2   6   12.39    9.91
 -17   2   6  -13.07    9.51
  17  -3  -6   -8.93   15.37
 -17   3  -6    5.61   14.34
 -17   3  -6  -11.50    9.20
  17  -3   6    7.31   11.26
 -17   3   6   10.07    9.97
  17  -3   6    5.36    7.03
 -17   3   6  -24.53   13.46
 -17   4  -6  -16.02    9.65
 -17   4  -6  -18.49   14.54
  17  -4   6   10.57   12.08
  17  -4   6    1.67    7.03
 -17   5  -6   11.79   14.48
 -17   5  -6   20.31    9.86
  17  -5   6    0.35   12.99
  17  -5   6   -6.58    6.99
 -17   6  -6   13.95   10.09
 -17   6  -6   20.36   14.07
  17  -6   6   -9.57   14.24
  17  -6   6    0.29    6.96
 -17   7  -6   31.08   14.16
 -17   7  -6    2.18   10.34
  17  -7   6  -25.22   16.22
 -18  -5  -6  -29.81   16.54
  18   5   6  -25.66    8.53
  18   4  -6   -0.36    6.01
  18   4  -6    2.61    6.62
 -18  -4  -6   11.22   14.42
  18   4   6    4.92    7.43
  18   4   6   -2.16    7.60
 -18  -4   6   18.97   10.55
 -18  -4   6    7.62   13.31
  18   3  -6    1.67    6.25
 -18  -3  -6  -23.62   13.31
  18   3  -6    6.81    6.52
  18   3   6   -9.26    7.47
 -18  -3   6   -0.27    9.18
  18   3   6    0.23    7.21
 -18  -3   6   16.93   12.81
  18   2  -6    4.43    6.49
 -18  -2  -6  -19.78   12.75
 -18  -2  -6  -41.05   16.74
  18   2  -6    1.01    7.53
 -18  -2   6    2.68    8.79
  18   2   6    0.27    7.59
 -18  -2   6  -17.26   13.50
  18   2   6  -20.83    7.77
 -18  -1  -6  -16.09   16.40
  18   1  -6   -1.67    8.92
 -18  -1  -6    1.43   11.62
  18   1  -6   -2.24    6.34
  18   1   6    0.53    7.01
 -18  -1   6  -14.98   13.46
 -18  -1   6   14.87    9.12
  18   1   6    8.12    8.09
 -18   0  -6    0.95   10.88
  18   0  -6   11.60    6.33
  18   0  -6    9.95   11.29
 -18   0   6  -19.37   13.59
 -18   0   6    1.23    9.35
  18   0   6  -14.62    8.55
  18  -1  -6   -8.00    6.30
 -18   1  -6   16.22   10.37
  18  -1  -6   -7.15   12.64
 -18   1   6   10.43   10.02
  18  -1   6    2.92    9.55
 -18   1   6   27.73   13.74
  18  -2  -6    3.32    6.57
 -18   2  -6   12.64   10.66
  18  -2  -6    5.14   14.55
 -18   2  -6   -9.39   15.68
  18  -2   6   -0.30   11.11
 -18   2   6   10.98   13.94
 -18   2   6   12.00   10.30
  18  -2   6   -9.59    7.40
 -18   3  -6  -15.46   16.38
  18  -3  -6   16.80   15.83
 -18   3  -6   -2.27   10.59
 -18   3   6  -11.64   13.50
 -18   3   6   -3.05   10.75
  18  -3   6    0.30    7.95
  18  -3   6  -22.91   12.56
 -18   4  -6  -15.64   16.17
 -18   4  -6  -10.60   10.63
  18  -4   6   -0.36   13.60
  18  -4   6    4.59    7.74
 -18   5  -6   -3.13   11.38
 -18   5  -6    7.03   16.77
  18  -5   6  -15.22   17.37
 -18   6  -6   -5.85   11.48
 -18   6  -6  -15.51   16.65
 -18   7  -6    4.23   11.66
 -18   7  -6   22.86   15.04
  18  -7   6    0.44   16.67
 -19  -5  -6  -16.16   15.64
  19   5   6    0.31    8.52
 -19  -4  -6   13.05   16.38
  19   4   6    0.61    8.49
 -19  -4   6   37.95   14.99
  19   4   6    3.81    8.24
 -19  -3  -6   23.97   18.70
 -19  -3  -6    3.79   16.03
  19   3  -6   -4.34    7.22
  19   3  -6   -1.88    7.23
 -19  -3   6   10.63   10.70
  19   3   6   -2.88    8.29
  19   3   6    0.31    8.44
 -19  -3   6  -16.31   14.09
 -19  -2  -6  -24.53   17.86
 -19  -2  -6   -7.60   14.55
  19   2  -6   -6.32    8.30
  19   2  -6   -4.62    6.94
 -19  -2   6    5.00   10.28
 -19  -2   6  -14.80   15.35
  19   2   6  -21.74    9.65
  19   2   6    6.59    8.16
  19   1  -6  -26.74    7.82
 -19  -1  -6   -5.26   13.98
  19   1  -6  -13.99   10.59
 -19  -1  -6   -4.01   18.01
 -19  -1   6  -30.94   11.31
 -19  -1   6    1.93   14.95
  19   0  -6  -28.23   12.91
 -19   0  -6  -17.92   14.59
  19   0  -6   -5.48    7.54
 -19   0   6   -2.73   15.34
 -19   0   6   -5.53   10.95
  19  -1  -6  -12.03   14.48
  19  -1  -6   -7.61    7.38
 -19   1  -6  -12.48   12.93
 -19   1   6   14.42   15.60
 -19   1   6    2.80   10.94
 -19   2  -6    6.80   18.09
  19  -2  -6   -5.14   15.54
  19  -2  -6    3.65    7.01
 -19   2  -6  -19.78   12.18
 -19   2   6   -5.31   14.62
  19  -2   6  -19.01   12.52
 -19   2   6    6.42   11.28
 -19   3  -6  -18.08   12.43
 -19   3  -6   -7.25   18.62
  19  -3  -6    3.90   16.72
  19  -3   6   -1.39   13.24
 -19   3   6   30.35   11.45
 -19   3   6    1.60   14.40
  19  -3   6    0.33    8.59
 -19   4  -6    2.21   12.04
 -19   4  -6   23.74   19.04
  19  -4   6   -0.34    8.25
  19  -4   6  -13.73   14.80
 -19   5  -6  -36.34   18.69
 -19   5  -6   10.11   12.06
  19  -5   6   23.84   15.93
  19  -5   6   -0.35    8.53
 -19   6  -6    8.42   12.58
 -19   6  -6   -1.84   17.46
  19  -6   6   10.71   16.98
 -20  -3   6   20.00   16.70
 -20  -3   6   -4.70   12.76
 -20  -2  -6   -5.90   16.18
  20   2  -6    0.31    7.51
  20   2  -6    3.63    8.82
 -20  -2   6  -11.71   11.88
 -20  -2   6   13.15   16.25
  20   2   6   -0.89   10.06
  20   1  -6   -5.42   10.25
 -20  -1  -6   12.23   16.64
  20   1  -6   -7.49    8.03
  20   1   6   13.75   10.43
 -20  -1   6    9.38   11.51
 -20  -1   6   -2.19   16.18
 -20   0  -6   -0.85   14.87
  20   0  -6   -7.62    8.13
  20   0  -6   28.53   12.60
  20   0   6   13.81   11.23
 -20   0   6   10.00   11.98
 -20   0   6   -8.36   15.68
 -20   1  -6   -9.17   13.75
  20  -1  -6   -4.92   14.42
  20  -1  -6   10.63    7.87
 -20   1   6    0.31   12.10
  20  -1   6   -6.77   11.85
 -20   1   6  -21.65   17.42
  20  -2  -6   12.80   16.55
 -20   2  -6   -8.21   13.78
  20  -2  -6   -3.36    7.87
 -20   2   6    3.20   12.06
 -20   2   6    3.38   16.68
  20  -2   6    0.35   12.71
  20  -3  -6  -27.90   18.56
 -20   3   6   -8.68   13.37
  21   2  -6   -6.80    9.72
  21   2  -6   -0.34    7.61
 -21  -2   6  -24.12   13.32
  21   1  -6   -7.82   11.45
 -21  -1   6  -14.14   13.31
   0   0  -7   -0.34    0.52
   0   0  -7    0.06    1.11
   0   0   7    0.19    0.37
   1   0  -7    5.43    2.80
  -1   0  -7    6.06    2.24
   0   1  -7    4.95    2.04
   1   0  -7    8.68    2.19
   0   1  -7    9.53    2.48
   0  -1   7   10.42    1.86
  -1   0   7   11.99    2.00
  -1   1  -7    0.38    1.01
  -1   1  -7    0.16    0.94
   1   1  -7   -0.19    0.90
   1   1  -7    0.44    0.56
  -1   1  -7    0.12    0.49
  -1  -1   7    0.23    0.40
   1  -1   7    0.07    0.35
   1  -1   7   -0.26    0.42
   2   1  -7    7.41    2.15
  -1   2  -7    4.98    1.75
  -1   2  -7    6.78    1.94
  -1   2  -7    4.80    1.72
  -1   2  -7    6.21    1.79
   1  -2   7    5.97    1.53
  -2  -1   7    6.83    1.50
   1  -2   7    4.62    1.93
   1  -2   7    6.99    1.75
   2   0  -7    0.07    1.41
   0   2  -7    0.14    0.84
  -2   0  -7   -0.13    0.49
   0   2  -7   -0.13    0.69
   0  -2   7    0.12    0.49
   2   0   7   -0.23    0.69
  -2   0   7    0.04    0.48
  -2   1  -7    7.03    2.23
  -2   1  -7    7.48    2.04
  -2   1  -7    6.65    1.78
   1   2  -7    6.90    1.80
   1   2  -7    6.42    2.03
   2  -1   7    6.47    1.96
  -1  -2   7    6.18    1.63
   2  -1   7    6.89    1.62
   2  -1   7    6.84    1.73
  -2   2  -7   -0.40    0.69
  -2   2  -7   -0.09    0.79
   2   2  -7    0.09    1.05
  -2   2  -7   -0.47    0.83
   2  -2   7   -0.39    0.73
   2  -2   7    0.18    0.46
   2  -2   7    0.27    1.29
  -2  -2   7    0.11    0.57
  -2   3  -7  118.56   31.92
  -2   3  -7  146.24   37.38
   3   2  -7  129.44   33.99
  -2   3  -7  120.54   35.25
   3   2  -7  147.78   34.83
   3   2  -7  122.63   35.52
   2  -3   7  149.29   35.07
  -3  -2   7  127.27   35.11
  -3  -2   7  142.82   29.59
   2  -3   7  128.80   30.73
   2  -3   7  115.68   37.58
  -3  -2   7  127.06   34.52
   3   1  -7   15.14    3.61
   3   1  -7   16.87    4.62
   3   1  -7   10.31    4.27
  -1   3  -7   11.64    3.66
  -1   3  -7   16.17    4.00
   1  -3   7   14.88    3.44
  -3  -1   7   14.68    3.33
   1  -3   7   14.66    4.50
  -3   0  -7   32.13   17.43
   0   3  -7   38.83   15.45
   3   0  -7   76.59   20.32
   3   0  -7   79.10   16.55
   0   3  -7   74.81   17.25
   3   0   7   53.17   15.90
   3   0   7   77.57   14.66
  -3   1  -7   16.18    3.94
  -3   1  -7   14.75    3.80
   1   3  -7   16.68    4.00
  -3   1  -7   15.09    4.85
   1   3  -7   15.45    3.70
   3  -1   7   10.60    3.99
   3  -1   7   14.84    3.59
  -1  -3   7   14.88    3.46
   3  -1   7   13.39    3.66
  -3   2  -7  121.95   31.03
   2   3  -7  131.78   33.74
  -3   2  -7  123.55   33.89
   3  -2   7  123.67   32.73
   3  -2   7  115.23   34.64
   3  -2   7  133.90   29.32
  -3   3  -7   -0.03    0.90
  -3   3  -7   -0.18    2.06
   3   3  -7   -0.23    0.60
  -3   3  -7   -0.12    1.24
   3  -3   7   -0.35    0.56
   3  -3   7   -0.12    2.59
   3  -3   7   -0.09    1.23
  -3  -3   7   -0.79    1.54
  -3   4  -7   64.40   16.85
   4   3  -7   59.85   14.34
  -3   4  -7   58.26   15.36
   4   3  -7   53.38   13.38
   4   3  -7   35.85   15.56
   4   3  -7   62.96   13.08
  -4  -3   7   53.92   15.36
   3  -4   7   42.74   12.98
   3  -4   7   58.60   16.17
  -4  -3   7   59.63   12.78
   4   2  -7    1.00    0.94
   4   2  -7    0.77    1.38
  -2   4  -7    0.59    1.50
  -2   4  -7    0.58    1.11
  -4  -2   7    0.67    1.17
   2  -4   7    0.05    0.76
  -4  -2   7    0.43    1.80
  -4  -1  -7    0.81    5.32
  -1   4  -7   18.05    4.65
   4   1  -7   12.15    5.44
   4   1  -7   21.23    4.47
  -1   4  -7   17.32    4.93
   1  -4   7   18.91    4.08
  -4  -1   7   18.72    5.37
   0   4  -7   -0.08    1.03
  -4   0  -7    0.86    2.00
   4   0  -7    1.52    1.97
  -4   0   7    0.65    0.74
   4   0   7   -0.24    1.63
   4   0   7   -1.14    0.99
  -4   1  -7   20.52    4.70
  -4   1  -7   13.85    4.95
   4  -1   7   16.34    5.06
   4  -1   7   21.30    4.59
  -4   2  -7    0.37    1.52
  -4   2  -7    1.08    0.95
  -4   2  -7    0.41    0.89
   4  -2   7    0.77    1.27
   4  -2   7    0.49    0.47
   4  -2   7    0.75    2.30
  -2  -4   7    0.90    0.88
   4  -2   7    0.52    0.46
  -4   3  -7   64.38   14.06
  -4   3  -7   45.84   14.97
   3   4  -7   49.65   13.45
  -4   3  -7   48.10   14.58
   3   4  -7   56.19   14.42
   3   4  -7   64.19   13.74
  -3  -4   7   60.53   13.08
   4  -3   7   59.78   14.24
   4  -3   7   54.84   15.96
   4  -3   7   58.18   13.13
   4   4  -7    0.10    1.81
   4   4  -7    0.29    0.84
   4   4  -7    0.65    1.48
  -4   4  -7    0.31    0.99
  -4  -4   7   -0.60    0.97
   4  -4   7    0.45    3.47
   5   4  -7   29.48    8.34
   5   4  -7   37.51    8.84
   5   4  -7   31.37    8.18
  -5  -4   7   39.02    8.03
   5   3  -7   34.08    9.22
   5   3  -7   28.36    8.41
   5   3  -7   34.08    9.84
   5   3  -7   36.03    8.60
  -5  -3   7   29.45    8.03
  -5  -3   7   38.85    9.81
   5   2  -7   87.78   21.43
   5   2  -7   81.38   22.11
   5   2  -7   81.56   20.26
  -5  -2   7   84.32   22.44
  -5  -2   7   80.00   18.88
  -5  -2   7   98.27   21.43
   5   1  -7    0.35    1.27
   5   1  -7    0.96    2.40
  -5  -1   7    1.70    2.45
   5   1   7    1.34    1.21
   5   0  -7  136.87   50.96
  -5   0   7  152.91   45.28
   0  -5   7  188.83   37.32
   1   5  -7    1.99    2.06
  -5   1  -7    1.17    0.57
   1   5  -7    2.29    1.29
  -1  -5   7    0.84    1.05
  -5   2  -7   83.07   21.73
   2   5  -7   94.34   21.99
   2   5  -7   79.69   21.10
  -5   2  -7   89.41   25.47
   5  -2   7   74.14   20.08
  -2  -5   7  101.19   19.56
   5  -2   7   84.69   20.05
  -5   3  -7   36.00    9.53
   3   5  -7   33.29    9.22
  -5   4  -7   31.02    9.56
   4   5  -7   33.98    8.76
   4   5  -7   35.25    8.54
  -5   4  -7   30.89    9.70
   4   5  -7   33.49    8.61
   5  -4   7   43.80    8.79
  -4  -5   7   33.26    7.91
   5   5  -7   -0.32    1.20
   5   5  -7   -0.57    2.49
  -5   5  -7   -0.93    3.93
   5   5  -7    0.19    1.68
  -5  -5   7   -0.22    1.16
   5  -5   7   -1.23    4.63
   6   5  -7    2.40    2.95
   6   5  -7    4.14    2.26
  -6  -5   7    4.52    1.67
   6   4  -7   12.85    7.51
   6   4  -7   20.32    6.41
   6   4  -7   28.49    6.12
   6   4  -7   25.62    6.76
  -6  -4   7   29.24    6.03
  -6  -4   7   14.23    8.07
   6   3  -7   49.67   11.32
   6   3  -7   40.20   11.67
   6   3  -7   46.47   10.49
   6   3  -7   42.26   10.72
  -6  -3   7   47.54   10.02
  -6  -3   7   40.41   10.25
  -6  -3   7   58.16   11.80
   6   2  -7   36.28   11.55
   6   2  -7   40.32   10.67
   6   2  -7   44.89   11.60
   6   2  -7   33.79   11.06
  -6  -2   7   50.58    9.79
  -6  -2   7   51.84   11.29
   6   2   7   52.35    9.64
  -6  -2   7   36.98   11.74
   6   1  -7   10.44    4.66
  -6  -1  -7    5.42    4.67
   6   1  -7   11.73    3.51
   6   1  -7   14.07    4.31
   6   1   7   17.87    3.35
   6   1   7   16.39    4.00
  -6  -1   7   12.59    3.23
   6   0  -7    0.44    1.03
  -6   0  -7    0.38    2.22
   6   0   7    0.06    1.45
   6   0   7   -1.02    2.07
   6  -1  -7    9.57    3.77
  -6   1  -7   12.67    4.07
   6  -1   7   20.62    4.46
   6  -1   7   15.01    3.75
  -1  -6   7   12.04    3.49
  -6   2  -7   42.11   11.34
  -6   2  -7   41.08   10.71
   2   6  -7   32.60   10.70
   2   6  -7   39.21   10.91
   6  -2   7   43.83   10.60
   6  -2   7   41.06   11.72
  -2  -6   7   38.40    9.74
  -6   3  -7   38.69   10.22
  -6   3  -7   32.67   10.90
   6  -3   7   48.50   11.89
   6  -3   7   35.64   10.09
   4   6  -7   22.16    7.24
  -6   4  -7   15.80    7.68
  -6   4  -7   30.52    7.74
   4   6  -7   27.04    6.95
   6  -4   7   22.39    6.97
  -4  -6   7   31.98    6.25
   6  -4   7   28.92    8.93
   5   6  -7    3.16    2.88
  -6   5  -7    3.33    4.41
   5   6  -7    4.02    2.19
  -5  -6   7    6.76    1.86
   6  -5   7   -0.14    5.29
   6  -5   7    4.06    2.54
   6   6  -7    0.19    2.92
   6   6  -7   -0.52    2.08
   6  -6   7    0.16    5.43
  -6  -6   7   -0.79    1.47
   7   6  -7    5.99    2.66
   7   6  -7    9.80    3.89
   7   6  -7    8.17    3.09
  -7  -6   7    8.35    2.48
   7   5  -7    0.64    1.66
   7   5  -7    3.49    2.80
   7   5  -7    0.07    2.19
  -7  -5   7    2.27    1.47
  -7  -5   7    4.96    4.02
   7   4  -7   28.52    7.19
   7   4  -7   22.64    6.90
   7   4  -7   28.85    6.67
  -7  -4   7   28.86    6.50
   7   3  -7   18.51    6.51
   7   3  -7   20.73    6.16
   7   3  -7   11.69    6.01
  -7  -3   7   20.65    5.34
  -7  -3   7   26.19    5.57
   7   2  -7   36.27   11.79
   7   2  -7   36.59   12.13
   7   2  -7   41.70   12.82
  -7  -2  -7   12.93   13.36
  -7  -2   7   46.37   10.67
  -7  -2   7   56.11   12.50
   7   2   7   50.72   11.82
   7   2   7   65.02   10.46
   7   1  -7   -0.20    1.35
  -7  -1  -7    1.05    3.38
   7   1  -7    0.82    2.32
   7   1  -7   -1.05    1.84
  -7  -1   7    0.15    3.35
   7   1   7    2.57    2.36
  -7  -1   7    0.68    1.06
   7   1   7   -0.42    1.60
   7   0  -7    1.37    4.22
  -7   0  -7    1.96    2.45
   7   0  -7    2.28    1.96
   7   0  -7    1.70    1.37
   7   0  -7    2.40    2.89
  -7   0   7    2.57    1.24
  -7   0   7    5.71    3.82
   7   0   7    3.56    2.38
   7   0   7    0.98    1.78
   7  -1  -7   -3.72    5.11
   7  -1  -7    0.24    1.09
  -7   1  -7    1.09    2.31
   7  -1   7   -0.88    1.87
  -7   1   7    4.90    3.89
   7  -1   7   -0.97    3.12
  -7   2  -7   49.17   13.59
  -7   2  -7   55.03   12.93
   7  -2   7   54.38   14.10
   7  -2   7   45.09   12.72
  -7   3  -7   29.21    7.75
  -7   3  -7   26.21    7.63
   7  -3   7   22.69    8.83
   7  -3   7   37.68    7.00
  -7   4  -7   25.58    7.58
  -7   4  -7   23.70    7.86
   7  -4   7   28.00    9.11
   7  -4   7   29.76    7.01
  -7   5  -7   -0.50    4.42
   5   7  -7    0.16    1.99
   7  -5   7    0.99    2.38
   7  -5   7   -3.52    5.72
  -5  -7   7    0.13    1.80
   6   7  -7    9.23    2.94
  -6  -7   7    4.41    2.53
   7  -6   7    5.15    6.32
   7   7  -7   -0.17    2.17
   7   7  -7    1.83    2.40
  -7  -7   7   -0.13    1.95
   8   7  -7   23.95    6.46
   8   7  -7   28.41    6.75
  -8  -7   7   17.59    6.08
   8   6  -7   -0.21    3.45
   8   6  -7    2.77    2.12
   8   6  -7   -1.73    2.50
  -8  -6   7   -1.09    1.75
   8   5  -7    0.34    2.98
   8   5  -7    1.06    1.90
   8   5  -7    2.74    3.16
   8   5  -7    2.14    2.44
  -8  -5   7    0.84    4.87
  -8  -5   7    0.64    1.58
   8   4  -7   12.19    3.66
   8   4  -7   10.04    3.81
   8   4  -7   10.60    3.23
   8   4  -7   12.79    3.68
  -8  -4   7   13.83    2.94
  -8  -4   7    6.93    2.89
  -8  -4   7    5.41    4.68
   8   3  -7   -0.53    2.19
  -8  -3  -7    1.91    4.76
   8   3  -7    0.86    2.17
   8   3  -7    1.50    1.94
   8   3  -7   -0.07    2.46
  -8  -3   7    0.13    1.27
  -8  -3   7   -1.21    2.60
   8   3   7    0.56    1.92
  -8  -3   7    0.82    1.32
  -8  -2  -7   16.84    7.81
   8   2  -7   16.49    6.68
   8   2  -7   26.03    6.15
   8   2  -7   27.84    6.17
   8   2  -7   24.01    6.77
   8   2   7   16.70    6.33
  -8  -2   7   25.17    6.80
   8   2   7   30.04    5.48
  -8  -2   7   20.69    7.02
  -8  -2   7   19.19    5.42
   8   1  -7    7.97    3.06
   8   1  -7    8.09    4.56
   8   1  -7    8.59    3.71
  -8  -1  -7    5.90    4.25
   8   1  -7   10.23    2.86
   8   1   7   12.93    3.55
  -8  -1   7    9.50    3.69
   8   1   7   10.13    2.85
  -8  -1   7    9.61    4.67
  -8  -1   7    5.21    2.49
  -8   0  -7    2.03    3.14
   8   0  -7    0.59    3.22
   8   0  -7    2.74    4.58
   8   0  -7    1.15    1.48
   8   0  -7    1.19    2.09
  -8   0   7    1.44    1.26
   8   0   7    3.35    2.88
  -8   0   7    0.63    4.15
   8   0   7   -0.08    2.09
   8  -1  -7   13.93    3.32
  -8   1  -7    6.12    3.79
   8  -1  -7   10.64    2.87
   8  -1  -7   15.45    6.50
   8  -1   7    7.54    3.47
  -8   1   7    5.11    5.28
   8  -1   7   17.56    4.44
   8  -2  -7   20.39    9.79
  -8   2  -7   28.09    7.27
  -8   2  -7   17.64    6.83
   8  -2   7   19.01    6.26
   8  -2   7   23.28    7.51
  -8   3  -7    0.19    4.32
  -8   3  -7    0.96    3.02
   8  -3   7    1.03    2.25
   8  -3   7    1.75    4.79
  -8   4  -7    8.53    5.44
   8  -4   7    9.61    3.65
   8  -4   7   12.40    6.49
  -8   5  -7    1.06    5.15
   8  -5   7   -0.24    2.78
   8  -5   7   -0.50    6.28
  -8   6  -7    0.32    5.22
   8  -6   7   -1.89    6.98
   9   8  -7   73.19   20.09
   9   7  -7    9.09    3.75
   9   7  -7    8.07    3.32
  -9  -7   7    6.82    3.06
   9   6  -7   25.07    5.61
   9   6  -7   15.25    6.04
   9   6  -7   18.52    6.62
  -9  -6   7   19.53    5.19
   9   5  -7   11.62    4.01
   9   5  -7   10.27    3.61
   9   5  -7   15.31    4.65
   9   5  -7    7.85    4.56
  -9  -5   7    6.17    6.47
  -9  -5   7   11.21    3.22
   9   4  -7    2.02    2.18
   9   4  -7   -0.58    2.56
   9   4  -7   -0.58    2.74
   9   4  -7    3.54    2.64
  -9  -4   7    0.67    1.51
  -9  -4   7   -2.52    3.81
  -9  -4   7    0.54    1.60
   9   3  -7    4.12    2.43
   9   3  -7    5.59    2.89
   9   3  -7    3.97    2.60
  -9  -3  -7    3.85    5.56
   9   3  -7    2.62    2.71
   9   3   7    4.99    3.49
  -9  -3   7    2.24    1.59
  -9  -3   7    6.96    3.22
  -9  -3   7    1.88    1.56
   9   3   7    2.27    2.39
  -9  -3   7    4.28    4.31
   9   2  -7    0.57    2.15
   9   2  -7    1.55    3.30
  -9  -2  -7   -0.18    4.75
   9   2  -7    0.34    2.72
   9   2  -7   -0.30    2.16
  -9  -2   7   -1.68    4.25
   9   2   7    0.10    3.02
   9   2   7   -1.96    2.14
  -9  -2   7   -0.06    1.27
  -9  -2   7   -0.29    2.82
  -9  -2   7    0.34    1.20
  -9  -1  -7    4.51    3.68
   9   1  -7    2.52    4.08
   9   1  -7    4.83    2.41
   9   1  -7    0.90    3.17
   9   1  -7    1.71    1.96
   9   1   7    3.38    2.94
   9   1   7    2.19    2.28
  -9  -1   7    4.96    3.06
  -9  -1   7    1.82    1.42
  -9  -1   7    4.81    4.42
   9   0  -7    0.08    1.68
   9   0  -7   -2.31    3.47
   9   0  -7    9.67    5.15
   9   0  -7    1.33    2.39
  -9   0  -7    4.03    3.09
   9   0   7    1.99    2.47
   9   0   7    2.86    3.13
  -9   0   7    2.36    4.70
  -9   0   7   -0.16    1.52
   9  -1  -7    0.23    2.47
   9  -1  -7    8.04    6.24
   9  -1  -7    2.84    1.71
  -9   1  -7    3.18    3.04
  -9   1   7   -0.28    4.92
   9  -1   7    0.20    2.72
   9  -1   7    1.70    3.97
   9  -2  -7   -1.09    7.14
  -9   2  -7    3.92    3.25
   9  -2  -7    0.81    1.58
  -9   2  -7   -0.63    5.18
   9  -2   7   -6.38    4.61
   9  -2   7    1.57    2.69
  -9   3  -7   -0.22    4.91
  -9   3  -7    2.99    3.69
   9  -3   7    6.60    5.27
   9  -3   7    2.01    2.68
  -9   4  -7    0.25    5.28
   9  -4   7   -0.97    6.23
   9  -4   7    1.53    2.71
  -9   5  -7   10.04    6.43
   9  -5   7    4.60    7.77
   9  -5   7   17.55    4.36
  -9   6  -7   10.46    7.99
   9  -6   7    8.97    9.41
   9  -6   7   30.75    6.06
   9  -7   7    4.07    8.45
  10   8  -7   -1.16    3.62
  10   7  -7   37.53    6.68
  10   7  -7   24.42    7.02
 -10  -7   7   10.31    6.10
  10   6  -7   18.24    4.51
  10   6  -7   14.29    5.38
  10   6  -7   12.74    4.08
 -10  -6   7   11.07    3.55
 -10  -6   7  -10.27    7.76
  10   5  -7    2.68    2.93
  10   5  -7   -1.27    3.58
  10   5  -7    1.64    2.65
  10   5  -7    1.57    3.76
 -10  -5   7    3.03    2.01
 -10  -5   7    5.66    5.86
 -10  -5   7    3.85    1.84
  10   4  -7   11.87    5.08
  10   4  -7   20.13    5.12
  10   4  -7   12.37    5.08
  10   4  -7   10.84    4.73
 -10  -4   7   26.28    6.16
 -10  -4   7   17.10    4.20
 -10  -4   7   13.82    4.04
  10   3  -7    1.44    2.91
 -10  -3  -7   -0.48    5.86
  10   3  -7    1.03    2.56
  10   3  -7    2.19    2.49
  10   3  -7   -1.00    3.14
 -10  -3   7    1.68    3.33
 -10  -3   7   -1.46    5.03
 -10  -3   7    0.07    1.50
 -10  -3   7    0.23    1.42
  10   3   7    3.27    3.69
  10   2  -7   -0.20    3.87
  10   2  -7    3.46    2.77
  10   2  -7    3.82    3.32
  10   2  -7    7.31    2.70
 -10  -2  -7    6.96    5.42
 -10  -2   7    5.01    3.48
  10   2   7    4.59    2.73
 -10  -2   7    0.19    4.86
 -10  -2   7    4.40    1.83
  10   2   7    5.06    3.54
 -10  -2   7    4.49    1.78
  10   1  -7   11.42    5.94
  10   1  -7   18.14    4.91
  10   1  -7   25.06    5.03
  10   1  -7   17.08    6.50
 -10  -1  -7   24.91    6.20
 -10  -1   7   11.80    6.71
  10   1   7   17.20    4.67
 -10  -1   7   14.25    5.95
  10   1   7    6.21    5.31
 -10  -1   7   17.80    4.51
  10   0  -7    0.51    1.98
 -10   0  -7   -0.35    3.81
  10   0  -7   -1.22    5.83
  10   0  -7    0.57    2.60
  10   0  -7    0.14    3.99
  10   0   7   -0.42    3.66
  10   0   7    6.88    2.90
 -10   0   7    2.89    5.36
 -10   0   7   -0.17    1.66
  10  -1  -7   13.62    5.21
  10  -1  -7   18.90    5.03
 -10   1  -7   24.04    6.01
  10  -1  -7    3.82    8.85
  10  -1   7   21.76    5.46
 -10   1   7   19.51    7.51
  10  -1   7   22.69    6.57
  10  -2  -7   -1.62    8.18
 -10   2  -7    6.00    6.20
  10  -2  -7    6.72    2.22
 -10   2  -7    3.27    4.11
 -10   2   7    7.66    6.05
  10  -2   7    8.90    5.55
  10  -2   7    8.43    3.44
 -10   3  -7   -5.87    4.09
 -10   3  -7   -0.50    5.72
  10  -3   7    1.56    3.06
  10  -3   7    2.86    5.80
 -10   4  -7   15.37    6.03
 -10   4  -7   10.55    7.41
  10  -4   7   22.17    8.34
  10  -4   7   14.29    5.01
 -10   5  -7    3.79    6.47
  10  -5   7   -8.00    3.72
  10  -5   7  -16.31    8.26
 -10   6  -7    6.50    7.38
  10  -6   7   14.89    9.10
  10  -6   7   14.53    4.77
  10  -7   7   21.83   11.22
  11   8  -7   17.23    6.04
  11   7  -7    3.48    3.85
 -11  -7   7    2.82    2.77
  11   6  -7    7.35    3.72
  11   6  -7    4.12    3.42
  11   6  -7    5.86    4.46
 -11  -6   7    6.04    7.40
 -11  -6   7    4.79    2.51
  11   5  -7   27.20    7.38
  11   5  -7   19.83    7.53
  11   5  -7   28.26    6.91
  11   5  -7   17.44    7.35
 -11  -5   7   12.43    9.92
 -11  -5   7   24.06    6.17
 -11  -5   7   27.09    6.15
  11   4  -7    4.23    3.22
 -11  -4  -7    3.79    7.04
  11   4  -7   -1.80    3.12
  11   4  -7    0.88    3.31
  11   4  -7   -2.85    3.54
 -11  -4   7    3.82    1.81
 -11  -4   7    1.96    1.74
 -11  -4   7   -3.30    4.52
  11   3  -7   17.85    6.89
  11   3  -7   11.18    7.22
  11   3  -7   22.84    7.24
  11   3  -7    7.65    6.82
 -11  -3  -7   36.93   10.23
 -11  -3   7    7.91    6.17
 -11  -3   7    9.15    5.59
 -11  -3   7   13.48    8.51
 -11  -3   7   20.19    7.97
  11   2  -7   27.25    6.85
  11   2  -7   22.00    7.51
 -11  -2  -7    8.02    9.13
  11   2  -7   25.43    7.72
  11   2  -7   25.07    6.96
 -11  -2   7   35.84    7.86
 -11  -2   7   27.99    6.15
  11   2   7   29.80    6.47
 -11  -2   7   17.30    8.54
 -11  -2   7   29.81    6.39
  11   1  -7    2.69    3.83
  11   1  -7    2.31    2.98
 -11  -1  -7   -5.26    5.05
  11   1  -7    0.21    2.58
  11   1  -7    4.72    4.94
  11   1   7   -0.98    3.64
 -11  -1   7    2.05    1.80
 -11  -1   7    6.03    5.93
 -11  -1   7    6.00    3.93
  11   1   7   -1.08    3.15
  11   0  -7   36.65   11.76
  11   0  -7   50.65   12.16
  11   0  -7   28.86   15.86
 -11   0  -7   63.39   12.76
  11   0  -7   26.62   14.65
 -11   0   7   53.80   13.92
  11   0   7   51.19   11.57
  11   0   7   59.22   12.38
 -11   0   7   62.76   13.70
 -11   0   7   51.35   13.22
 -11   1  -7    1.90    4.56
 -11   1  -7    3.35    7.23
  11  -1  -7    0.81    7.35
  11  -1  -7    1.20    2.00
  11  -1  -7    0.70    3.37
  11  -1   7  -11.06    5.49
  11  -1   7   -5.16    3.66
 -11   1   7   -2.32    6.69
  11  -2  -7    8.61   11.33
 -11   2  -7  -12.07    8.41
 -11   2  -7   17.39    9.53
 -11   2   7   27.51    8.94
  11  -3   7  232.71   37.99
 -11   4  -7    1.71    4.87
 -11   4  -7    2.82    7.06
  11  -4   7   -3.83    7.48
  11  -4   7   -5.99    3.67
 -11   5  -7   22.85    9.94
  11  -5   7   36.19    7.77
  11  -5   7   23.73   11.33
 -11   6  -7    2.72    7.34
  11  -6   7    1.18    8.95
  11  -6   7    5.92    4.04
  11  -7   7   -0.26    9.82
  12   8  -7    1.63    4.45
  12   7  -7    9.09    4.74
  12   6  -7   -3.84    3.95
  12   6  -7   -5.50    4.48
  12   6  -7   -1.34    3.32
  12   6  -7   -1.62    4.49
 -12  -6   7    2.01    2.48
 -12  -6   7    2.49    2.39
 -12  -6   7    5.62    8.04
  12   5  -7    5.66    4.63
  12   5  -7    4.52    4.24
  12   5  -7    6.26    4.16
  12   5  -7    5.36    3.91
 -12  -5   7    8.89    2.76
 -12  -5   7    0.62    6.92
 -12  -5   7    9.32    2.68
  12   4  -7   -2.54    3.46
  12   4  -7   -0.24    3.34
 -12  -4  -7    0.63    7.97
 -12  -4   7    1.81    1.90
 -12  -4   7    1.89    4.90
 -12  -4   7   -5.51    6.68
 -12  -4   7    0.90    1.97
  12   3  -7   29.37    8.49
 -12  -3  -7   18.12   11.41
  12   3  -7   30.28    8.91
 -12  -3   7   23.86   10.17
 -12  -3   7   30.62    9.75
 -12  -3   7   31.06    7.39
 -12  -3   7   34.30    7.98
  12   3   7   27.62    8.65
  12   2  -7   -0.48    3.32
 -12  -2  -7    0.42    6.12
  12   2  -7    1.95    4.77
 -12  -2   7    3.56    6.44
  12   2   7   -4.62    4.28
 -12  -2   7   -2.46    4.22
  12   1  -7   87.71   24.94
 -12  -1  -7   95.84   24.08
  12   1  -7   82.23   21.82
  12   1   7   76.46   22.02
  12   1   7   70.68   20.54
 -12  -1   7   69.55   23.49
 -12  -1   7  104.61   25.59
 -12   0  -7    7.88    5.30
  12   0  -7   -0.14    3.63
  12   0  -7    1.58    6.78
 -12   0   7   -5.84    7.02
  12   0   7    0.79    4.96
 -12   0   7   -3.18    4.91
  12   0   7    3.56    4.15
 -12   1  -7   83.20   24.31
  12  -1  -7   77.88   22.11
 -12   1  -7  124.96   24.73
  12  -1  -7   28.84   29.22
 -12   1   7  117.44   25.55
 -12   2  -7    9.99    5.41
  12  -2  -7   -0.53    9.60
 -12   2  -7   -0.63    7.94
  12  -2  -7    1.66    3.87
  12  -2   7   18.92    7.30
 -12   2   7   -2.44    7.53
  12  -2   7    8.81    4.36
  12  -3  -7   11.55   15.55
 -12   3  -7   48.32   10.91
 -12   3  -7   35.25   11.78
  12  -3   7   39.35    9.38
  12  -3   7   30.20   12.13
 -12   4  -7    3.38    5.54
 -12   4  -7   -5.32    8.14
  12  -4   7    0.21    8.05
  12  -4   7   17.07    4.28
 -12   5  -7   12.47    6.44
  12  -5   7   11.84    9.75
 -13  -6   7   -6.76    9.63
  13   5  -7    2.09    4.89
  13   5  -7    4.01    4.84
 -13  -5   7    0.22    7.97
  13   4  -7   -0.32    3.82
  13   4  -7   -0.14    4.05
 -13  -4   7    3.39    5.69
  13   4   7   -3.23    3.93
 -13  -4   7    2.97    7.59
  13   3  -7   -6.59    4.10
  13   3  -7    2.37    3.48
 -13  -3   7   -3.31    7.20
 -13  -3   7    2.43    4.83
  13   2  -7   16.15    5.75
  13   2  -7   16.23    6.85
 -13  -2   7   17.99    6.97
 -13  -2   7   24.73    8.82
  13   1  -7    4.55    3.90
  13   1  -7   -3.12    6.07
 -13  -1   7   -5.71    7.60
 -13  -1   7   -0.40    5.05
  13   0  -7   39.90   11.71
  13   0  -7   29.79   15.16
 -13   0   7   54.86   14.41
 -13   0   7   62.93   14.48
  13  -1  -7    1.85    3.78
  13  -1  -7   -8.00    9.17
 -13   1   7   -2.39    8.05
  13  -2  -7   13.34    5.79
  13  -2  -7   16.36   11.94
 -13   2   7   28.76    9.59
  13  -3  -7    2.87   11.21
 -13   4  -7   -7.21    9.54
  13  -4   7   -6.98    4.88
 -13   5  -7   59.33   10.38
 -13   5  -7    9.06   11.99
  13  -5   7   57.68   12.67
 -13   6  -7   -1.88    8.97
  13  -6   7   -3.22    5.38
 -13   7  -7   -9.65    9.74
  13  -7   7   11.54   11.63
  14   5  -7   -0.65    4.50
 -14  -5   7   -6.80    8.16
  14   4  -7   25.79    5.13
 -14  -4  -7  -13.90   10.44
  14   4  -7    2.44    5.19
  14   4   7   12.93    6.00
  14   4   7    5.94    5.13
 -14  -4   7    8.40    7.22
  14   3  -7    7.08    4.13
 -14  -3  -7   -5.91    9.49
  14   3  -7   -8.19    5.21
 -14  -3   7    3.63    5.98
  14   3   7    0.98    5.11
  14   3   7    7.10    4.65
  14   2  -7   12.27    4.36
 -14  -2  -7   17.07    8.25
  14   2  -7    8.12    6.54
 -14  -2   7    0.59    5.95
  14   2   7   -2.80    5.40
 -14  -1  -7    0.87    7.47
  14   1  -7   -0.52    7.12
  14   1   7  -13.20    5.64
  14   1   7    0.18    4.98
 -14  -1   7    5.17    5.90
 -14   0  -7    2.79   11.88
 -14   0  -7   -3.44    7.32
  14   0   7  -19.21    6.09
  14   0   7  -14.41    6.90
 -14   1  -7   -3.35    7.20
 -14   1  -7  -22.58   17.40
  14  -2  -7  -12.74    5.39
 -14   2  -7    2.88    6.85
 -14   2  -7    8.21   11.21
  14  -2   7   -2.83    9.14
 -14   2   7  -10.11    9.88
 -14   3  -7   -3.02    6.90
 -14   3  -7   -3.38   10.03
  14  -3   7   -0.58    5.54
 -14   4  -7    4.52   10.55
 -14   4  -7   11.87    7.44
  14  -4   7    8.95    5.95
  14  -4   7    6.30    9.94
 -14   5  -7    6.72    7.31
 -14   5  -7    3.42   10.17
  14  -5   7   -4.44    5.14
  14  -5   7   -0.53   10.22
 -14   6  -7    9.36   10.64
 -14   6  -7   17.92    8.20
  14  -6   7   14.13    5.89
  14  -6   7   -7.14   11.80
 -14   7  -7    1.11   10.04
  14  -7   7    0.32   12.26
  15   4  -7    0.64    4.07
 -15  -4  -7    7.98   10.62
  15   4  -7    3.33    4.62
 -15  -4   7    2.74    9.28
  15   4   7    0.19    4.90
  15   4   7   -4.06    5.61
 -15  -3  -7   -2.89    9.96
  15   3  -7    5.31    4.52
  15   3   7    6.78    5.62
 -15  -3   7    2.12    8.90
  15   3   7   -7.94    5.06
 -15  -2  -7    8.06    8.71
  15   2  -7   -0.52    4.59
  15   2   7  -11.48    5.84
 -15  -2   7  -10.01    9.31
  15   1  -7    6.77    5.19
 -15  -1  -7   -7.03    8.34
  15   1  -7   27.88    7.79
  15   1   7    3.84    6.24
 -15  -1   7   26.76    6.75
 -15  -1   7    7.67    9.52
 -15   0  -7    7.54    7.28
  15   0  -7   -8.59    8.68
  15   0  -7   -2.49    4.51
 -15   0  -7   -0.44   12.28
 -15   0   7   -8.83   10.11
 -15   0   7   -1.77    6.79
  15   0   7    3.01    6.67
  15   0   7    1.21    5.49
 -15   1  -7   -6.48    7.50
  15  -1  -7   10.64   10.23
 -15   1  -7    9.82   15.20
  15  -1  -7    3.02    4.74
 -15   1   7   -1.45   10.24
  15  -1   7   -7.53    8.88
 -15   1   7    1.69    7.37
  15  -1   7    0.60    5.78
  15  -2  -7   11.11   12.02
  15  -2  -7   -0.64    4.96
 -15   2  -7   -3.22   12.36
 -15   2  -7    4.43    7.17
 -15   2   7  -16.27   10.33
  15  -2   7    4.96    8.87
 -15   2   7    7.72    7.75
  15  -2   7    7.11    5.54
  15  -3  -7   -5.32   13.70
 -15   3  -7    6.95    7.26
 -15   3  -7    8.61   11.56
  15  -3   7   11.55    9.49
  15  -3   7    1.50    5.69
 -15   4  -7   -0.52   12.02
 -15   4  -7    1.01    7.54
  15  -4   7   15.35   10.22
  15  -4   7    2.47    5.95
 -15   5  -7   -2.19   11.93
 -15   5  -7   -6.82    8.64
  15  -5   7   -0.24    6.31
  15  -5   7    0.57   11.35
 -15   6  -7    9.28   12.17
 -15   6  -7   12.71    8.62
  15  -6   7   18.69    6.76
  15  -6   7    0.32   12.83
 -15   7  -7   11.57   10.18
 -15   7  -7    7.97   12.25
  15  -7   7   52.41   14.59
 -16  -4  -7   12.24   12.52
  16   4   7   -5.89    6.35
  16   4   7    0.21    5.98
 -16  -4   7  -42.70   11.95
  16   3  -7   -4.41    5.57
  16   3  -7   -3.50    5.07
 -16  -3  -7   -4.80   11.90
  16   3   7   -6.86    6.13
 -16  -3   7    2.01   10.01
 -16  -3   7   -3.10    7.13
  16   3   7   -8.04    5.73
  16   2  -7    8.75    6.53
 -16  -2  -7    7.89   10.47
 -16  -2   7   -8.48   10.28
 -16  -2   7   10.28    7.38
  16   2   7    0.95    6.07
  16   1  -7   -1.25    7.97
  16   1  -7  -11.67    5.08
 -16  -1  -7    2.31    9.39
 -16  -1   7   -3.36    7.15
 -16  -1   7   -4.59   10.32
  16   1   7    4.09    6.37
  16   0  -7    4.32    9.64
 -16   0  -7  -11.34   13.60
  16   0  -7   -3.57    5.32
 -16   0  -7   -3.53    8.55
  16   0   7  -13.85    6.95
 -16   0   7   -6.37   10.76
  16   0   7  -22.84    6.27
 -16   0   7    7.82    7.89
 -16   1  -7    9.44    8.06
 -16   1  -7    9.59   13.50
  16  -1  -7    6.59    5.26
  16  -1  -7   -1.10   10.92
 -16   1   7    5.60    7.82
 -16   1   7    6.36   11.12
  16  -1   7   -5.07    5.88
  16  -1   7    0.21    7.66
  16  -2  -7    3.25    5.29
  16  -2  -7   15.65   13.26
 -16   2  -7   -3.67    8.23
 -16   2  -7  -13.63   13.36
  16  -2   7   -6.67    6.34
 -16   2   7    2.18    8.72
  16  -2   7    8.16    8.86
 -16   2   7    9.17   10.91
 -16   3  -7    0.55   12.83
  16  -3  -7    3.02   14.28
 -16   3  -7    3.81    8.26
  16  -3   7   -3.53   10.31
  16  -3   7    0.72    6.33
 -16   4  -7   15.83   13.29
 -16   4  -7   12.37    8.83
  16  -4   7    3.02    6.51
  16  -4   7    7.05   11.62
 -16   5  -7   -0.23    8.63
 -16   5  -7   -5.55   13.43
  16  -5   7   -5.57   11.55
  16  -5   7   -0.52    6.35
 -16   6  -7   -2.59    9.12
 -16   6  -7   31.13   13.54
  16  -6   7   -9.14   12.09
  16  -6   7    0.27    6.26
 -16   7  -7    8.23    9.33
 -16   7  -7    1.36   12.13
  16  -7   7    2.92   13.93
 -17  -4  -7   10.59   13.71
  17   4   7    0.24    6.91
  17   4   7   -8.96    7.09
 -17  -4   7   11.90   11.31
  17   3  -7   -0.95    5.98
  17   3  -7    0.83    5.45
 -17  -3  -7   10.21   12.95
 -17  -3   7    6.10    8.20
  17   3   7   12.29    7.00
 -17  -3   7   -5.45   11.23
  17   3   7    7.40    6.61
  17   2  -7   -0.19    7.23
  17   2  -7  -22.32    6.15
 -17  -2  -7   -0.38   11.63
  17   2   7   -7.79    7.02
 -17  -2   7   -6.17    8.16
 -17  -2   7    3.33   11.68
  17   2   7   -5.82    7.21
  17   1  -7   -8.44    8.77
 -17  -1  -7   -1.95    9.90
  17   1  -7   -4.27    5.38
  17   1   7    3.77    6.99
 -17  -1   7    2.11    8.03
 -17  -1   7   37.86   11.76
  17   0  -7    9.96   10.28
 -17   0  -7    4.27    9.56
  17   0  -7    0.46    5.37
 -17   0  -7    1.66   14.84
  17   0   7   -5.38    7.69
 -17   0   7   17.00   12.16
 -17   0   7  -19.01    8.79
  17  -1  -7    0.24    5.66
  17  -1  -7  -21.76   12.00
 -17   1  -7   -0.26    9.09
 -17   1  -7  -16.63   15.13
 -17   1   7    6.42    8.77
  17  -1   7   -7.60    8.43
 -17   1   7    5.30   12.35
  17  -1   7   -7.51    6.18
  17  -2  -7    1.27    5.87
 -17   2  -7  -23.22   15.23
 -17   2  -7   -0.79    9.44
  17  -2   7    2.95    9.89
 -17   2   7   -8.17    9.76
  17  -2   7  -18.00    6.78
 -17   3  -7    3.10   14.71
  17  -3  -7    1.20   16.70
 -17   3  -7    6.09    8.94
  17  -3   7    4.81    6.88
 -17   3   7  -10.47   10.05
  17  -3   7    1.17   10.74
 -17   4  -7   -4.49    9.19
 -17   4  -7   -1.98   14.78
  17  -4   7   -0.28    6.79
  17  -4   7   -4.52   12.03
 -17   5  -7   11.81   14.36
 -17   5  -7   12.19    9.57
  17  -5   7  -19.56   12.93
  17  -5   7   -6.07    6.90
 -17   6  -7   11.98    9.70
 -17   6  -7  -15.27   14.04
  17  -6   7    5.61    7.20
  17  -6   7   -2.90   13.59
 -17   7  -7    3.80   13.78
 -17   7  -7   -6.72   10.53
  17  -7   7  -29.58   15.69
 -18  -4  -7  -19.71   16.51
  18   4   7    2.27    8.17
  18   4   7   -2.99    7.94
 -18  -3  -7   -5.45   14.48
  18   3  -7   -4.04    6.35
  18   3  -7  -10.35    6.18
 -18  -3   7   34.05   12.49
  18   3   7    6.19    7.54
  18   3   7    6.57    7.63
 -18  -3   7   -9.37    9.01
  18   2  -7    5.36    6.36
 -18  -2  -7   -3.88   13.07
  18   2  -7   -5.38    7.48
 -18  -2  -7   20.56   16.91
  18   2   7   -6.48    7.96
  18   2   7    0.27    7.12
 -18  -2   7    1.08   12.73
 -18  -2   7   14.13    8.75
  18   1  -7   -9.66    9.13
 -18  -1  -7    0.73   11.57
  18   1  -7    2.47    5.96
 -18  -1   7    5.75    8.96
  18   1   7    0.23    7.79
 -18  -1   7    4.04   12.53
  18   0  -7   -7.03   10.88
 -18   0  -7    9.74   11.56
  18   0  -7   -7.71    6.17
 -18   0   7  -12.18   13.50
 -18   0   7   -2.91    9.25
  18   0   7    3.37    8.28
  18  -1  -7   -0.53    6.25
 -18   1  -7  -28.13   16.60
  18  -1  -7   -1.93   12.50
 -18   1  -7    6.96   10.63
  18  -1   7    0.77    9.41
  18  -1   7    0.27    7.00
 -18   1   7   27.29   13.53
 -18   1   7  -20.36   10.15
  18  -2  -7    8.01   14.18
 -18   2  -7    4.72   10.51
  18  -2  -7    1.11    6.09
 -18   2  -7  -10.02   16.10
  18  -2   7   -7.42    7.39
  18  -2   7   15.77   10.62
 -18   2   7   -6.92   13.82
 -18   2   7   -9.74   10.13
  18  -3  -7    6.75   16.57
 -18   3  -7   10.39   10.63
 -18   3  -7    4.28   16.31
 -18   3   7   24.41   10.69
  18  -3   7  -24.96   12.19
  18  -3   7   -6.59    7.83
 -18   4  -7   -9.85   11.06
 -18   4  -7  -25.68   17.11
  18  -4   7  -34.76   14.28
  18  -4   7  -27.94    8.64
 -18   5  -7   67.02   67.19
 -18   5  -7  112.09   65.51
  18  -5   7  286.36   54.95
 -18   6  -7  -15.94   12.95
 -18   6  -7  -27.98   17.74
  18  -6   7  -53.17   17.53
  18  -6   7  -29.40    9.86
 -18   7  -7   21.73   11.59
 -18   7  -7   -1.70   16.45
  18  -7   7   -9.99   15.99
 -19  -4  -7   10.66   16.64
  19   4   7   -0.31    8.39
  19   4   7    8.65    8.68
 -19  -3  -7   -8.13   19.11
 -19  -3  -7   -6.09   16.65
  19   3   7    1.54    8.23
  19   3   7    2.17    8.72
 -19  -2  -7  -12.05   18.21
 -19  -2  -7  -17.99   15.44
  19   2  -7    3.85    8.01
  19   2  -7  -20.64    7.23
  19   2   7   16.09    9.21
 -19  -2   7   -4.93   14.39
 -19  -2   7   -4.89    9.62
  19   2   7    6.35    8.68
  19   1  -7   -2.75    6.93
  19   1  -7    5.01    9.52
 -19  -1  -7   13.66   14.91
  19   1   7   -5.03    8.13
 -19  -1   7   10.12   10.32
  19   1   7  -23.98    9.56
 -19  -1   7   -0.64   14.61
 -19   0  -7   -3.80   12.93
  19   0  -7   -0.28    6.97
  19   0  -7   -5.38   11.52
 -19   0   7   -3.41   14.71
 -19   0   7    0.27   10.14
  19   0   7   -7.78    9.91
  19  -1  -7   -0.35   13.31
 -19   1  -7   -9.92   12.40
  19  -1  -7    8.97    6.66
 -19   1  -7   -7.97   18.87
  19  -1   7  -25.00   11.00
 -19   1   7    1.66   10.92
 -19   1   7   -0.72   14.68
 -19   2  -7    6.67   12.24
 -19   2  -7   40.66   18.58
  19  -2  -7   -7.83   15.32
  19  -2   7   15.39   11.47
 -19   2   7   -0.58   11.31
  19  -2   7   -7.72    8.40
 -19   2   7  -21.32   13.75
 -19   3  -7   -8.08   12.15
  19  -3  -7   17.80   17.00
 -19   3  -7  -14.70   18.61
 -19   3   7   17.40   11.73
  19  -3   7    0.69   12.73
  19  -3   7    0.33    8.55
 -19   4  -7  -35.75   18.79
 -19   4  -7   -2.87   11.80
  19  -4   7   -6.84    9.00
  19  -4   7    4.11   14.91
 -19   5  -7   -5.35   18.98
 -19   5  -7    6.67   12.24
  19  -5   7    4.24    8.58
  19  -5   7    2.47   15.85
 -19   6  -7   -4.81   12.08
  19  -6   7    0.36    7.18
  19  -6   7    6.02   16.66
 -20  -2   7    6.89   15.87
 -20  -2   7    2.74   11.08
  20   1  -7   -5.16    7.97
  20   1  -7   -5.27   10.45
 -20  -1   7   11.62   15.97
 -20  -1   7  -18.99   11.71
  20   1   7   -0.30   10.66
  20   0  -7   12.79    7.89
  20   0  -7  -10.72   12.16
  20   0   7  -10.85   10.61
 -20   0   7   25.77   11.82
 -20   0   7   12.14   16.02
  20  -1  -7  -18.17    7.91
  20  -1  -7  -20.52   14.76
 -20   1   7   -2.77   11.88
 -20   1   7   19.22   16.20
  20  -2  -7    6.73   16.46
 -20   2   7   -9.24   15.91
 -20   2   7  -10.12   12.27
  20  -3  -7  -17.93   17.88
 -20   3   7    0.99   12.30
  21   1  -7    1.47   10.95
 -21  -1   7   -6.47   12.48
 -21   0   7  -10.11   13.37
   0   0  -8   48.45   13.40
   0   0  -8   43.34   11.25
   0   0   8   44.06   10.09
  -1   0  -8   -0.16    0.55
   0   1  -8   -0.58    1.14
   0   1  -8   -0.08    0.62
   1   0  -8   -0.08    1.45
   1   0  -8    0.45    0.63
  -1   0   8   -0.08    0.49
   0  -1   8    0.09    0.44
  -1   1  -8   27.79    6.83
   1   1  -8   28.47    6.64
   1   1  -8   29.09    7.64
  -1   1  -8   32.14    7.91
  -1  -1   8   30.31    6.05
   1  -1   8   16.19    6.18
   1  -1   8   27.51    6.33
  -1   2  -8    2.28    0.88
   2   1  -8    1.28    1.47
  -1   2  -8    1.88    1.12
  -1   2  -8    0.88    0.86
  -2  -1   8    0.90    0.66
   1  -2   8    0.96    0.67
   1  -2   8    1.06    0.90
   1  -2   8    1.41    0.62
   0   2  -8    2.41    1.32
   0   2  -8    2.85    1.02
  -2   0  -8    1.86    0.89
   2   0  -8    1.35    1.74
  -2   0   8    2.19    0.82
   0  -2   8    3.12    0.77
   2   0   8    1.59    0.93
  -2   1  -8    1.75    0.75
   1   2  -8    0.49    0.94
   1   2  -8    1.27    1.23
  -2   1  -8    2.24    1.38
  -2   1  -8   -0.11    1.53
   2  -1   8    1.08    1.20
   2  -1   8    1.41    0.75
  -1  -2   8    0.89    0.66
   2  -1   8    1.21    0.55
  -2   2  -8    0.19    0.81
  -2   2  -8    0.41    1.14
   2   2  -8    0.97    1.38
  -2   2  -8    0.55    0.97
   2  -2   8    0.31    1.28
   2  -2   8    0.54    0.83
   2  -2   8    0.79    0.53
  -2  -2   8   -0.27    0.64
  -2   3  -8    1.34    1.88
  -2   3  -8    0.65    1.10
   3   2  -8    1.50    0.76
   3   2  -8    0.82    1.15
  -2   3  -8    2.19    1.24
   2  -3   8    1.83    1.98
   2  -3   8    0.63    0.68
   2  -3   8    0.84    1.08
  -3  -2   8    1.59    0.95
  -3  -2   8    0.92    1.59
  -1   3  -8   23.02    7.35
  -1   3  -8   40.54    8.46
  -1   3  -8   28.65    6.71
   1  -3   8   33.29    7.29
   1  -3   8   33.08    6.38
   1  -3   8   21.78    7.67
  -3   0  -8   -0.14    0.64
   0   3  -8   -0.30    1.19
  -3   0  -8    1.04    2.15
   0   3  -8   -0.43    1.11
   3   0  -8   -0.09    1.81
   3   0   8    0.08    0.88
  -3   0   8   -0.04    0.77
   0  -3   8    0.65    0.63
  -3   1  -8   34.60    7.41
  -3   1  -8   28.29    8.89
  -3   1  -8   28.05    7.27
   3  -1   8   31.16    6.83
   3  -1   8   24.24    6.81
   3  -1   8   30.08    7.16
  -3   2  -8    0.62    1.25
  -3   2  -8    0.47    1.29
  -3   2  -8    1.13    0.95
   3  -2   8    1.26    0.59
   3  -2   8    1.09    1.11
   3  -2   8    0.72    1.85
   3   3  -8  130.33   32.88
   3   3  -8  145.23   30.84
   3   3  -8  140.98   33.86
  -3   3  -8  144.13   31.50
  -3   3  -8  134.15   32.47
  -3   3  -8  123.47   34.66
   3  -3   8  142.40   33.37
   3  -3   8  145.50   30.33
   3  -3   8  123.12   35.67
  -3  -3   8  146.76   29.96
   4   3  -8   37.00    9.28
  -3   4  -8   34.67   11.63
   4   3  -8   38.26    9.78
  -3   4  -8   45.41   10.05
  -3   4  -8   44.07   10.58
   4   3  -8   27.20   11.16
   3  -4   8   47.22   10.22
  -4  -3   8   37.34    8.86
  -4  -3   8   41.76   10.91
   3  -4   8   36.32    8.98
   3  -4   8   34.88   11.50
  -2   4  -8   30.78    7.23
  -2   4  -8   28.73    7.76
   4   2  -8   31.26    6.89
   4   2  -8   22.16    7.64
   4   2  -8   25.97    7.32
  -4  -2   8   34.63    7.91
   2  -4   8   24.13    8.63
   2  -4   8   28.27    6.58
  -4  -2   8   27.24    7.71
   4   1  -8    0.80    0.99
   4   1  -8    0.11    2.28
  -1   4  -8    0.94    1.22
  -4  -1   8   -0.66    2.13
   1  -4   8   -0.05    0.57
  -4   0  -8  106.20   20.49
  -4   1  -8    1.12    0.73
  -4   1  -8    1.76    1.57
   1   4  -8    1.35    1.66
  -1  -4   8    0.36    0.86
   4  -1   8    0.64    1.16
   4  -1   8    1.06    1.76
  -4   2  -8   31.62    6.76
  -4   2  -8   28.78    7.40
   2   4  -8   18.81    6.84
  -4   2  -8   33.63    8.34
   4  -2   8   27.38    7.14
   4  -2   8   24.93    6.28
  -2  -4   8   30.55    6.51
   4  -2   8   19.85    7.70
   4  -2   8   27.19    6.43
  -4   3  -8   47.30    9.78
  -4   3  -8   43.95    9.72
   3   4  -8   37.46    9.37
  -4   3  -8   41.76   10.55
  -4   3  -8   41.97   10.54
   4  -3   8   38.47    9.06
   4  -3   8   23.93   11.08
   4  -3   8   31.53    9.01
   4  -3   8   42.88    9.91
   4   4  -8   31.76    7.95
  -4   4  -8   36.51    9.02
   4   4  -8   28.72    7.85
   4  -4   8   33.01    7.82
   4  -4   8   29.43   10.05
   5   4  -8    1.33    2.06
  -4   5  -8    3.69    1.56
   5   4  -8    2.81    1.26
   5   4  -8    4.10    2.19
   5   4  -8    2.20    1.94
  -5  -4   8    1.87    1.36
  -5  -4   8    0.09    2.97
   5   3  -8   63.48   17.78
   5   3  -8   59.94   16.79
   5   3  -8   63.11   19.68
  -3   5  -8   73.55   19.68
   5   3  -8   89.22   18.47
   3  -5   8   67.71   20.21
  -5  -3   8   80.55   16.50
  -5  -3   8   74.56   19.42
  -5  -3   8   74.01   16.08
   5   2  -8    5.40    2.81
   5   2  -8    8.60    2.41
   5   2  -8    7.53    2.88
   5   2  -8    5.87    2.40
  -5  -2   8   10.57    3.19
  -5  -2   8    6.51    2.64
  -5  -2   8    6.88    2.00
   5   1  -8   74.23   18.33
   5   1  -8   67.99   20.87
   5   1  -8   91.60   17.92
  -5  -1   8   85.61   17.05
   5   1   8   85.36   16.74
  -5  -1   8   68.22   20.40
   5   1   8   85.38   18.20
   5   0  -8   -0.05    1.01
   0   5  -8    1.15    1.87
   5   0  -8    2.31    2.35
   0   5  -8    2.23    1.35
  -5   0   8    1.57    0.96
   0  -5   8    0.06    0.96
   5   0   8   -1.21    1.31
   1   5  -8   67.88   18.48
  -5   1  -8   81.02   18.18
   1   5  -8   81.01   17.40
   5  -1  -8   63.01   18.61
  -1  -5   8   71.43   16.28
   2   5  -8   10.05    2.77
  -5   2  -8    7.68    3.01
  -5   2  -8    9.70    2.41
   2   5  -8    7.56    3.08
   5  -2   8    8.89    2.15
  -2  -5   8   10.22    2.38
   5  -2   8   10.18    2.25
  -5   3  -8   47.00   18.32
   3   5  -8   71.51   17.69
  -5   3  -8   67.84   18.98
  -5   3  -8   71.45   16.90
   5  -3   8   67.87   16.03
   5  -3   8   70.74   17.31
   5  -3   8   72.84   16.45
   4   5  -8    5.90    1.96
   4   5  -8    3.22    2.33
  -5   4  -8    2.96    3.17
  -5   4  -8    3.56    1.42
   4   5  -8    4.01    1.36
  -4  -5   8    3.61    1.41
   5  -4   8    2.84    2.13
  -5   5  -8   34.55   11.46
   5   5  -8   23.37    9.25
   5   5  -8   26.50    9.18
   5   5  -8   44.19    9.80
  -5   5  -8   44.11   10.97
  -5  -5   8   46.23    8.78
   5  -5   8   39.73    9.92
   6   5  -8   23.06    5.07
   6   5  -8   10.82    5.00
   5  -6   8   11.90    6.93
  -6  -5   8   21.57    4.40
   6   4  -8   26.62    6.77
   6   4  -8   17.59    7.00
   6   4  -8   29.56    7.44
  -6  -4   8   25.68    6.45
   6   3  -8   75.47   23.11
   6   3  -8   67.34   21.44
   6   3  -8   77.03   22.27
   6   3  -8   92.34   20.28
  -6  -3   8  103.57   23.31
  -6  -3   8   90.38   21.25
  -6  -3   8   88.92   19.28
   6   2  -8   37.26    8.10
   6   2  -8   35.85    8.53
   6   2  -8   29.51    8.45
   6   2  -8   37.83    7.77
  -6  -2   8   35.86    7.16
  -6  -2   8   35.75    8.59
   6   2   8   29.49    7.14
  -6  -2   8   31.55    8.53
   6   1  -8   10.51    4.02
  -6  -1  -8    2.80    4.16
   6   1  -8   10.10    2.79
   6   1  -8    7.27    3.48
   6   1  -8    7.93    2.70
  -6  -1   8   10.64    2.41
   6   1   8    9.60    2.57
   6   1   8    8.62    3.31
   0   6  -8    5.86    1.67
  -6   0  -8    0.89    0.99
   6   0  -8    6.55    1.46
  -6   0  -8    3.41    2.60
   6   0  -8    3.55    2.67
  -6   0   8    2.69    1.23
   6   0   8    3.30    1.60
   6   0   8    4.55    2.24
   0  -6   8    4.66    1.43
  -6   1  -8    9.02    3.35
   1   6  -8    6.58    3.43
   6  -1  -8   11.05    2.83
  -6   1  -8   10.14    2.49
   1   6  -8    9.86    2.93
   6  -1   8    8.78    3.57
   6  -1   8    8.28    2.94
  -1  -6   8   10.30    2.61
  -6   2  -8   35.74    8.43
   2   6  -8   32.47    8.31
  -6   2  -8   19.46    8.23
   2   6  -8   36.21    8.17
   6  -2   8   34.63    8.09
   6  -2   8   45.82    8.93
   6  -2   8   36.25    7.51
   6  -2   8   25.75    7.87
  -2  -6   8   31.16    7.35
   3   6  -8   89.22   22.10
  -6   3  -8   91.89   23.47
  -6   3  -8   78.40   21.28
  -6   3  -8   76.39   24.53
   6  -3   8   84.48   20.37
   6  -3   8  103.58   24.22
   6  -3   8   99.44   21.67
  -6   4  -8   22.42    8.35
   4   6  -8   35.17    7.83
   4   6  -8   30.67    7.59
  -6   4  -8   27.98    7.99
   6  -4   8   39.11    9.78
  -4  -6   8   25.01    6.83
   5   6  -8   12.78    5.16
   5   6  -8   16.54    4.81
   5   6  -8   21.43    4.66
  -6   5  -8   15.75    6.31
  -6   5  -8   14.98    5.27
   6  -5   8   15.30    4.87
  -5  -6   8   20.40    4.26
   6  -5   8   11.21    7.04
   6   6  -8   -1.15    3.20
   6   6  -8   -0.23    2.16
  -6  -6   8   -0.19    1.52
   6  -6   8    1.35    5.53
   7   6  -8    0.60    3.29
   7   6  -8   -0.06    1.74
   7   6  -8    0.08    2.46
  -7  -6   8    0.60    1.64
   7   5  -8    3.83    2.35
   7   5  -8    1.34    1.62
   7   5  -8    1.73    2.87
  -7  -5   8    1.63    1.50
   7   4  -8   50.13   14.65
   7   4  -8   58.68   13.52
  -7  -4   8   52.89   12.90
  -7  -4   8   59.91   13.16
   7   3  -8   14.56    5.52
   7   3  -8   25.45    6.09
  -7  -3   8   20.10    5.21
  -7  -3   8   15.77    4.98
   7   2  -8   41.43   12.98
   7   2  -8   42.35   11.97
   7   2   8   62.87   12.10
  -7  -2   8   38.52   11.02
  -7  -2   8   53.43   13.07
   7   2   8   60.55   10.86
   7   1  -8   24.15    6.51
  -7  -1  -8   22.11    7.68
   7   1  -8   23.14    6.16
   7   1  -8   25.76    7.43
  -7  -1   8   24.98    5.83
   7   1   8   28.44    6.59
  -7  -1   8   20.26    8.00
   7   1   8   24.37    5.75
  -7   0  -8   -0.36    2.87
   7   0  -8   -1.13    1.46
   7   0  -8  -11.86    4.23
  -7   0  -8   -0.43    0.62
  -7   0   8   -0.93    1.39
  -7   0   8   -7.77    4.82
   7   0   8   -9.10    3.11
   7   0   8   -3.09    2.03
   7  -1  -8   21.19    6.04
  -7   1  -8   29.05    6.62
   7  -1   8   10.06    6.10
   2   7  -8   41.09   10.90
  -7   2  -8   44.50   11.60
   7  -2   8   34.26   10.91
   7  -2   8   23.78   12.55
   3   7  -8   27.63    6.42
  -7   3  -8   19.83    7.06
  -7   3  -8   20.92    7.03
   7  -3   8   27.22    8.03
   7  -3   8   32.78    6.45
  -7   4  -8   42.91   13.95
   4   7  -8   57.94   13.60
   4   7  -8   55.39   13.90
  -4  -7   8   39.03   12.52
   7  -4   8   46.61   13.52
   7  -4   8   62.56   16.19
   5   7  -8    1.43    2.16
   5   7  -8    0.68    3.28
  -7   5  -8    1.90    4.53
   7  -5   8    1.16    5.70
   7  -5   8    4.43    2.59
  -5  -7   8    0.92    1.72
  -7   6  -8   -0.59    4.89
   6   7  -8   -0.23    3.43
   6   7  -8   -0.33    2.29
  -6  -7   8    0.24    1.91
   7  -6   8   -0.65    6.16
   7   7  -8   13.01    3.70
   7   7  -8   10.71    3.96
   7   7  -8   12.78    4.86
   7  -7   8   13.26    7.50
  -7  -7   8    9.95    3.50
   8   7  -8    1.63    2.93
   8   7  -8    1.26    3.92
  -8  -7   8    0.26    2.11
   8   6  -8    4.01    4.08
   8   6  -8   11.21    2.97
   8   6  -8    8.73    3.52
  -8  -6   8    7.10    2.79
   8   5  -8   -4.69    2.56
   8   5  -8    2.29    3.07
   8   5  -8    0.50    3.13
   8   5  -8   -0.13    1.86
  -8  -5   8    1.45    1.61
  -8  -5   8   -1.48    4.68
   8   4  -8    0.98    2.47
   8   4  -8    1.34    2.41
   8   4  -8   -0.51    1.88
   8   4  -8   -1.75    2.67
  -8  -4   8   -1.51    3.45
  -8  -4   8   -0.77    1.61
  -8  -4   8    1.12    1.41
   8   3  -8   52.99   14.21
   8   3  -8   51.58   13.55
   8   3  -8   47.75   14.24
   8   3  -8   59.90   13.12
  -8  -3   8   48.19   12.11
  -8  -3   8   58.79   12.82
  -8  -3   8   46.35   13.80
   8   2  -8    2.96    3.01
   8   2  -8   -0.07    1.94
  -8  -2  -8    2.11    4.62
   8   2  -8    0.09    1.94
   8   2  -8    1.30    2.61
   8   2   8    2.81    2.88
  -8  -2   8    2.62    2.43
  -8  -2   8    1.04    1.28
  -8  -2   8    2.75    3.80
   8   2   8    1.72    1.97
  -8  -1  -8   11.50    5.68
   8   1  -8    8.05    5.28
   8   1  -8   20.22    4.50
   8   1  -8   15.93    5.81
   8   1  -8   12.77    4.29
   8   1   8   20.52    4.10
  -8  -1   8   18.02    5.93
  -8  -1   8   11.72    3.92
   8   1   8   15.64    4.71
  -8   0  -8    9.83    4.09
   8   0  -8    8.09    4.76
   8   0  -8   18.18    3.42
   8   0  -8   18.38    5.72
   8   0  -8    8.22    3.11
  -8   0   8    8.09    3.10
   8   0   8    9.98    3.80
  -8   0   8   10.65    5.19
   8   0   8   12.75    3.28
   8  -1  -8   22.41    7.91
  -8   1  -8   19.44    5.29
   8  -1  -8   20.94    4.58
   8  -1   8   14.06    4.72
  -8   1   8   18.20    6.38
   8  -1   8   15.22    5.48
  -8   2  -8    0.56    4.52
  -8   2  -8    0.84    2.87
   8  -2   8    3.43    3.96
   8  -2   8   -0.09    2.37
  -8   3  -8   53.01   13.52
  -8   3  -8   52.28   14.59
   8  -3   8   46.13   13.12
   8  -3   8   42.57   15.30
  -8   4  -8   -0.21    4.48
   8  -4   8    1.36    2.70
   8  -4   8   -0.14    5.68
  -8   5  -8   -1.02    5.21
   8  -5   8   -0.59    2.88
   8  -5   8   -1.60    6.28
  -8   6  -8    6.47    6.02
   8  -6   8    9.25    3.67
   8  -6   8    6.40    7.10
   7   8  -8   -1.07    2.75
   8  -7   8    6.21    7.20
   8   8  -8   32.31    9.30
   9   8  -8   -4.65    3.49
   9   7  -8   36.40    9.36
   9   7  -8   33.28    9.69
  -9  -7   8   31.64    8.28
   9   6  -8    2.44    4.18
   9   6  -8    5.23    3.40
   9   6  -8    7.36    2.79
  -9  -6   8    5.01    2.43
   9   5  -8   -0.30    3.30
   9   5  -8    1.95    3.25
   9   5  -8   -0.09    2.91
   9   5  -8   -1.06    2.27
  -9  -5   8   -1.06    5.29
  -9  -5   8    2.28    1.82
  -9  -5   8    1.05    1.68
   9   4  -8    1.33    3.22
   9   4  -8    2.98    3.13
   9   4  -8    7.04    3.07
   9   4  -8    2.90    2.53
  -9  -4   8    6.74    2.08
  -9  -4   8    5.10    2.06
  -9  -4   8    5.45    3.92
   9   3  -8    6.28    3.34
   9   3  -8    4.92    2.82
   9   3  -8    3.70    2.75
   9   3  -8    6.52    3.30
  -9  -3  -8   -4.28    5.73
  -9  -3   8    8.73    2.06
  -9  -3   8    5.52    2.03
  -9  -3   8    5.51    3.38
  -9  -3   8    6.75    4.44
   9   3   8    8.21    2.62
   9   2  -8    0.73    2.14
   9   2  -8    0.25    2.16
   9   2  -8    0.28    2.82
   9   2  -8   -2.12    3.25
  -9  -2  -8   -0.40    5.06
  -9  -2   8   -1.19    1.33
  -9  -2   8   -1.41    4.24
   9   2   8    1.05    2.17
  -9  -2   8    0.36    2.77
   9   2   8   -0.97    3.22
   9   1  -8    0.38    2.24
   9   1  -8    1.36    2.12
   9   1  -8    1.08    3.30
   9   1  -8   -4.90    4.16
  -9  -1  -8    1.50    4.33
  -9  -1   8   -0.63    4.68
  -9  -1   8    0.92    1.41
   9   1   8   -0.84    2.34
  -9  -1   8    3.14    3.10
   9   1   8    0.47    2.96
   9   0  -8   -2.54    3.96
   9   0  -8   -1.92    2.49
  -9   0  -8   -0.77    3.42
   9   0  -8   -6.57    5.45
   9   0  -8    1.55    1.74
   9   0   8   -1.73    3.12
  -9   0   8    2.26    4.94
   9   0   8    0.48    2.51
  -9   0   8   -0.42    1.50
  -9   1  -8   -0.70    3.34
   9  -1  -8    0.75    1.64
   9  -1  -8    0.47    2.42
   9  -1  -8   -3.81    6.50
   9  -1   8    1.52    2.45
  -9   1   8   -4.10    5.06
   9  -1   8    3.19    3.78
   9  -2  -8    3.16    7.33
  -9   2  -8   -0.21    5.24
  -9   2  -8   -1.15    3.44
   9  -2   8   -3.21    4.59
   9  -2   8    1.07    2.84
  -9   3  -8    3.24    5.19
  -9   3  -8    3.49    3.90
   9  -3   8    5.95    3.12
   9  -3   8   10.02    5.47
  -9   4  -8    5.76    5.41
  -9   4  -8    4.94    3.96
   9  -4   8    3.66    3.30
   9  -4   8   19.46    6.53
  -9   5  -8    0.28    5.47
   9  -5   8    3.87    3.26
   9  -5   8   -9.32    6.94
  -9   6  -8    2.29    6.59
   9  -6   8    7.60    7.77
   9  -6   8   12.13    3.81
   9  -7   8   12.47   11.30
  10   8  -8   27.92    8.45
  10   7  -8   10.39    5.73
  10   7  -8   11.72    4.75
 -10  -7   8   14.47    3.89
  10   6  -8    7.26    4.85
  10   6  -8   10.98    4.07
 -10  -6   8   -3.13    7.20
 -10  -6   8    9.83    3.05
  10   5  -8   21.12    8.82
  10   5  -8   34.13    9.91
  10   5  -8   27.00    9.47
 -10  -5   8   24.88    8.27
 -10  -5   8   23.54    8.18
 -10  -5   8   34.34   12.75
  10   4  -8    0.16    2.92
  10   4  -8   -1.84    2.97
  10   4  -8    1.70    2.59
  10   4  -8    1.45    3.52
 -10  -4   8    1.01    1.74
 -10  -4   8   -2.90    4.09
 -10  -4   8    1.31    1.69
  10   3  -8    3.50    2.45
  10   3  -8   -0.68    3.31
  10   3  -8    1.08    3.09
 -10  -3  -8   -1.78    6.28
  10   3  -8   -0.13    2.70
 -10  -3   8    0.46    3.30
 -10  -3   8    0.07    1.54
  10   3   8   -0.13    3.74
 -10  -3   8    2.74    4.96
  10   3   8    2.22    2.73
 -10  -3   8    2.63    1.65
  10   2  -8    3.80    4.28
 -10  -2  -8    6.30    6.24
  10   2  -8    6.95    3.14
  10   2  -8    6.90    3.16
  10   2  -8    5.56    3.82
 -10  -2   8    7.22    2.42
  10   2   8    6.28    3.97
  10   2   8   11.29    3.17
 -10  -2   8   10.73    3.85
 -10  -2   8    7.86    5.32
 -10  -2   8    6.04    2.28
  10   1  -8   -4.71    2.35
  10   1  -8   -0.36    3.62
 -10  -1  -8   -2.01    4.64
  10   1  -8    0.11    2.73
  10   1  -8   10.68    4.86
 -10  -1   8    3.17    3.42
  10   1   8   -1.05    2.67
 -10  -1   8    2.12    5.32
  10   1   8    0.10    3.33
 -10  -1   8    1.97    1.65
 -10   0  -8   15.61    6.08
  10   0  -8   17.30    5.35
  10   0  -8   13.00    7.23
  10   0  -8   25.70    8.13
  10   0  -8   19.85    5.13
 -10   0   8   17.12    7.49
 -10   0   8   21.86    5.28
  10   0   8   18.75    5.79
  10   0   8   17.65    5.18
  10  -1  -8   -1.58    7.21
  10  -1  -8    1.85    1.91
  10  -1  -8    0.78    2.86
 -10   1  -8   -2.62    3.94
  10  -1   8    0.70    3.08
 -10   1   8   -0.32    5.69
  10  -1   8   -4.43    4.36
  10  -2  -8   -3.09    8.30
 -10   2  -8    9.90    6.37
 -10   2  -8   12.76    4.43
  10  -2  -8    8.99    2.80
  10  -2   8    9.67    3.71
  10  -2   8    1.35    5.61
 -10   3  -8    6.46    4.23
 -10   3  -8   -0.51    6.09
  10  -3   8    4.69    5.85
  10  -3   8   -2.64    3.12
 -10   4  -8   -0.54    6.19
 -10   4  -8    1.63    4.31
  10  -4   8   -0.84    6.78
  10  -4   8    1.72    3.39
  10  -5   8  105.38   19.04
  10  -5   8  108.64   21.27
 -10   6  -8    4.56    6.90
  10  -6   8    2.70    8.67
  10  -6   8   12.49    4.25
  10  -7   8    2.11    9.10
  11   8  -8    6.52    4.50
  11   7  -8    4.69    5.23
  11   7  -8    5.28    3.99
 -11  -7   8    3.84    2.82
  11   6  -8    5.56    5.08
  11   6  -8   11.98    4.49
 -11  -6   8    9.64    3.21
 -11  -6   8   10.96    3.34
  11   5  -8    2.91    3.84
  11   5  -8    3.49    3.10
  11   5  -8    0.20    4.14
  11   5  -8   -0.99    3.77
 -11  -5   8    1.07    1.92
 -11  -5   8    6.38    6.03
 -11  -5   8    2.65    2.16
  11   4  -8    8.15    3.35
  11   4  -8   10.31    3.80
  11   4  -8    3.06    3.61
  11   4  -8    1.68    3.44
 -11  -4   8    3.27    5.97
 -11  -4   8    5.07    2.33
 -11  -4   8    5.14    4.82
 -11  -4   8    5.37    2.23
  11   3  -8    3.63    3.18
  11   3  -8    2.74    3.50
 -11  -3  -8    1.61    7.00
  11   3  -8    1.19    3.56
  11   3  -8    7.35    3.08
  11   3   8   -3.20    4.48
 -11  -3   8    4.37    1.90
  11   3   8    2.72    3.25
 -11  -3   8    3.96    5.65
 -11  -3   8    1.76    4.02
 -11  -3   8    7.26    1.94
  11   2  -8   10.76    5.14
  11   2  -8   10.20    6.25
  11   2  -8    3.81    5.06
  11   2  -8    8.97    5.86
 -11  -2  -8   31.15    8.59
 -11  -2   8    6.61    4.48
 -11  -2   8   17.96    6.19
 -11  -2   8    8.23    7.25
 -11  -2   8    7.76    4.26
  11   1  -8   42.22   10.82
 -11  -1  -8   48.84   11.03
  11   1  -8   33.27    9.35
  11   1  -8   35.23   10.75
  11   1  -8   38.96    9.14
 -11  -1   8   39.79   10.96
  11   1   8   27.01    8.76
 -11  -1   8   36.89   10.56
 -11  -1   8   31.96    9.12
  11   0  -8   -0.33    6.43
  11   0  -8    1.95    3.02
  11   0  -8   -1.80    2.52
  11   0  -8    0.17    4.77
 -11   0   8   -1.34    1.93
 -11   0   8   -0.31    6.48
  11  -1  -8   34.30    8.97
  11  -1  -8   11.46   13.09
  11  -1  -8   36.34    8.76
 -11   1   8   46.68   11.62
  11  -1   8   36.00   10.79
 -11   3  -8    1.91    4.72
 -11   3  -8    2.60    7.31
 -11   4  -8   16.66    5.34
 -11   4  -8    7.72    7.36
  11  -4   8    3.84    4.13
  11  -4   8    2.74    7.25
 -11   5  -8   -0.67    5.26
 -11   5  -8    0.34    7.53
  11  -5   8    0.63    4.02
  11  -5   8   -0.21    8.15
 -11   6  -8   10.71    7.80
  11  -6   8    3.86    4.39
  11  -6   8   11.51    9.38
 -11   7  -8    7.25    7.77
  11  -7   8   -1.74    9.45
  12   8  -8   -1.80    4.59
  12   7  -8    3.81    4.38
 -12  -7   8    0.17    2.95
 -12  -7   8   -3.26    2.86
  12   6  -8    2.92    4.89
  12   6  -8    3.49    3.97
 -12  -6   8    4.17    2.48
 -12  -6   8   -1.61    2.71
  12   5  -8    0.94    3.63
  12   5  -8   -1.93    3.82
  12   5  -8   -3.01    3.98
  12   5  -8    2.01    4.31
 -12  -5   8   -0.69    2.04
 -12  -5   8   -0.10    2.21
 -12  -5   8   -1.62    6.40
  12   4  -8   -4.72    3.53
  12   4  -8    2.69    3.76
  12   4  -8    0.18    3.72
  12   4  -8    1.98    3.43
 -12  -4   8    3.25    6.44
 -12  -4   8    2.84    5.05
 -12  -4   8    1.30    1.93
 -12  -4   8    0.91    1.97
 -12  -3  -8    2.03    7.66
  12   3  -8    2.07    3.27
  12   3  -8   -1.74    3.95
  12   3  -8    2.25    3.60
  12   3  -8    6.20    3.76
 -12  -3   8    2.94    2.00
  12   3   8    2.23    4.46
 -12  -3   8    3.20    2.01
 -12  -3   8   -0.96    6.23
 -12  -3   8    6.21    4.41
  12   2  -8   37.27   11.65
 -12  -2  -8   24.54   12.95
  12   2  -8   45.55   10.55
  12   2   8   69.44    9.86
 -12  -2   8   32.71   10.03
  12   2   8   37.63   10.72
 -12  -2   8   49.09   12.03
 -12  -2   8   33.18   10.25
 -12  -2   8   36.89   12.25
  12   1  -8   -5.01    5.81
  12   1  -8   -3.22    3.35
 -12  -1  -8    8.56    6.16
 -12  -1   8   -2.06    6.76
 -12  -1   8    2.34    4.56
  12   1   8   -6.50    4.45
  12   1   8    0.41    3.56
 -12   0  -8  109.40   24.33
  12   0  -8   83.11   27.55
  12   0   8   70.35   23.06
 -12   0   8   92.56   25.11
 -12   0   8   88.70   27.17
  12   0   8   85.55   21.71
 -12   1  -8    0.32    8.90
  12  -1  -8    3.94    8.32
 -12   1  -8  -13.13    5.56
  12  -1  -8    1.70    3.49
 -12   1   8    1.13    7.49
  12  -1   8    1.05    4.08
  12  -1   8   -3.40    5.68
  12  -2  -8    7.70   15.98
 -12   2  -8   56.76   12.06
 -12   2  -8   40.52   13.42
  12  -2   8   54.30   10.66
 -12   2   8   38.39   13.47
  12  -2   8   25.85   12.64
 -12   3  -8    6.00    8.13
 -12   3  -8    7.00    5.45
  12  -3   8    5.19    4.22
  12  -3   8    1.46    7.14
 -12   4  -8   18.20    8.04
  12  -4   8   -4.93    7.86
 -12   5  -8    1.05    5.93
  12  -5   8  -12.36    8.59
 -12   7  -8   -2.76    8.58
 -13  -5   8   -7.43    7.94
  13   4  -8   -5.47    3.94
 -13  -4  -8    8.37    8.82
  13   4  -8    3.10    3.62
 -13  -4   8    1.31    7.40
 -13  -4   8    2.52    5.50
  13   3  -8    4.79    5.10
  13   3  -8    0.90    4.35
 -13  -3  -8   45.91    8.57
 -13  -3   8    1.65    7.54
 -13  -3   8    0.53    5.63
  13   2  -8    0.67    5.26
  13   2  -8   -1.66    3.64
  13   2   8    1.21    4.02
 -13  -2   8    0.29    7.07
 -13  -2   8   -0.13    4.87
  13   1  -8   31.43    8.29
  13   1  -8   33.40   10.37
 -13  -1   8   22.34   11.00
 -13  -1   8   40.81    9.92
  13   0  -8   -0.63    4.01
  13   0  -8    3.38    7.36
 -13   0   8   -1.99    5.61
 -13   0   8    5.94    7.87
  13  -1  -8   31.30    7.68
  13  -1  -8   25.42   12.49
 -13   1   8   15.68   11.16
  13  -2  -8    3.13   10.80
 -13   2   8    1.83    8.02
  13  -3  -8   -0.33   12.67
  13  -3   8    6.09    5.09
 -13   4  -8   -1.19    9.15
  13  -4   8    0.37    4.59
 -13   5  -8    6.85    6.27
 -13   5  -8    0.86    9.58
  13  -5   8   -7.55    5.20
  13  -5   8  -20.10    9.82
 -13   6  -8    6.49    9.53
 -13   6  -8   -3.75    6.59
  13  -6   8   11.87   10.56
  13  -6   8    1.41    4.94
 -13   7  -8   -5.52    9.12
  13  -7   8   17.92   11.65
  14   4  -8    2.96    4.23
 -14  -4  -8    0.38    9.70
  14   4  -8    5.76    4.08
 -14  -4   8    4.72    6.32
 -14  -3  -8    7.12    9.50
  14   3  -8    9.01    5.08
  14   3  -8    1.45    4.44
  14   3   8    0.34    5.30
 -14  -3   8    3.72    5.74
 -14  -3   8   38.32    7.97
 -14  -2  -8   -3.44    8.71
  14   2  -8    7.68    4.14
 -14  -2   8   -3.85    5.59
  14   2   8    6.64    5.45
  14   2   8   -3.73    4.71
 -14  -1  -8   28.15   13.32
  14   1  -8   35.44   13.46
 -14  -1   8    6.74   13.00
  14   1   8   20.88   10.27
  14   1   8   63.84   11.48
 -14   0  -8   38.76   10.94
  14   0   8   36.40   10.23
 -14   1  -8   54.29   14.12
 -14   1  -8    6.51   20.07
 -14   2  -8   -9.40    7.07
 -14   2  -8   -0.41   11.41
  14  -2   8   -7.93    5.86
 -14   2   8   -2.97    9.31
  14  -3  -8  -14.98   13.24
 -14   3  -8    0.54    6.74
 -14   3  -8    7.66   11.06
  14  -3   8    8.29    5.55
  14  -3   8    4.71    9.03
 -14   4  -8    5.94   10.69
 -14   4  -8    3.99    7.03
  14  -4   8   -5.99    5.16
  14  -4   8  -15.36    9.69
 -14   5  -8   11.68   10.35
 -14   5  -8    0.74    7.73
  14  -5   8    3.42    5.73
  14  -5   8   22.53   10.34
 -14   6  -8    9.81   10.34
 -14   6  -8    3.22    7.42
  14  -6   8   11.54    5.46
  14  -6   8   -0.84   11.01
 -14   7  -8   -3.31   10.12
  14  -7   8   18.67   12.60
 -15  -4  -8    9.86   10.89
 -15  -4   8   -7.40    8.87
  15   4   8    3.86    5.22
 -15  -3  -8    3.35   10.38
  15   3  -8   -0.50    4.56
  15   3   8    4.83    5.71
 -15  -3   8   -8.42    9.08
  15   2  -8    1.56    4.60
 -15  -2  -8    6.67    9.54
 -15  -2   8   -0.75    9.20
  15   2   8   10.00    5.90
  15   1  -8    1.46    4.77
 -15  -1  -8    0.79    8.39
  15   1   8    3.59    5.95
  15   1   8    0.20    5.56
 -15  -1   8    6.61    9.45
  15   0  -8    8.97    8.89
 -15   0  -8   23.56   12.81
  15   0  -8   -1.35    4.72
 -15   0  -8   -2.99    8.02
 -15   0   8   -1.40    6.87
 -15   0   8    3.61    9.86
  15   0   8    0.20    5.40
  15   0   8   12.51    6.50
  15  -1  -8   13.93   10.68
 -15   1  -8   -4.90    7.69
 -15   1  -8  -28.85   15.57
  15  -1  -8   -2.62    4.90
  15  -1   8  -11.06    7.70
 -15   1   8   -2.06    7.36
 -15   1   8   22.19    9.88
  15  -1   8  -18.73    6.13
 -15   2  -8   10.53    7.32
 -15   2  -8   -8.02   12.13
  15  -2  -8   -2.53   12.34
  15  -2   8   -1.86    5.47
  15  -2   8   -7.51    8.41
 -15   2   8  -16.11   10.22
  15  -3  -8   -7.25   13.42
 -15   3  -8    0.60    7.27
 -15   3  -8   -6.81   12.02
  15  -3   8   14.28    9.29
  15  -3   8   -4.35    5.73
 -15   4  -8    7.76   12.02
 -15   4  -8   -0.20    7.67
  15  -4   8   22.51   10.12
  15  -4   8    0.23    5.79
 -15   5  -8   -3.30    8.03
 -15   5  -8   -1.64   11.65
  15  -5   8   -3.03   10.94
  15  -5   8    0.95    5.52
 -15   6  -8   -2.91   11.86
 -15   6  -8   -5.05    8.20
  15  -6   8   -3.66    5.89
  15  -6   8    1.20   11.38
 -15   7  -8   11.01    8.70
 -15   7  -8   11.62   11.66
  15  -7   8    8.24    6.25
  15  -7   8   -9.39   13.21
 -16  -4  -8   -6.74   12.77
  16   4   8   17.11    6.95
  16   4   8    5.84    6.32
 -16  -3  -8  -10.28   12.41
  16   3   8   -8.55    6.98
 -16  -2  -8   14.50   10.78
  16   2  -8    8.43    5.11
  16   2  -8    7.43    6.65
  16   2   8    3.75    6.47
 -16  -2   8  -10.73   10.40
 -16  -2   8    0.19    6.98
  16   1  -8   -6.00    5.13
 -16  -1  -8    8.60    9.50
  16   1  -8    3.69    7.97
  16   1   8  -12.37    6.27
 -16  -1   8  -18.60   10.41
 -16  -1   8   -0.18    7.25
  16   1   8    9.51    6.49
  16   0  -8   -1.90    5.14
  16   0  -8   -9.98    9.34
 -16   0  -8  -11.54   13.49
 -16   0  -8   16.52    8.72
 -16   0   8   -0.50   10.35
  16   0   8    0.58    6.84
  16   0   8    0.22    6.30
 -16   0   8  -12.38    7.81
  16  -1  -8    7.67   11.17
 -16   1  -8   10.70   13.30
 -16   1  -8   -3.82    8.26
  16  -1  -8    1.98    5.14
 -16   1   8   -7.82    7.92
  16  -1   8   14.90    7.98
  16  -1   8    0.44    6.20
 -16   1   8    2.16   10.80
 -16   2  -8  -11.09   13.48
 -16   2  -8    4.27    8.37
  16  -2  -8   -4.04   13.30
  16  -2   8  -12.22    9.06
  16  -2   8  -10.25    6.22
 -16   2   8    2.60    8.67
 -16   2   8   -1.75   11.26
 -16   3  -8  -10.48    8.68
  16  -3  -8  -28.88   15.52
 -16   3  -8  -10.09   13.55
  16  -3   8  -18.19   10.77
  16  -3   8    0.24    6.79
 -16   4  -8    6.54   14.26
 -16   4  -8    5.59    8.81
  16  -4   8   13.59    7.00
  16  -4   8    9.76   11.14
 -16   5  -8   -4.99   13.45
 -16   5  -8    8.87    8.72
  16  -5   8  -19.58    6.76
  16  -5   8   -0.31   11.65
 -16   6  -8    3.95    9.13
 -16   6  -8    1.96   13.59
  16  -6   8   13.47   12.47
  16  -6   8    4.85    6.57
 -16   7  -8   -3.35    8.99
 -16   7  -8   15.67   12.81
  16  -7   8    7.49   13.51
 -17  -4  -8  -25.70   13.79
  17   4   8   -7.24    6.78
  17   4   8   -0.24    6.91
 -17  -3  -8   -5.93   12.84
  17   3   8   -7.84    6.92
 -17  -3   8   33.34   10.71
  17   3   8   -0.24    6.37
  17   2  -8   -5.16    5.65
 -17  -2  -8    8.70   11.85
  17   2  -8    5.14    6.99
 -17  -2   8   29.21   11.61
  17   2   8    3.72    7.21
 -17  -2   8    0.21    7.54
 -17  -1  -8    6.74   11.23
  17   1  -8   -4.02    5.58
  17   1  -8    8.33    8.53
 -17  -1  -8    1.67   15.10
 -17  -1   8  -15.19    8.15
  17   1   8   -3.82    7.10
 -17  -1   8   -7.23   11.74
 -17   0  -8    2.43   10.10
  17   0  -8  -16.33   10.32
  17   0  -8   -5.55    5.63
 -17   0  -8  -11.75   15.34
  17   0   8    0.24    6.73
 -17   0   8   -3.88   11.70
  17   0   8  -19.56    7.70
 -17   0   8    9.17    8.47
  17  -1  -8  -13.43    5.61
 -17   1  -8   13.89    9.37
 -17   1  -8  -19.00   15.40
  17  -1  -8   10.24   11.98
  17  -1   8   -3.21    8.11
  17  -1   8    0.25    6.54
 -17   1   8   -1.81    9.02
 -17   1   8   -7.11   12.62
 -17   2  -8   -0.60   14.83
 -17   2  -8    7.69    9.24
  17  -2  -8  -45.11   17.34
 -17   2   8  -37.58   14.88
  17  -2   8  -14.85    9.68
 -17   2   8  -22.83    9.60
  17  -2   8    0.26    6.98
 -17   3  -8   -6.32   14.80
 -17   3  -8   -6.99    9.08
 -17   3   8   -0.74    9.87
  17  -3   8    3.18   10.41
  17  -3   8    7.04    7.14
 -17   4  -8  -10.59    9.70
 -17   4  -8   22.83   15.22
  17  -4   8    5.26   11.75
  17  -4   8   13.53    7.33
 -17   5  -8  -11.37    9.61
 -17   5  -8   14.06   15.13
  17  -5   8    7.91    7.09
 -17   6  -8    5.14   14.54
 -17   6  -8   -1.81    9.61
  17  -6   8   -8.04    6.97
  17  -6   8    2.09   13.21
 -17   7  -8  -35.09   16.07
 -17   7  -8   -0.53   10.42
 -18  -4  -8  -26.77   17.57
 -18  -3  -8   -8.63   14.73
  18   3   8  -12.41    7.87
  18   3   8    0.27    7.44
 -18  -2  -8    0.47   14.54
 -18  -2   8   -3.76    8.59
  18   2   8   -3.41    7.99
 -18  -2   8   30.97   13.03
 -18  -1  -8   -3.60   12.72
  18   1  -8    9.29    6.03
  18   1  -8    9.22    9.26
  18   1   8   -2.67    8.00
 -18  -1   8    0.24    8.91
 -18  -1   8  -14.91   12.58
 -18   0  -8  -13.77   17.15
 -18   0  -8    1.03   11.45
  18   0  -8   -6.29   11.21
  18   0  -8   19.05    6.20
 -18   0   8    3.68   13.12
  18   0   8    5.05    8.33
  18   0   8    0.54    7.54
 -18   0   8    4.06    9.58
  18  -1  -8  -15.59   12.21
 -18   1  -8    0.65   16.40
 -18   1  -8   -4.30   10.79
  18  -1  -8    0.52    5.88
 -18   1   8    7.93    9.74
  18  -1   8   -8.72    9.09
  18  -1   8    0.27    7.37
 -18   1   8  -12.44   13.12
  18  -2  -8    2.16   14.21
 -18   2  -8    8.16   16.88
 -18   2  -8   -6.28   10.57
 -18   2   8   -3.38   10.24
  18  -2   8   -2.89    7.77
  18  -2   8    5.76    9.92
 -18   2   8  -11.14   13.04
 -18   3  -8    4.05   10.55
  18  -3  -8  -18.82   16.76
 -18   3  -8   -7.98   17.03
 -18   3   8    3.79   10.44
  18  -3   8    0.60    7.70
  18  -3   8  -12.30   11.66
 -18   4  -8  -46.17   18.41
 -18   4  -8    1.14   11.10
  18  -4   8  -24.18   14.38
  18  -4   8    7.76    9.08
 -18   5  -8  -20.63   18.35
 -18   5  -8  -19.90   11.74
 -18   6  -8   -0.83   16.59
 -18   6  -8  -16.28   11.47
  18  -6   8    0.66    8.41
  18  -6   8  -47.09   15.39
 -18   7  -8   15.90   12.11
 -18   7  -8  -24.86   16.63
  18  -7   8   43.57   16.96
 -19  -4  -8   -7.28   16.96
  19   4   8   -9.62    8.43
 -19  -3  -8   21.38   17.12
  19   3   8   -4.14    8.76
  19   3   8    3.99    8.10
 -19  -2  -8   13.75   16.59
  19   2   8    8.74    9.41
  19   2   8   13.13    8.92
 -19  -1  -8    8.57   14.78
  19   1  -8   10.38    7.09
  19   1  -8   -7.95    9.73
 -19  -1   8    0.64   13.16
 -19  -1   8   11.80    9.94
  19   1   8    4.90    9.50
  19   0  -8    4.16    6.50
 -19   0  -8    5.65   17.88
 -19   0  -8    1.64   13.99
  19   0  -8    8.86   12.27
 -19   0   8   18.18   10.57
 -19   0   8   -4.78   14.10
  19   0   8   -7.81    9.85
  19   0   8    2.97    8.17
 -19   1  -8   13.75   12.94
  19  -1  -8   14.48   13.66
 -19   1  -8  -21.43   19.49
  19  -1  -8  -11.87    6.98
 -19   1   8  -15.76   10.70
  19  -1   8    5.03   10.33
  19  -1   8  -15.82    8.60
 -19   1   8   16.58   14.74
  19  -2  -8  -15.06   15.06
 -19   2  -8    8.58   19.18
 -19   2  -8   11.08   12.33
  19  -2   8    0.64    8.54
 -19   2   8    4.58   14.08
  19  -2   8    5.82   11.26
 -19   2   8    2.28   10.87
 -19   3  -8  -35.96   19.64
 -19   3  -8    4.99   12.37
  19  -3   8   -0.33    8.15
  19  -3   8   -4.93   12.21
 -19   4  -8   19.91   19.01
 -19   4  -8   -9.73   11.87
  19  -4   8   46.46   14.40
  19  -4   8    1.74    9.16
 -19   5  -8   17.20   18.90
 -19   5  -8   -7.91   11.67
  19  -5   8   -8.93    8.82
  19  -5   8    9.04   15.07
 -19   6  -8   16.81   12.18
 -19   6  -8  -14.10   15.94
  19  -6   8  -54.16   16.53
 -20  -1   8  -29.99   15.58
  20   0  -8   11.66   12.70
  20   0  -8    7.32    7.50
 -20   0   8  -23.43   15.55
 -20   0   8    7.82   11.56
  20  -1  -8   22.73   14.71
  20  -1  -8   -2.54    7.42
 -20   1   8  -44.54   16.72
 -20   1   8  -24.18   12.41
  20  -2  -8   -0.41   16.29
 -20   2   8   -3.11   11.98
 -21   0   8    1.00   12.25
   0   0  -9   -0.20    0.73
   0   0  -9    0.73    1.64
   0   0   9   -0.40    0.53
   1   0  -9   88.38   20.19
   0   1  -9   58.75   18.51
  -1   0  -9   70.99   17.85
   0  -1   9   87.03   15.46
  -1   0   9   75.74   15.94
  -1   1  -9    0.42    1.49
   1   1  -9   -0.13    1.58
  -1   1  -9    0.16    0.74
   1  -1   9    0.13    0.70
  -1  -1   9   -0.04    0.62
   1  -1   9   -0.40    0.58
  -1   2  -9    2.17    1.23
  -1   2  -9    1.08    1.67
  -1   2  -9    3.12    1.68
   1  -2   9    5.50    1.06
   1  -2   9    2.33    0.92
   1  -2   9    1.35    1.32
  -2   0  -9    0.09    0.76
   0   2  -9   -0.10    1.40
   0   2  -9    1.30    0.93
   0  -2   9    0.07    0.66
  -2   1  -9    4.63    1.22
  -2   1  -9   -0.61    2.13
  -2   1  -9    3.64    2.01
   2  -1   9    4.45    1.17
   2  -1   9    3.03    1.01
  -2   2  -9   -0.09    0.97
  -2   2  -9   -0.09    1.38
  -2   2  -9   -0.33    1.22
   2  -2   9    1.10    1.23
   2  -2   9    0.09    0.60
   2  -2   9    0.45    0.90
  -2   3  -9    6.65    2.41
   3   2  -9    8.66    2.71
   3   2  -9    6.48    2.29
  -2   3  -9    8.59    2.17
  -2   3  -9    6.99    2.24
  -2   3  -9    6.86    2.53
  -3  -2   9    8.46    1.86
   2  -3   9    6.84    1.88
   2  -3   9    8.25    2.70
   2  -3   9    7.31    2.23
   2  -3   9    5.10    1.83
  -1   3  -9    7.66    2.02
  -1   3  -9    6.37    2.31
   3   1  -9    9.54    2.05
  -1   3  -9    5.23    2.60
  -1   3  -9    8.70    2.15
   1  -3   9    8.33    2.11
   1  -3   9    6.25    1.84
   1  -3   9    4.32    2.32
   1  -3   9    6.84    1.76
   3   0  -9    1.39    1.02
  -3   0  -9    0.96    0.85
   3   0   9    1.24    1.07
  -3   1  -9    8.10    2.07
  -3   1  -9    6.18    2.88
  -3   1  -9    6.73    2.76
   3  -1   9    6.72    1.99
   3  -1   9    6.28    1.83
   3  -1   9    7.40    2.42
   2   3  -9    7.77    2.36
  -3   2  -9    6.41    2.61
  -3   2  -9   10.09    2.39
   2   3  -9    8.84    2.55
  -3   2  -9    5.90    2.11
   3  -2   9    6.63    1.85
   3  -2   9    6.34    2.23
   3  -2   9    4.83    2.58
  -2  -3   9   11.93    2.03
   3   3  -9   -0.02    0.85
  -3   3  -9   -0.33    1.28
  -3   3  -9   -0.06    1.27
   3   3  -9   -0.07    0.55
  -3   3  -9   -1.44    1.35
  -3   3  -9    0.63    1.93
   3   3  -9    0.48    1.64
  -3  -3   9    0.90    1.03
  -3  -3   9    0.31    1.32
  -3  -3   9   -0.26    1.26
   3  -3   9    0.12    1.21
   3  -3   9    0.50    2.13
   3  -3   9   -0.07    0.59
   3  -3   9    0.92    0.71
  -3   4  -9   21.73    4.97
   4   3  -9   16.72    4.93
   4   3  -9   16.30    5.65
  -3   4  -9   24.07    5.99
   4   3  -9   15.53    4.80
  -3   4  -9   15.23    5.24
   4   3  -9   15.02    5.33
   3  -4   9   16.36    6.14
  -4  -3   9   18.74    5.52
  -4  -3   9   18.08    5.21
  -4  -3   9   21.52    4.41
   3  -4   9   21.85    5.20
   3  -4   9   22.40    4.42
  -2   4  -9   -0.63    2.33
  -2   4  -9    0.62    1.26
   4   2  -9   -0.53    1.58
   4   2  -9    0.32    0.90
   4   2  -9   -0.14    1.32
   4   2  -9    1.05    1.82
  -4  -2   9    0.45    1.19
  -4  -2   9    0.19    0.87
  -4  -2   9    1.03    1.98
   2  -4   9   -0.05    0.59
   2  -4   9   -0.92    2.49
   4   1  -9    9.27    3.45
   4   1  -9   11.05    2.68
   4   1  -9    6.94    3.79
  -4  -1   9    9.96    2.41
   1  -4   9   10.88    3.54
  -4   0  -9    0.11    2.63
   4   0  -9    0.06    0.98
   0   4  -9   -0.09    1.58
  -4   0  -9   -0.18    0.79
   4   0  -9   -0.20    2.50
   0  -4   9    1.04    1.36
  -4   0   9   -0.05    0.91
   0  -4   9    0.90    0.84
   4   0   9    0.97    1.91
   1   4  -9    8.04    2.94
  -4   1  -9    7.78    3.11
   1   4  -9    6.97    2.80
  -4   1  -9   11.44    2.72
   4  -1   9   13.16    2.62
  -1  -4   9    8.10    2.35
   4  -1   9    6.94    3.00
   2   4  -9   -0.93    1.53
  -4   2  -9    0.27    1.44
   2   4  -9    0.09    1.71
  -4   2  -9    0.59    1.41
  -4   2  -9    0.83    0.93
   4  -2   9    0.59    0.55
  -2  -4   9   -0.11    0.84
   4  -2   9    0.33    1.37
   4  -2   9    1.01    2.13
  -4   3  -9   19.84    5.19
  -4   3  -9   20.63    4.80
  -4   3  -9   24.86    5.31
   3   4  -9   18.06    4.57
   3   4  -9   15.03    5.23
  -4   3  -9   17.98    5.38
   4  -3   9   19.66    4.43
   4  -3   9   16.43    5.81
   4  -3   9   20.75    5.01
   4  -3   9   16.21    4.43
   4   4  -9   -0.10    1.82
  -4   4  -9   -0.68    1.76
   4   4  -9    0.26    0.81
   4   4  -9   -0.50    1.67
  -4   4  -9   -0.24    1.16
   4  -4   9   -0.67    0.83
  -4  -4   9    0.06    1.05
   4  -4   9   -5.72    3.57
   5   4  -9   23.06    7.52
  -4   5  -9   41.53    8.93
   5   4  -9   11.71    9.41
   5   4  -9   30.76    8.39
   5   4  -9   31.90    7.64
  -5  -4   9   32.73    7.18
  -5  -4   9    8.27    9.49
  -5  -4   9   35.71    7.25
   5   3  -9   46.19   14.63
   5   3  -9   49.95   13.76
   5   3  -9   47.68   12.47
   5   3  -9   47.92   13.32
  -5  -3   9   52.90   13.46
  -5  -3   9   58.38   11.80
  -5  -3   9   53.17   14.47
   3  -5   9   67.25   15.25
   5   2  -9   28.83    7.05
   5   2  -9   22.48    6.17
   5   2  -9   15.42    6.90
   5   2  -9   27.93    6.47
  -5  -2   9   21.46    6.97
  -5  -2   9   31.54    7.33
   5   1  -9   22.97    5.41
   5   1  -9   25.24    6.81
  -1   5  -9   23.74    5.96
   5   1  -9   24.59    6.39
  -1   5  -9   21.01    5.75
   5   1   9   19.71    5.05
   1  -5   9   27.25    5.11
  -5  -1   9   16.42    6.44
  -5  -1   9   20.99    5.05
  -5   0  -9    6.69    5.90
   5   0  -9   27.15    5.29
   5   0  -9   26.09    6.67
   0   5  -9   29.75    5.60
   0   5  -9   23.13    5.54
  -5   0  -9   20.01    6.12
   5   0   9   22.99    5.12
   0  -5   9   24.10    5.01
   5   0   9   36.41    5.55
  -5   1  -9   18.57    5.66
   1   5  -9   21.16    5.64
   5  -1  -9   18.09    5.65
   1   5  -9   19.64    5.42
   5  -1   9   24.03    5.26
  -1  -5   9   19.91    4.90
   2   5  -9   25.60    6.88
   2   5  -9   20.07    6.52
  -5   2  -9   22.62    6.25
  -5   2  -9   19.40    8.23
   5  -2   9   26.01    6.67
  -2  -5   9   32.58    6.03
   5  -2   9   31.18    6.38
   5  -2   9   24.94    5.79
  -5   3  -9   55.24   13.07
   3   5  -9   48.47   13.37
  -5   3  -9   49.21   14.61
  -5   3  -9   57.90   12.84
   3   5  -9   48.12   13.27
   5  -3   9   57.28   13.11
   5  -3   9   50.10   12.05
   5  -3   9   49.88   11.96
  -5   4  -9   37.40    9.22
   4   5  -9   31.89    8.37
   4   5  -9   35.53    8.92
  -5   4  -9   40.83    9.23
   4   5  -9   36.17    8.42
  -4  -5   9   28.74    8.02
   5  -4   9   32.93    8.85
   5  -4   9   37.00   10.32
   5   5  -9   -0.07    2.00
   5   5  -9   -0.07    1.15
   5   5  -9    1.23    2.49
  -5   5  -9   -0.82    4.03
  -5   5  -9   -1.69    1.43
   5  -5   9  -15.25    5.10
   5  -5   9   -1.32    2.48
  -5  -5   9   -0.85    1.31
   6   5  -9    2.60    2.78
   6   5  -9    2.60    1.57
   6   5  -9    5.41    2.37
  -6  -5   9    2.39    1.60
   5  -6   9    8.00    5.04
   6   4  -9   62.92   12.19
   6   4  -9   53.05   12.51
   6   4  -9   47.25   14.99
  -6  -4   9   57.56   11.71
  -6  -4   9   38.88   15.35
  -6  -4   9   42.95   11.89
   6   3  -9   63.01   15.33
  -3   6  -9   61.17   16.73
   6   3  -9   66.84   16.45
   6   3  -9   65.97   14.65
  -6  -3   9   58.30   15.61
  -6  -3   9   60.09   14.35
  -6  -3   9   57.95   13.79
  -6  -3   9   84.54   16.66
   6   2  -9   43.34   10.17
  -2   6  -9   33.02   10.33
   6   2  -9   35.33    9.59
   6   2  -9   42.62    9.10
   6   2  -9   24.42   10.02
  -6  -2   9   46.07    8.36
  -6  -2   9   40.36   10.46
  -6  -2   9   33.37   10.26
   6   1  -9   25.88    6.07
   6   1  -9   25.65    7.24
  -1   6  -9   18.03    6.71
  -1   6  -9   19.74    6.81
   6   1  -9   28.92    6.16
   6   1  -9   19.08    7.66
  -6  -1  -9    6.45    7.54
   6   1   9   25.18    6.44
   6   1   9   24.73    5.61
   1  -6   9   23.02    5.81
  -6  -1   9   30.80    5.70
  -6   0  -9   -0.32    0.77
   0   6  -9   -0.66    1.57
  -6   0  -9   -0.63    2.98
   6   0  -9   -0.20    1.25
   0   6  -9   -0.33    2.33
   6   0  -9   -1.28    3.03
   6   0   9   -0.07    2.27
  -6   0   9   -0.32    1.06
   6   0   9   -0.64    1.52
   0  -6   9    0.48    1.21
  -6   1  -9   29.47    6.86
   1   6  -9   21.61    6.79
  -6   1  -9   26.83    6.54
   1   6  -9   26.65    6.75
   6  -1  -9   20.49    6.68
   6  -1   9   25.62    6.82
   6  -1   9   19.09    6.35
  -1  -6   9   25.89    5.88
   2   6  -9   45.79    9.92
   2   6  -9   36.14    9.80
  -6   2  -9   39.95    9.41
  -6   2  -9   38.52   10.15
   6  -2   9   38.48    8.91
   6  -2   9   36.91   10.44
  -2  -6   9   43.12    8.84
   6  -2   9   33.43    9.64
   6  -2   9   40.61    9.79
  -6   3  -9   66.99   16.59
  -6   3  -9   55.79   15.25
   3   6  -9   51.71   14.31
  -6   3  -9   50.66   14.12
   6  -3   9   50.60   13.14
   6  -3   9   42.22   13.77
   6  -3   9   70.07   14.33
   4   6  -9   53.69   13.24
  -6   4  -9   42.75   12.95
   4   6  -9   49.74   12.45
  -6   4  -9   46.57   13.60
   6  -4   9   63.07   12.74
   6  -4   9   54.89   14.85
  -4  -6   9   41.68   11.50
  -6   5  -9    3.41    4.17
   5   6  -9    5.22    1.65
  -6   5  -9    4.18    1.72
   5   6  -9    3.08    3.00
   5   6  -9    2.89    2.38
   6  -5   9    4.64    2.55
  -5  -6   9    2.51    1.78
   6  -5   9    7.81    5.27
   6   6  -9    0.16    2.31
   6   6  -9   -1.08    3.07
  -6   6  -9    0.28    1.63
  -6  -6   9    0.49    1.66
   6  -6   9    0.70    5.46
   7   6  -9   -0.57    3.27
   7   6  -9   -0.98    2.72
  -7  -6   9   -0.21    1.69
   6  -7   9    0.64    5.77
   7   5  -9   24.28    5.52
   7   5  -9   16.02    5.30
   5  -7   9   14.83    7.49
  -7  -5   9   12.68    4.68
   7   4  -9   -0.08    2.52
   7   4  -9    1.39    2.53
  -7  -4   9   -0.53    1.43
  -7  -4   9   -0.69    1.35
   7   3  -9  142.75   39.35
   7   3  -9  163.40   42.99
  -7  -3   9  179.38   36.87
  -7  -3   9  174.06   39.01
   7   2  -9    1.06    1.87
   7   2  -9    2.72    2.55
  -7  -2  -9    1.17    4.39
   7   2   9   -0.25    1.81
  -7  -2   9    1.28    1.28
   7   1  -9   48.22   10.55
   7   1  -9   32.42   10.24
  -7  -1  -9    9.10   11.85
   7   1  -9   54.14   11.96
  -7  -1   9   25.98   12.15
   7   1   9   46.42    9.39
   7   1   9   47.57   10.45
  -7   0  -9   -0.46    0.73
   7   0  -9   -4.16    3.73
   0   7  -9    0.80    1.87
   7   0  -9    0.14    1.48
  -7   0  -9    0.22    3.13
  -7   0   9   -3.03    4.32
   7   0   9   -4.13    2.85
  -7   0   9   -0.36    1.38
   7   0   9   -0.07    1.98
   1   7  -9   42.94   11.21
   7  -1  -9   56.01   15.04
   7  -1  -9   38.43   11.17
  -7   1  -9   48.63   11.37
   7  -1   9   38.48   10.70
   7  -1   9   38.87   11.23
  -1  -7   9   38.53   10.12
   2   7  -9    0.41    3.01
   2   7  -9    0.87    1.91
  -7   2  -9    2.82    2.60
   7  -2   9    0.82    2.33
   7  -2   9    4.56    3.64
  -2  -7   9    2.72    1.63
  -7   3  -9  156.84   43.90
  -7   3  -9  173.57   40.00
   3   7  -9  165.12   41.17
   7  -3   9  130.82   40.89
  -3  -7   9  149.71   37.41
   7  -3   9  197.67   44.87
  -7   4  -9    0.31    2.87
   4   7  -9    0.86    3.30
   4   7  -9    0.31    2.11
  -7   4  -9   -0.74    3.90
   7  -4   9    4.50    4.86
   7  -4   9   -0.09    2.25
   5   7  -9   20.51    5.39
  -7   5  -9   15.48    6.72
   5   7  -9   20.60    5.94
   7  -5   9    6.53    7.88
   7  -5   9   16.82    5.47
  -5  -7   9   25.44    4.84
  -7   6  -9    1.42    4.71
   6   7  -9   -0.26    2.47
   6   7  -9    1.37    3.68
  -6  -7   9   -0.12    1.78
   7  -6   9    3.71    6.02
   7   7  -9    4.53    3.65
   7   7  -9    0.46    2.64
   7  -7   9   -2.78    6.62
  -7  -7   9   -0.49    2.07
   8   7  -9   27.92    8.71
   8   7  -9   36.45    8.38
  -8  -7   9   25.02    7.36
   8   6  -9    7.11    3.39
   8   6  -9    8.43    4.05
  -8  -6   9    6.71    2.49
   8   5  -9   -2.00    3.23
   8   5  -9    1.35    1.86
   8   5  -9   -2.10    2.72
   8   5  -9    0.88    3.19
  -8  -5   9   -1.31    1.61
  -8  -5   9   -2.25    4.89
  -8  -5   9   -0.36    1.82
   8   4  -9    5.26    3.00
   8   4  -9    5.74    2.51
   8   4  -9    9.36    3.21
   8   4  -9    5.92    3.00
  -8  -4   9    6.87    2.13
  -8  -4   9    4.31    3.71
  -8  -4   9    6.56    2.23
   8   3  -9    0.68    2.46
   8   3  -9    2.07    1.94
   8   3  -9    0.74    2.88
   8   3  -9    1.36    2.55
  -8  -3   9    2.12    1.43
  -8  -3   9    1.23    3.65
  -8  -3   9    1.51    2.60
  -8  -3   9    0.69    1.36
   8   2  -9   26.04    7.04
   8   2  -9   21.27    6.41
  -8  -2  -9    8.90    8.17
   8   2  -9   24.14    7.05
   8   2  -9   17.45    6.27
   8   2   9   23.52    5.63
  -8  -2   9   29.80    7.47
   8   2   9   31.71    6.68
  -8  -2   9   19.68    7.06
  -8  -2   9   21.48    5.56
  -8  -1  -9    7.66    5.49
   8   1  -9   12.16    4.77
   8   1  -9   13.02    5.53
   8   1  -9   14.00    3.96
   8   1  -9   12.25    3.77
   8   1   9   13.82    3.65
   8   1   9   12.20    4.28
  -8  -1   9   13.38    5.59
  -8  -1   9   10.94    3.44
  -8   0  -9    0.22    3.34
   8   0  -9    0.24    1.64
   8   0  -9    2.68    5.04
   8   0  -9    0.56    3.57
   8   0  -9   -0.68    2.07
   8   0   9    1.27    2.21
  -8   0   9   -0.72    4.46
   8   0   9    1.06    2.77
  -8   0   9    0.40    1.44
   8  -1  -9   17.92    3.99
   8  -1  -9   28.98    7.57
  -8   1  -9   12.40    4.81
   8  -1   9   12.25    4.94
   8  -1   9   10.77    4.26
  -8   2  -9   24.74    7.43
   8  -2   9   24.43    7.87
   8  -2   9   30.76    6.89
  -8   3  -9    1.66    3.15
  -8   3  -9    1.13    4.73
   8  -3   9    1.61    2.44
   8  -3   9    1.01    4.59
  -8   4  -9    2.47    4.59
  -8   4  -9    4.89    3.69
   4   8  -9    3.18    2.66
   8  -4   9    7.06    5.60
   8  -4   9    6.60    3.06
  -8   5  -9    1.24    4.95
   5   8  -9   -0.09    2.35
  -5  -8   9    1.48    2.39
   8  -5   9   -0.12    2.77
   8  -5   9   -3.62    6.21
  -8   6  -9    3.27    5.72
   6   8  -9    7.32    3.19
  -6  -8   9    6.32    2.85
   8  -6   9    1.02    7.05
   8  -6   9    8.33    3.42
   7   8  -9   32.41    7.66
  -7  -8   9   21.59    7.07
   8  -7   9   15.03   10.91
   8   8  -9   -3.08    3.15
  -8  -8   9    0.32    2.50
   9   8  -9   40.19   10.87
  -9  -8   9   37.22    9.82
   9   7  -9    4.18    4.38
   9   7  -9    2.07    3.43
  -9  -7   9    0.94    2.27
   9   6  -9    0.71    3.28
   9   6  -9    0.87    4.03
  -9  -6   9   -2.72    2.10
   9   5  -9    9.89    4.08
   9   5  -9    7.91    4.03
   9   5  -9    9.54    3.72
   9   5  -9    7.78    3.02
  -9  -5   9    7.37    2.67
  -9  -5   9    2.99    5.88
  -9  -5   9    7.67    2.75
   9   4  -9   22.53    5.19
   9   4  -9   10.79    5.19
   9   4  -9   19.17    5.25
   9   4  -9   11.99    4.62
  -9  -4   9   10.26    6.04
  -9  -4   9   10.83    4.09
  -9  -4   9   11.23    5.87
  -9  -4   9   20.30    4.21
   9   3  -9    2.20    3.08
   9   3  -9    0.85    2.67
   9   3  -9   -0.54    2.21
   9   3  -9   -1.55    2.88
  -9  -3   9    1.68    1.49
   9   3   9    1.82    2.34
  -9  -3   9    0.96    4.14
  -9  -3   9    0.73    1.52
  -9  -3   9    2.21    2.99
   9   2  -9    5.78    3.46
   9   2  -9    1.30    2.40
   9   2  -9    0.33    2.50
   9   2  -9    2.40    3.19
  -9  -2  -9    3.48    5.36
   9   2   9    2.83    2.39
  -9  -2   9    0.56    4.42
   9   2   9    1.61    3.45
  -9  -2   9    2.83    1.49
  -9  -2   9    0.94    2.92
  -9  -1  -9    2.21    4.55
   9   1  -9   -1.30    4.50
   9   1  -9    0.36    3.32
   9   1  -9    2.00    2.17
   9   1  -9    1.09    2.33
   9   1   9   -2.76    3.23
  -9  -1   9    1.22    1.45
  -9  -1   9    3.84    4.80
   9   1   9    1.34    2.40
  -9  -1   9    2.43    3.09
   9   0  -9    7.90    2.57
  -9   0  -9    0.38    3.83
   9   0  -9   -0.45    4.04
   9   0  -9    0.43    1.92
   9   0  -9   -4.47    5.66
  -9   0   9    0.09    1.57
   9   0   9    0.78    2.56
  -9   0   9    0.27    4.76
   9   0   9    0.46    3.20
   9  -1  -9   -9.89    6.65
   9  -1  -9    0.33    1.69
  -9   1  -9   -2.11    3.52
   9  -1   9    0.73    2.68
   9  -1   9   -3.10    3.75
  -9   2  -9    2.76    3.49
  -9   2  -9    6.24    5.81
   9  -2   9    6.37    4.78
   9  -2   9    1.42    3.03
  -9   3  -9    1.89    3.57
  -9   3  -9   -1.10    5.62
   9  -3   9    2.84    5.30
   9  -3   9   -0.54    2.86
  -9   4  -9   14.07    6.71
  -9   4  -9   14.16    6.02
   9  -4   9   13.91    7.54
   9  -4   9   26.43    5.27
  -9   5  -9    7.66    6.25
   9  -5   9   -0.33    6.79
   9  -5   9   12.60    3.70
  -9   6  -9   -0.95    6.25
   9  -6   9   21.24    7.92
   9  -6   9   -1.26    3.47
   9  -7   9   -3.50    8.06
   9   9  -9   -0.85    3.63
  10   8  -9    6.26    4.01
 -10  -8   9    3.83    3.00
  10   7  -9    6.16    5.55
  10   7  -9   19.39    4.83
 -10  -7   9    8.25    3.51
  10   6  -9   29.21    8.60
  10   6  -9   18.87    8.35
 -10  -6   9   27.25    7.16
 -10  -6   9   33.62    7.28
  10   5  -9    1.12    3.69
  10   5  -9    2.65    3.30
 -10  -5   9    2.85    2.15
 -10  -5   9   -0.54    6.09
 -10  -5   9    1.69    1.90
  10   4  -9   -3.26    3.25
  10   4  -9    2.12    2.75
  10   4  -9    1.12    3.52
  10   4  -9    0.42    3.51
 -10  -4   9    3.89    3.92
 -10  -4   9    0.51    1.83
 -10  -4   9   -2.42    4.91
 -10  -4   9    3.22    1.92
  10   3  -9    1.86    2.93
 -10  -3  -9    3.19    6.48
  10   3  -9    0.71    2.56
  10   3  -9   -1.29    3.48
  10   3  -9    0.58    3.30
 -10  -3   9    5.71    4.90
 -10  -3   9    6.02    3.48
  10   3   9    3.54    2.77
 -10  -3   9    1.86    1.66
 -10  -3   9    2.87    1.79
  10   2  -9    0.30    2.59
 -10  -2  -9   -4.60    6.13
  10   2  -9    6.24    3.89
  10   2  -9    1.70    3.33
  10   2  -9    2.64    2.57
 -10  -2   9    1.58    3.25
  10   2   9   -3.13    3.71
 -10  -2   9    0.46    1.55
 -10  -2   9    0.64    5.08
  10   2   9    0.66    2.58
  10   1  -9    7.44    3.38
  10   1  -9    7.69    3.42
 -10  -1  -9    2.95    5.50
  10   1  -9    5.86    5.35
  10   1  -9   11.12    4.62
 -10  -1   9   10.10    5.96
 -10  -1   9    7.15    2.68
  10   1   9   12.14    3.45
 -10  -1   9    5.67    4.28
  10   1   9    8.99    4.05
 -10   0  -9    2.81    4.15
  10   0  -9   -0.33    4.49
  10   0  -9   -0.36    2.76
  10   0  -9   -0.63    6.11
  10   0  -9    0.76    2.06
 -10   0   9    0.29    5.57
  10   0   9   -1.80    2.96
  10   0   9   -2.85    3.53
 -10   0   9   -1.28    1.72
  10  -1  -9   13.93    3.10
  10  -1  -9    4.77    7.72
 -10   1  -9    9.31    4.67
  10  -1   9    4.97    4.91
  10  -1   9   10.73    3.83
 -10   1   9    6.65    6.19
  10  -2  -9    5.52    8.06
  10  -2  -9   -0.44    1.99
 -10   2  -9    2.29    6.45
 -10   2  -9    2.62    4.04
  10  -2   9    0.76    4.84
  10  -2   9   -1.49    3.31
 -10   3  -9    3.81    6.09
 -10   3  -9    1.81    4.02
  10  -3   9    5.45    5.71
  10  -3   9    1.71    3.30
 -10   4  -9    0.27    6.49
 -10   4  -9    1.75    4.70
 -10   5  -9    0.90    6.50
 -10   5  -9   -1.55    4.63
  10  -5   9   -7.10    7.69
  10  -5   9   -6.08    3.57
 -10   6  -9   17.21   10.26
  10  -6   9   36.46    8.13
  10  -6   9   28.74   11.74
 -10   7  -9    6.23    7.38
  10  -7   9   -3.28    9.02
  10  -8   9   -0.73    9.22
  11   8  -9   -1.34    4.37
  11   7  -9    2.06    5.24
  11   7  -9    3.62    3.88
 -11  -7   9   -1.61    2.30
  11   6  -9   -2.87    4.06
  11   6  -9    4.01    4.68
 -11  -6   9    3.54    2.52
 -11  -6   9    6.11    2.64
  11   5  -9    2.25    4.02
  11   5  -9    0.82    3.68
 -11  -5   9   -0.11    2.12
 -11  -5   9    6.52    2.35
  11   4  -9   -0.40    2.95
  11   4  -9    0.52    3.75
  11   4  -9   -2.30    3.84
  11   4  -9    2.42    3.18
 -11  -4   9   -0.20    1.94
 -11  -4   9   -1.44    4.40
 -11  -4   9    0.09    1.86
 -11  -4   9    0.80    5.54
 -11  -3  -9   -8.27    7.74
  11   3  -9    1.22    3.60
  11   3  -9    1.32    2.83
  11   3  -9   -1.39    3.66
  11   3  -9    0.30    3.34
 -11  -3   9   -3.08    3.77
 -11  -3   9   -1.01    1.83
  11   3   9    0.13    3.12
 -11  -3   9    1.07    5.52
 -11  -3   9    1.07    1.77
  11   3   9    0.43    4.35
  11   2  -9    8.20    5.04
  11   2  -9   10.79    4.38
  11   2  -9   16.26    4.35
 -11  -2  -9   13.40    7.49
  11   2  -9   20.46    5.59
 -11  -2   9   10.35    5.07
 -11  -2   9    5.30    6.64
  11   2   9    8.45    5.09
  11   2   9   12.87    4.21
 -11  -2   9   13.17    3.48
 -11  -2   9   14.80    3.61
  11   1  -9   -0.25    3.17
  11   1  -9   -1.74    4.32
  11   1  -9    2.09    5.25
  11   1  -9   -2.43    2.76
 -11  -1  -9  -20.64    6.79
 -11  -1   9    1.12    6.06
 -11  -1   9    1.51    1.97
 -11  -1   9   -4.72    4.23
  11   0  -9   25.85    7.13
  11   0  -9   27.61    9.48
  11   0  -9   39.08   10.01
  11   0  -9   33.06    7.11
 -11   0   9   23.00    9.53
  11   0   9   14.88    8.11
 -11   0   9   36.92    7.32
  11  -1  -9   -0.69    2.29
  11  -1  -9   -1.28    8.33
 -11   1   9   -2.90    6.58
  11  -2  -9   18.29    3.98
  11  -2  -9   12.65   10.02
 -11   2  -9   13.52    5.68
 -11   2  -9   21.53    8.29
  11  -2   9   -0.14    5.32
 -11   3  -9   -2.29    4.76
 -11   3  -9   -0.89    7.21
  11  -3   9   -6.04    3.83
  11  -3   9  -15.19    6.63
 -11   4  -9    4.98    4.93
 -11   4  -9    6.40    7.21
  11  -4   9   -0.44    3.92
  11  -4   9   -0.18    7.34
 -11   5  -9    4.06    7.36
 -11   5  -9    6.84    5.16
  11  -5   9   -3.13    7.98
  11  -5   9   -4.55    4.01
 -11   6  -9    4.50    7.44
  11  -6   9    0.65    8.50
  11  -6   9    0.67    3.93
 -11   7  -9    4.18    7.52
  11  -7   9   -4.75    9.41
  12   9  -9   -3.85    4.90
  12   7  -9    1.54    4.73
  12   7  -9    3.07    5.92
 -12  -7   9    6.08    3.08
 -12  -7   9    5.22    3.32
  12   6  -9   -9.18    4.51
  12   6  -9   -0.26    4.94
 -12  -6   9   -0.79    2.30
 -12  -6   9   -0.95    2.76
  12   5  -9    3.33    4.80
  12   5  -9    3.26    4.01
 -12  -5   9    3.35    2.34
 -12  -5   9    3.06    2.32
  12   4  -9    2.08    3.92
  12   4  -9    1.34    4.02
 -12  -4   9   -1.33    4.68
 -12  -4   9    1.82    1.88
 -12  -4   9   -3.64    6.32
 -12  -4   9    1.81    2.05
  12   3  -9   -0.16    3.66
  12   3  -9    1.48    3.94
  12   3  -9    8.34    3.94
  12   3  -9    3.43    3.39
 -12  -3   9    0.48    6.40
 -12  -3   9    0.58    4.38
 -12  -3   9    2.74    2.04
 -12  -3   9    0.52    1.98
 -12  -2  -9   10.45    7.57
  12   2  -9    5.37    4.83
  12   2  -9    1.99    4.07
  12   2  -9    0.57    3.37
  12   2  -9    2.14    3.32
 -12  -2   9    1.08    6.45
  12   2   9    5.28    4.55
 -12  -2   9    3.92    2.01
 -12  -2   9    0.46    1.95
 -12  -2   9    3.45    4.15
  12   1  -9   35.23   10.53
  12   1  -9   34.39   12.73
 -12  -1  -9   36.71   12.66
  12   1   9   55.08    9.94
 -12  -1   9   36.80   12.91
 -12  -1   9   44.61   11.05
 -12  -1   9   41.56   12.66
  12   1   9   28.29   10.73
  12   0  -9    4.35    7.26
 -12   0  -9   -4.68    5.64
  12   0  -9   -0.88    3.46
 -12   0   9    4.21    7.26
 -12   0   9    5.16    5.02
  12   0   9   -1.27    4.61
  12   0   9    0.43    3.79
 -12   0   9   -2.88    2.24
  12  -1  -9   36.36   11.01
  12  -1  -9   23.85   15.92
 -12   1  -9   64.82   12.60
 -12   1   9   40.47   13.98
  12  -1   9   41.23   12.32
  12  -1   9   49.65   11.30
 -12   2  -9   11.18    8.68
 -12   2  -9    2.32    5.11
  12  -2  -9    8.15    9.94
  12  -2   9   -0.16    6.24
  12  -2   9   -6.88    4.24
 -12   3  -9    5.15    5.42
 -12   3  -9    8.40    7.95
  12  -3   9   -7.34    7.24
 -12   4  -9   -5.88    5.64
  12  -4   9    0.58    7.50
 -12   7  -9    0.91    8.77
  12  -7   9   17.77    5.78
  12  -8   9   -8.71   11.39
  13   9  -9    1.99    5.40
 -13  -7   9   -0.14    3.12
 -13  -6   9    2.52    2.55
 -13  -4  -9   -3.97    9.51
  13   3  -9    3.80    3.72
 -13  -3  -9    2.29    8.71
  13   3  -9    2.91    4.31
 -13  -3   9    5.95    4.88
 -13  -3   9    4.97    7.19
  13   3   9    3.48    5.04
  13   3   9    2.88    4.06
  13   2  -9    9.46    5.62
  13   2  -9    7.42    4.16
  13   2   9   -0.15    4.72
  13   2   9    0.15    4.26
 -13  -2   9   14.56    5.32
 -13  -2   9    5.46    7.50
  13   1  -9   -3.75    6.08
  13   1  -9   -0.90    3.72
 -13  -1   9   -3.39    5.08
  13   1   9    0.16    4.10
 -13  -1   9    5.18    7.64
  13   0  -9   17.95    5.32
  13   0  -9   10.09    8.90
  13   0   9   11.77    5.73
 -13   0   9   19.61    8.92
 -13   0   9   14.51    7.03
  13  -1  -9    6.75    9.39
  13  -1  -9    1.21    3.84
  13  -1   9   -1.70    4.60
 -13   1   9   -2.99    8.32
  13  -2  -9   21.29   11.26
  13  -2   9   -1.53    5.19
 -13   3  -9   -4.18    9.44
  13  -3   9    0.35    4.68
 -13   4  -9   -6.43   10.34
 -13   4  -9   33.10    7.72
 -13   5  -9    7.99    6.59
 -13   5  -9    1.30    9.83
  13  -5   9  -25.73    9.97
  13  -5   9   -8.89    5.18
 -13   6  -9    4.76    6.57
 -13   6  -9   -4.16    9.34
  13  -6   9   -0.25   10.07
  13  -6   9   -2.64    4.88
 -13   7  -9   -2.98    9.14
  13  -7   9   -0.86    4.87
  13  -7   9   -8.55   10.65
  13  -8   9   22.72   13.45
 -14  -4  -9   -7.41    9.64
 -14  -3  -9  -16.79    9.96
 -14  -3   9    7.89    5.63
 -14  -3   9    9.72    8.17
  14   3   9   -5.64    4.39
  14   3   9   -5.02    5.39
  14   2  -9   -0.43    5.76
  14   2  -9    0.93    3.99
 -14  -2  -9  -11.37    9.78
 -14  -2   9   34.80    8.46
 -14  -2   9    4.93    5.56
  14   2   9    7.98    5.61
  14   2   9    3.95    4.88
  14   1  -9   -8.21    7.41
  14   1  -9   11.66    3.85
 -14  -1  -9   -1.30    8.48
 -14  -1   9   -0.87    5.86
  14   1   9    0.18    4.94
  14   1   9  -12.21    5.91
 -14   0  -9   -9.24    7.59
 -14   0   9   -6.58    6.78
  14   0   9  -10.14    5.95
 -14   1  -9  -11.26   13.34
 -14   1  -9   -0.77    7.01
  14  -1   9  -16.79    5.78
 -14   2  -9   -1.27   11.99
 -14   2  -9   -1.68    7.12
  14  -2   9   -2.88    7.88
  14  -2   9    0.19    5.27
 -14   3  -9   10.03   11.13
 -14   3  -9    9.24    6.79
  14  -3   9   -4.11    8.77
  14  -3   9    3.74    5.55
 -14   4  -9  -12.30   10.90
 -14   4  -9   -6.33    7.02
  14  -4   9   13.55    9.46
  14  -4   9   -8.66    5.48
 -14   5  -9    2.78    7.20
 -14   5  -9   -2.45   10.67
  14  -5   9   -5.64    9.86
  14  -5   9   -0.64    5.34
 -14   6  -9   15.00   11.23
 -14   6  -9    8.86    8.14
  14  -6   9   14.81    6.27
  14  -6   9    6.41   11.06
 -14   7  -9   -4.39   10.35
 -14   7  -9    8.48    7.71
  14  -7   9    3.05    5.45
  14  -7   9    4.16   11.69
  14  -8   9   -2.53   12.44
 -15  -4  -9  -28.37   11.47
 -15  -3  -9    5.87   11.01
  15   3   9   -0.39    5.89
  15   2  -9   -1.39    4.50
 -15  -2  -9    8.03   10.31
  15   2   9   -5.67    5.79
 -15  -2   9  -19.22    9.29
  15   2   9    0.58    5.44
  15   1  -9    2.55    4.63
 -15  -1  -9   -5.23    9.31
  15   1   9    0.60    5.41
  15   1   9    2.32    6.12
 -15  -1   9   27.89    9.56
 -15   0  -9    8.84   13.62
  15   0  -9    9.07    8.74
  15   0  -9    2.12    4.53
 -15   0  -9   -8.86    8.14
 -15   0   9    3.64    6.81
 -15   0   9  -12.49    9.90
  15   0   9    0.21    5.62
  15   0   9   -5.39    6.22
  15  -1  -9  -15.43   10.74
 -15   1  -9    7.46   13.49
  15  -1  -9    0.20    4.56
 -15   1  -9    1.10    7.51
 -15   1   9  -18.21   10.43
  15  -1   9   -6.29    7.02
 -15   1   9   -0.74    7.36
  15  -1   9    6.58    5.70
 -15   2  -9    0.86    7.91
  15  -2  -9   -1.25   12.34
 -15   2  -9   10.94   12.14
  15  -2   9  -20.53    5.76
  15  -2   9   -5.35    7.90
 -15   3  -9   -0.21    7.35
 -15   3  -9  -10.47   12.23
  15  -3   9   -6.51    6.00
  15  -3   9    0.70    8.89
 -15   4  -9   -7.35   12.74
 -15   4  -9   -0.60    8.22
  15  -4   9  -22.82    6.42
  15  -4   9   -6.66   10.30
 -15   5  -9    0.61    7.58
 -15   5  -9    0.55   11.82
  15  -5   9   -3.81   10.29
  15  -5   9    1.92    5.92
 -15   6  -9   13.14    8.34
 -15   6  -9   -1.16   11.91
  15  -6   9   11.70   11.49
  15  -6   9    5.45    6.38
 -15   7  -9    1.83   11.28
 -15   7  -9    0.64    8.21
  15  -7   9    0.32   12.22
  15  -7   9    2.83    6.01
 -15   8  -9    8.82    8.70
  15  -8   9    4.43   13.59
 -16  -4  -9   10.64   12.27
 -16  -3  -9   24.15   15.68
  16   3   9   34.14   10.33
 -16  -2  -9  -24.02   12.15
  16   2   9   -0.22    6.82
 -16  -2   9  -44.35   12.36
  16   2   9  -19.38    7.44
 -16  -1  -9  -14.64   10.61
  16   1  -9  -20.84    8.57
  16   1  -9  -11.58    5.51
  16   1   9    0.22    6.48
  16   1   9  -14.04    6.77
 -16  -1   9  -14.72    7.59
 -16  -1   9    3.77   10.76
  16   0  -9   -8.82    5.23
 -16   0  -9    1.66    8.99
  16   0  -9  -10.29    9.82
 -16   0  -9   12.35   14.11
  16   0   9    0.97    6.82
 -16   0   9   14.90    7.82
  16   0   9    1.37    6.42
 -16   0   9   -5.07   10.25
  16  -1  -9  -23.35   11.61
 -16   1  -9  -11.11    8.87
  16  -1  -9    3.56    5.21
 -16   1  -9   10.98   14.01
 -16   1   9   -1.22    8.36
 -16   1   9   11.02   11.14
 -16   2  -9  -11.24    9.38
 -16   2  -9  -15.71   14.49
  16  -2  -9  -19.03   14.85
 -16   2   9  -12.81    9.74
 -16   3  -9   20.29   12.30
 -16   3  -9   22.98   16.25
  16  -3   9   62.22   14.01
  16  -3   9   19.55   10.50
 -16   4  -9    2.97   13.54
 -16   4  -9   -7.25    8.51
  16  -4   9   -9.23    6.78
  16  -4   9   -5.52   10.50
 -16   5  -9    2.04    8.59
 -16   5  -9   -5.01   13.54
  16  -5   9    7.10   11.42
  16  -5   9    0.26    6.60
 -16   6  -9   11.34    9.11
 -16   6  -9   13.07   13.12
  16  -6   9    6.50   11.98
  16  -6   9   -7.09    6.72
 -16   7  -9   -0.68   13.07
 -16   7  -9    0.47    8.97
  16  -7   9    9.10   13.10
  16  -7   9   13.63    6.90
 -16   8  -9    1.95    9.48
  16  -8   9    9.77   14.21
 -17  -4  -9  -24.88   14.11
  17   4   9   -6.11    6.60
 -17  -3  -9    4.77   13.10
  17   3   9    3.76    7.24
 -17  -2  -9   20.71   12.94
  17   2   9    1.34    7.14
  17   2   9    0.24    6.32
 -17  -1  -9    4.01   11.29
  17   1  -9    1.12    8.85
 -17  -1  -9    6.25   16.17
  17   1  -9   -5.33    5.62
  17   1   9    0.25    6.81
 -17  -1   9   -7.29   11.25
 -17  -1   9   13.10    8.00
  17   1   9    0.22    7.14
 -17   0  -9    0.31   10.20
  17   0  -9    7.78    5.59
  17   0  -9   -1.04   10.46
 -17   0  -9   -5.73   15.62
 -17   0   9    7.17    8.39
  17   0   9   -1.95    7.65
 -17   0   9   11.22   11.83
  17   0   9    8.68    6.87
 -17   1  -9  -10.12    9.90
  17  -1  -9    2.67    5.37
  17  -1  -9  -11.60   11.75
 -17   1  -9   -1.77   15.45
 -17   1   9    5.41   11.67
  17  -1   9   -2.25    6.88
  17  -1   9    5.75    8.19
 -17   1   9   -8.48    8.59
 -17   2  -9   -5.39    9.51
  17  -2  -9    0.70   14.16
 -17   2  -9   -8.61   15.26
  17  -2   9    0.26    6.57
  17  -2   9   -5.40    8.59
 -17   2   9   12.19    9.34
 -17   3  -9   -7.29    9.42
 -17   3  -9    6.45   15.02
  17  -3   9  -10.23    7.23
  17  -3   9   -2.74   10.19
 -17   4  -9   12.54    9.41
 -17   4  -9   -5.47   15.85
  17  -4   9    3.84   11.27
  17  -4   9   -9.04    7.05
 -17   5  -9    2.76    9.06
 -17   5  -9   -4.29   14.97
  17  -5   9   -3.89   12.10
  17  -5   9    2.05    7.32
 -17   6  -9   -8.17   15.32
 -17   6  -9   -4.59    9.51
  17  -6   9   -3.01    7.33
  17  -6   9    9.09   13.27
  17  -7   9  510.77   97.90
 -17   8  -9   10.55   11.07
  17  -8   9  -14.28   15.34
 -18  -4  -9  117.68   27.95
 -18  -2  -9  -11.58   15.21
  18   2   9    7.71    8.17
 -18  -1  -9  -21.31   17.13
 -18  -1  -9   25.39   13.12
 -18  -1   9   17.82   12.45
  18   1   9   -4.97    7.60
  18   1   9    5.89    8.12
 -18  -1   9    3.18    8.58
  18   0  -9   -7.25    5.93
 -18   0  -9   17.09   12.29
  18   0  -9  -10.41   10.98
 -18   0  -9   14.08   16.97
 -18   0   9   -0.46    8.89
  18   0   9    6.85    8.60
  18   0   9   22.63    7.61
 -18   0   9   -3.70   12.76
 -18   1  -9   14.69   17.04
  18  -1  -9   -4.23    6.21
  18  -1  -9    8.31   12.85
 -18   1  -9   -0.65   11.34
 -18   1   9   11.87   12.55
  18  -1   9   12.25    8.95
 -18   1   9    3.44    9.75
  18  -1   9    0.55    7.38
 -18   2  -9  -17.15   17.52
  18  -2  -9  -24.35   14.90
 -18   2  -9   -0.61   10.72
 -18   2   9   22.55   10.52
  18  -2   9  -16.15   10.41
 -18   3  -9  -29.54   12.25
 -18   3  -9    7.99   18.52
 -18   4  -9   11.70   13.35
 -18   4  -9   41.71   19.96
  18  -4   9   64.92   16.15
 -18   5  -9   28.25   17.73
 -18   5  -9   -1.98   10.85
  18  -5   9    8.87    8.36
  18  -5   9   -7.67   13.31
 -18   6  -9  -24.32   17.71
 -18   6  -9  -17.53   11.02
  18  -6   9   19.03   14.61
  18  -6   9   -3.33    7.93
 -18   7  -9    1.73   16.49
 -18   7  -9   -5.53   10.89
  18  -7   9   10.55   15.33
  18  -7   9   -5.21    8.18
 -19  -4  -9    0.62   17.02
  19   4   9  -21.30    8.86
 -19  -3  -9  -14.79   17.58
  19   3   9   -0.29    9.37
 -19  -2  -9  -11.89   16.73
  19   2   9   -5.83    9.61
 -19  -1  -9   24.44   18.94
 -19  -1  -9   -0.49   15.59
  19   1   9    2.11    8.26
  19   1   9   -0.28    9.76
  19   0  -9   18.00   11.59
  19   0  -9   -8.47    6.45
 -19   0  -9    1.44   18.84
 -19   0  -9    1.68   13.74
 -19   0   9   -4.14   10.08
 -19   0   9   12.21   13.72
  19   0   9   -6.84    9.58
  19   0   9   -2.41    8.27
 -19   1  -9   -0.77   13.47
  19  -1  -9   14.77   13.47
 -19   1  -9   11.14   18.69
  19  -1   9  -16.21    8.22
 -19   1   9   -7.95   13.61
  19  -1   9  -20.99   10.38
 -19   1   9   -9.61   10.82
  19  -2  -9   11.64   15.33
 -19   2  -9   50.67   19.33
 -19   2  -9    8.27   12.19
  19  -2   9    0.29   10.96
 -19   2   9   10.94   11.19
  19  -2   9    0.32    8.72
 -19   3  -9   15.85   19.91
 -19   3  -9   12.44   12.06
  19  -3   9    6.52   11.93
  19  -3   9   -7.49    8.76
 -19   4  -9   -5.20   11.89
 -19   4  -9    6.18   19.49
  19  -4   9  -12.86    8.83
  19  -4   9   25.44   13.33
 -19   5  -9   13.75   11.66
 -19   5  -9  -14.60   19.47
  19  -5   9  -10.46   14.88
 -19   6  -9  -14.80   12.32
  19  -6   9    8.60   15.88
  20  -1  -9  -21.52   14.29
 -20   1   9   22.21   15.30
 -20   1   9   -0.59   11.56
  20  -2  -9    1.22   15.92
 -20   2   9    6.40   11.58
   0   0  10  217.32   50.92
  -1   0 -10    0.37    0.91
   0   1 -10   -0.43    1.82
   0  -1  10    0.24    0.74
  -1   1 -10   27.58    9.27
  -1   1 -10   35.96    7.87
   1  -1  10   28.41    7.15
   1  -1  10   29.45    7.19
  -1   2 -10    8.77    2.49
  -1   2 -10   12.17    1.98
   2   1 -10   -0.08    2.49
   2   1 -10    7.37    1.98
   1  -2  10    7.38    1.69
   1  -2  10    6.89    1.81
  -2   0 -10   65.63   24.69
   2   0 -10  142.14   23.40
  -2   1 -10    6.90    1.87
  -2   1 -10    3.97    2.76
   1   2 -10    5.07    1.87
   2  -1  10    9.23    1.74
   2  -1  10    4.39    1.64
   2   2 -10   22.85    6.22
  -2   2 -10   22.95    7.44
   2   2 -10   26.46    7.19
  -2   2 -10   27.26    7.08
  -2   2 -10   19.84    6.43
   2  -2  10   22.49    6.58
   2  -2  10   27.26    6.44
  -2  -2  10   30.71    5.67
   2  -2  10   22.65    5.76
   3   2 -10   18.35    6.17
  -2   3 -10   26.93    6.38
  -2   3 -10   24.22    5.95
  -2   3 -10   26.35    5.87
  -2   3 -10   23.95    5.62
   3   2 -10   20.35    6.44
   2  -3  10   19.37    5.22
  -3  -2  10   26.15    5.12
   2  -3  10   15.97    5.98
   2  -3  10   19.96    5.25
   2  -3  10   25.91    6.18
   3   1 -10    5.21    2.65
  -1   3 -10    6.25    1.97
  -1   3 -10    4.80    1.54
   1  -3  10    4.31    1.62
   1  -3  10    4.18    1.52
  -3  -1  10    3.02    1.36
  -3   0 -10    0.46    0.90
   3   0 -10   -0.25    1.11
   0   3 -10   -0.07    1.29
   3   0 -10    2.77    2.59
  -3   0  10   -0.33    0.90
   3   0  10   -0.57    1.17
   1   3 -10    8.42    2.16
  -3   1 -10    5.05    2.48
  -3   1 -10    5.20    1.59
   1   3 -10    2.78    1.80
  -3   1 -10    2.86    2.72
  -1  -3  10    3.98    1.46
   3  -1  10    5.40    1.61
   3  -1  10    4.01    2.14
   3  -1  10    6.09    1.36
  -3   2 -10   16.77    5.74
   2   3 -10   16.87    5.62
  -3   2 -10   16.89    6.80
  -3   2 -10   28.29    6.08
   2   3 -10   26.00    6.29
   3  -2  10   23.39    5.24
   3  -2  10   24.19    5.94
  -2  -3  10   21.32    5.19
   3  -2  10   22.88    5.79
  -3   3 -10    0.45    2.04
   3   3 -10   -0.26    0.76
  -3   3 -10    0.18    1.19
  -3   3 -10    0.45    1.45
   3   3 -10   -1.22    1.90
  -3   3 -10    0.97    1.32
  -3  -3  10    0.60    1.07
   3  -3  10    0.78    0.70
   3  -3  10    0.81    0.64
   3  -3  10    0.04    2.10
  -3  -3  10    0.22    1.05
  -3  -3  10    0.34    1.11
   3  -3  10   -1.13    1.27
   4   3 -10    0.09    0.89
   4   3 -10   -0.77    1.60
  -3   4 -10   -0.45    1.34
  -3   4 -10    2.36    2.55
   4   3 -10    0.82    2.13
   4   3 -10   -0.19    1.26
  -4  -3  10   -0.46    1.98
   3  -4  10   -0.05    0.66
  -4  -3  10    0.29    1.11
  -4  -3  10   -0.76    1.41
   3  -4  10   -1.15    1.63
   3  -4  10   -3.04    3.00
   4   2 -10    6.51    3.35
  -2   4 -10   11.28    3.78
   4   2 -10    5.68    2.98
   4   2 -10    6.91    2.65
  -4  -2  10   11.02    2.28
   2  -4  10    7.94    3.49
   2  -4  10   12.53    2.80
   4   1 -10    8.42    4.82
   4   1 -10   12.28    4.35
  -1   4 -10   10.92    3.57
   4   1 -10   18.01    3.49
  -4  -1  10   12.09    3.16
   1  -4  10   14.58    3.17
   1  -4  10   12.32    4.15
   0   4 -10    0.27    1.74
   4   0 -10   -0.25    1.13
   0   4 -10    0.05    1.42
  -4   0 -10    0.17    0.88
   4   0 -10    2.26    2.85
   0  -4  10    0.67    0.84
  -4   0  10    1.14    0.98
  -4   1 -10    9.37    4.12
   1   4 -10   11.81    3.81
   1   4 -10   12.55    3.47
  -4   1 -10   15.22    3.72
   4  -1  10    9.82    3.75
  -1  -4  10   13.67    3.10
  -4   2 -10    9.66    2.64
  -4   2 -10    9.46    2.99
  -4   2 -10   11.42    3.39
   2   4 -10    7.08    2.85
   2   4 -10   10.63    3.10
   4  -2  10    5.48    3.16
  -2  -4  10   10.39    2.53
   4  -2  10    8.49    2.41
  -2  -4  10   12.21    2.46
   4  -2  10   11.52    2.80
  -4   3 -10   -0.64    1.39
  -4   3 -10    4.26    2.26
  -4   3 -10   -0.21    1.55
   3   4 -10   -0.16    0.50
   3   4 -10   -0.99    1.81
  -4   3 -10   -0.84    1.70
   4  -3  10   -0.03    0.66
  -3  -4  10    0.06    1.15
   4  -3  10    1.51    1.36
   4  -3  10   -0.09    0.70
  -4   4 -10   25.37    5.94
   4   4 -10   17.66    5.49
  -4   4 -10   27.62    5.67
   4   4 -10   25.51    5.40
   4   4 -10   21.73    5.96
   4  -4  10   22.57    5.12
  -4  -4  10   20.52    5.10
   4  -4  10   13.88    4.99
   4  -4  10   24.32    6.89
  -4  -4  10   21.91    5.10
   5   4 -10   28.28    8.71
   5   4 -10   35.79    8.31
   5   4 -10   39.37    9.25
  -5  -4  10    5.51   10.67
  -5  -4  10   39.33    7.96
  -5  -4  10   48.17    8.04
   5   3 -10    8.76    2.24
   5   3 -10    6.31    2.53
   5   3 -10    7.01    3.06
   5   3 -10    7.68    2.61
  -5  -3  10    8.33    2.65
   3  -5  10   -6.86    4.66
  -5  -3  10    7.93    2.06
  -5  -3  10   10.55    3.14
   5   2 -10   33.91    7.78
   5   2 -10   38.80    7.85
  -2   5 -10   28.89    8.74
   5   2 -10   30.57    8.80
  -2   5 -10   34.11    8.14
   5   2 -10   27.03    8.68
  -5  -2  10   36.91    9.14
  -5  -2  10   27.08    7.15
   2  -5  10   29.68    7.35
  -5  -2  10   28.20    8.83
   2  -5  10   39.56    9.64
  -1   5 -10    1.19    1.99
   5   1 -10    0.07    2.86
   5   1 -10    0.28    1.36
  -1   5 -10    0.91    1.60
   5   1 -10    0.57    2.56
   5   1  10    2.06    1.47
  -5  -1  10    0.97    1.00
   1  -5  10    2.15    1.01
   1  -5  10   -1.19    2.53
   5   0 -10   -1.18    2.98
  -5   0 -10    0.24    0.89
  -5   0 -10   -0.51    3.24
   0   5 -10   -0.11    1.52
   0   5 -10   -0.93    2.03
   5   0 -10   -0.72    1.20
   5   0  10    0.35    1.41
   5   0  10   -0.83    2.24
  -5   0  10   -0.07    1.11
   0  -5  10    0.25    1.02
   1   5 -10    0.47    2.02
   1   5 -10    0.18    1.60
  -5   1 -10    4.43    2.37
  -5   1 -10    1.73    1.02
   5  -1  10    1.92    1.48
  -1  -5  10    0.99    1.10
   2   5 -10   32.76    7.95
   2   5 -10   33.50    8.55
  -5   2 -10   30.12   10.46
  -5   2 -10   36.77    8.01
   5  -2  10   32.18    8.08
  -2  -5  10   29.66    7.55
   5  -2  10   33.14    8.31
  -5   3 -10    6.36    2.26
  -5   3 -10    7.01    3.44
   3   5 -10    9.09    2.69
  -5   3 -10    5.43    2.62
   3   5 -10    6.32    1.88
   5  -3  10    7.46    1.83
   5  -3  10    6.33    1.83
  -3  -5  10   11.80    2.17
   5  -3  10    5.98    2.67
   4   5 -10   34.77    8.33
   4   5 -10   39.75    9.12
  -5   4 -10   30.28    9.18
  -5   4 -10   21.20    9.40
  -5   4 -10   45.73    9.60
   4   5 -10   38.18    8.55
  -5   4 -10   28.36    9.48
   5  -4  10   32.79    9.00
   5  -4  10   38.06    8.16
   5  -4  10   33.57    8.18
   5  -4  10   31.73   10.43
  -4  -5  10   41.27    8.13
   5   5 -10    0.14    2.40
   5   5 -10    1.47    2.19
  -5   5 -10   -0.58    3.71
   5   5 -10   -0.03    1.05
  -5   5 -10    0.52    1.40
   5  -5  10   -0.41    4.58
  -5  -5  10   -0.24    1.36
   5  -5  10    0.77    2.08
   6   5 -10   12.83    3.53
   6   5 -10   10.11    2.71
   6   5 -10    6.15    3.65
  -6  -5  10    9.19    2.80
   5  -6  10    0.12    5.69
  -6  -5  10   12.49    2.94
   6   4 -10    4.01    1.63
   6   4 -10    2.41    2.42
   6   4 -10    1.31    2.29
  -4   6 -10    4.43    1.80
   6   4 -10    3.18    2.67
  -6  -4  10    3.53    3.17
  -6  -4  10    2.56    1.74
  -6  -4  10    4.25    2.85
  -6  -4  10    3.26    1.62
  -3   6 -10  129.54   35.38
   6   3 -10  134.85   33.19
   6   3 -10  121.91   34.43
   6   3 -10  105.15   30.17
   6   3 -10  131.23   32.38
  -6  -3  10  121.40   35.08
  -6  -3  10  130.88   28.08
  -6  -3  10  132.38   33.10
   3  -6  10  114.45   35.82
   6   2 -10   12.24    4.58
   6   2 -10   13.12    3.92
   6   2 -10   13.62    3.81
  -2   6 -10   25.71    4.68
   6   2 -10    7.56    4.46
  -2   6 -10   13.32    4.15
   2  -6  10   16.39    3.51
  -6  -2  10   11.27    3.26
  -6  -2  10   10.99    4.25
  -6  -2  10   16.73    5.46
   6   1 -10   51.94   10.35
   6   1 -10   42.17   12.59
  -1   6 -10   46.41   11.06
  -1   6 -10   50.50   11.47
   6   1 -10   42.88   11.98
  -6  -1  10   38.07    9.87
   1  -6  10   37.41    9.82
   6   1  10   42.36    9.60
   6   0 -10    8.91    3.98
  -6   0 -10    1.89    1.99
  -6   0 -10    2.33    3.84
   0   6 -10    7.18    2.36
   0   6 -10    9.85    2.99
   6   0 -10    7.36    2.10
   0  -6  10    7.46    1.94
  -6   0  10    8.67    1.99
   6   0  10    7.79    3.08
   6   0  10   10.00    2.24
   1   6 -10   38.86   10.55
   6  -1 -10   32.29   10.53
  -6   1 -10   44.51   10.89
  -6   1 -10   30.69   10.78
   1   6 -10   40.94   10.09
   6  -1  10   37.59   10.34
   6  -1  10   41.27    9.88
  -1  -6  10   38.78    9.11
   2   6 -10   13.77    3.96
   2   6 -10   13.82    4.21
  -6   2 -10   14.36    3.47
  -6   2 -10   12.69    4.34
  -2  -6  10   12.78    3.42
   6  -2  10   11.61    3.08
  -6   3 -10  120.43   31.57
   3   6 -10  142.66   30.77
  -6   3 -10  122.97   34.04
  -6   3 -10  130.41   38.61
   3   6 -10  118.35   32.74
  -6   3 -10  111.51   33.20
  -3  -6  10  147.88   29.39
   6  -3  10  122.08   30.90
   6  -3  10  140.54   30.26
   6  -3  10  139.74   32.61
   6  -3  10  138.20   34.70
  -6   4 -10    4.35    3.70
   4   6 -10   -0.16    3.04
  -6   4 -10    3.59    2.73
   4   6 -10    3.20    2.33
  -6   4 -10    4.34    1.69
   6  -4  10    4.15    2.36
   6  -4  10    2.04    4.46
   6  -4  10    4.02    1.17
   5   6 -10   11.87    3.38
   5   6 -10    8.62    3.69
  -6   5 -10    7.51    4.81
  -6   5 -10    8.64    2.95
   6  -5  10    7.13    5.66
   6  -5  10    7.62    3.38
  -5  -6  10    8.34    2.69
  -6   6 -10    0.26    4.56
   6   6 -10   -0.35    2.56
   6   6 -10    2.84    3.22
   6  -6  10   -2.13    5.62
  -6  -6  10   -0.49    1.67
   7   6 -10    3.54    3.48
   7   6 -10    0.09    2.75
  -7  -6  10    1.46    1.89
   6  -7  10    0.15    5.90
   7   5 -10    3.17    3.01
  -5   7 -10    7.92    2.52
   7   5 -10    5.73    3.25
   5  -7  10    4.96    5.61
  -7  -5  10    5.15    2.25
  -7  -5  10    4.96    2.18
  -4   7 -10   63.60   17.53
   7   4 -10   57.52   14.50
  -7  -4  10   64.53   13.84
  -7  -4  10   60.84   14.28
   7   3 -10   -1.03    2.82
  -3   7 -10   -0.07    1.88
   7   3 -10    0.54    2.23
  -7  -3  10   -0.07    1.33
  -2   7 -10   62.94   23.89
   7   2 -10   90.95   20.87
   7   2 -10   78.15   23.05
  -7  -2  10   96.07   19.22
   7   2  10   84.20   18.62
  -1   7 -10   18.39    7.08
   7   1 -10   23.72    7.63
  -7  -1 -10    9.33    8.04
   7   1 -10   24.75    6.46
   7   1 -10   21.79    6.37
  -7  -1  10   30.09    6.03
   7   1  10   20.39    5.89
   7   1  10   37.49    6.82
  -7  -1  10   25.18    7.99
  -7   0 -10   -1.49    3.57
   7   0 -10   -0.77    4.62
   7   0 -10    0.97    3.49
   0   7 -10    0.70    1.89
   7   0 -10   -0.08    1.45
   7   0  10   -0.46    1.81
  -7   0  10   -0.16    1.34
   7   0  10    1.90    2.70
   0  -7  10    0.64    1.52
   1   7 -10   20.15    7.05
   1   7 -10   27.80    7.35
   7  -1 -10   23.23    6.90
  -7   1 -10   27.96    7.36
   7  -1  10   29.98    6.76
  -1  -7  10   28.53    6.22
   7  -1  10   27.14    7.12
   2   7 -10   81.62   21.54
  -7   2 -10   78.12   22.44
   2   7 -10   84.03   21.91
   7  -2  10   80.18   22.47
  -2  -7  10   89.12   19.46
   7  -2  10   82.37   21.83
   3   7 -10    0.21    3.15
  -7   3 -10   -1.14    2.68
   3   7 -10    0.99    2.14
  -7   3 -10   -1.32    4.08
   7  -3  10    0.67    3.98
  -3  -7  10    0.20    1.47
   7  -3  10    0.42    2.33
  -7   4 -10   42.36   15.87
  -7   4 -10   60.74   14.56
   4   7 -10   45.46   14.42
   7  -4  10   61.44   14.45
   7  -4  10   60.57   16.75
   5   7 -10    4.77    2.75
   5   7 -10    4.31    3.72
  -7   5 -10    5.92    4.67
   7  -5  10    3.68    5.78
  -5  -7  10    5.19    2.24
   7  -5  10    4.28    2.92
   6   7 -10   -0.27    2.66
   6   7 -10    5.16    3.76
  -7   6 -10    1.09    4.88
  -6  -7  10   -0.11    1.95
   7  -6  10    3.46    2.71
   7  -6  10   -1.04    6.11
   7   7 -10    5.87    4.04
   7   7 -10    1.48    2.86
   7  -7  10    3.44    6.51
  -7  -7  10    3.42    2.14
   8   7 -10   -0.49    4.40
   8   7 -10    4.02    3.25
  -8  -7  10    1.48    2.31
   8   6 -10   -3.14    3.72
   8   6 -10    1.30    3.02
  -8  -6  10    0.22    1.93
   8   5 -10   -0.16    3.46
   8   5 -10   -2.45    3.09
  -8  -5  10    2.34    1.93
  -8  -5  10    1.26    1.70
   8   4 -10   11.66    4.73
   8   4 -10   20.28    5.11
   8   4 -10   11.48    5.04
   8   4 -10   13.07    4.43
  -8  -4  10   14.88    5.81
  -8  -4  10   18.14    4.02
  -8  -4  10   11.87    5.44
  -8  -4  10   17.47    4.11
   8   3 -10   10.85    3.77
   8   3 -10    9.11    3.14
   8   3 -10    9.71    4.07
   8   3 -10    8.73    3.44
  -8  -3  10    9.71    2.81
  -8  -3  10    3.19    4.55
  -8  -3  10    8.95    2.61
  -8  -3  10    8.43    3.74
   8   2 -10    6.59    3.28
  -8  -2 -10   -0.44    5.74
   8   2 -10   10.48    3.38
   8   2 -10   11.61    4.12
   8   2 -10   13.17    4.12
   8   2  10   17.95    3.14
  -8  -2  10    6.39    2.74
  -8  -2  10    8.74    3.78
  -8  -2  10   11.30    5.02
   8   1 -10    9.37    4.83
  -8  -1 -10    7.44    5.26
   8   1 -10    9.04    2.95
   8   1 -10   12.66    3.13
   8   1 -10    9.68    4.28
   8   1  10    7.09    2.99
  -8  -1  10    6.71    4.92
  -8  -1  10    7.28    2.61
   8   1  10   15.63    3.90
   8   0 -10    6.91    5.61
   8   0 -10    8.36    2.45
  -8   0 -10    6.60    4.14
   8   0 -10    4.62    4.17
   8   0  10    6.84    2.75
  -8   0  10    5.87    2.30
   8   0  10    8.68    3.40
   8  -1 -10    5.37    2.65
   8  -1 -10    5.25    6.65
  -8   1 -10    9.25    3.72
   8  -1  10    5.31    3.22
   8  -1  10   10.27    3.73
  -8   2 -10    9.87    4.14
   2   8 -10    9.90    3.42
  -2  -8  10   10.98    3.20
   8  -2  10    9.96    3.69
   8  -2  10    9.03    4.55
  -8   3 -10    9.46    4.19
   3   8 -10   10.06    3.47
  -8   3 -10    8.69    5.50
   8  -3  10   13.43    3.77
   8  -3  10   11.28    5.32
  -3  -8  10   10.14    3.20
   4   8 -10   17.38    4.79
  -8   4 -10   17.28    6.18
  -8   4 -10   17.91    5.62
   8  -4  10   16.33    5.00
   8  -4  10   11.78    6.98
   5   8 -10    3.93    4.37
  -8   5 -10    0.24    4.96
   5   8 -10    0.27    2.52
  -5  -8  10   -0.13    1.99
   8  -5  10   -2.19    6.10
   8  -5  10   -1.14    2.89
   6   8 -10    5.71    4.28
   6   8 -10   -0.10    2.75
  -8   6 -10    4.01    5.25
   8  -6  10    0.51    3.01
   8  -6  10   -1.13    6.52
  -6  -8  10    0.98    2.34
   7   8 -10    4.81    4.63
   7   8 -10    0.41    3.11
  -7  -8  10    2.19    2.53
   8  -7  10    2.89    7.42
   8   8 -10   30.37   10.31
   8   8 -10   33.11    9.67
  -8  -8  10   43.31    8.70
   8  -8  10   18.07   12.70
   9   8 -10   -2.53    3.70
   9   8 -10   -5.85    4.85
  -9  -8  10    5.10    2.82
   9   7 -10    9.08    4.08
   9   7 -10    3.87    5.08
  -9  -7  10    7.99    3.01
   9   6 -10   18.08    6.12
   9   6 -10    4.70    6.20
  -9  -6  10   19.68    4.94
  -9  -6  10   25.48    4.91
   9   5 -10   11.92    4.57
   9   5 -10    9.98    4.58
  -9  -5  10   15.35    3.43
  -9  -5  10    9.64    3.32
   9   4 -10    1.36    3.26
   9   4 -10    0.74    2.18
   9   4 -10    0.64    3.42
  -9  -4  10    2.17    3.48
  -9  -4  10   -2.37    4.23
  -9  -4  10    1.85    1.68
  -9  -4  10    1.10    1.86
   9   3 -10   15.32    5.10
   9   3 -10   12.41    4.19
   9   3 -10   16.74    4.45
   9   3 -10   13.40    4.76
  -9  -3  10    9.28    4.76
  -9  -3  10   16.17    3.76
  -9  -3  10   11.10    5.69
  -9  -3  10   10.90    3.50
   9   2 -10    1.71    3.79
  -9  -2 -10    0.47    6.10
   9   2 -10    5.97    3.70
   9   2 -10    7.66    2.80
   9   2 -10    3.03    2.79
  -9  -2  10    4.41    1.98
   9   2  10   11.16    2.74
  -9  -2  10    3.64    3.31
  -9  -2  10    1.00    4.94
   9   2  10    2.89    3.91
   9   1 -10    4.44    3.90
   9   1 -10    0.60    2.26
   9   1 -10   -2.45    4.62
  -9  -1 -10    0.57    5.20
   9   1 -10    3.46    2.49
   9   1  10    1.87    2.55
   9   1  10   -1.37    3.49
  -9  -1  10    2.41    5.00
  -9  -1  10    3.93    1.70
   9   0 -10   -0.16    4.14
  -9   0 -10   -1.40    4.29
   9   0 -10   -1.01    2.09
   9   0 -10    1.04    5.48
   9   0  10    4.59    2.54
  -9   0  10   -0.66    1.71
  -9   0  10   -1.67    4.80
   9   0  10    2.26    3.32
   9  -1 -10    1.91    6.80
   9  -1 -10    2.27    1.98
  -9   1 -10    7.32    3.77
   9  -1  10   -1.13    3.64
   9  -1  10    2.31    2.85
  -9   2 -10    9.73    3.97
   9  -2  10    4.94    4.53
   9  -2  10    7.56    3.51
  -9   3 -10   16.00    5.39
  -9   3 -10   16.77    6.88
   9  -3  10   17.81    4.95
   9  -3  10   13.74    6.47
  -9   4 -10    0.10    3.89
  -9   4 -10   -1.18    5.49
   9  -4  10    4.95    5.76
   9  -4  10    3.47    3.01
  -9   5 -10    7.33    5.05
  -9   5 -10    9.62    6.30
   9  -5  10    0.48    7.16
   9  -5  10   11.25    3.91
  -9   6 -10    9.23    7.47
   9  -6  10   15.59    5.35
   9  -6  10    8.65    8.98
   7   9 -10   10.01    3.93
  -9   7 -10    5.01    6.72
   9  -7  10    8.89    8.33
   8   9 -10    3.25    3.50
   9  -8  10   -0.21    8.45
   9   9 -10   -0.13    3.88
  10   8 -10   18.98    5.32
  10   8 -10    4.39    4.10
 -10  -8  10   -0.17    2.62
  10   7 -10    7.44    4.19
  10   7 -10    6.96    5.50
 -10  -7  10    5.85    3.01
  10   6 -10   -1.56    3.72
  10   6 -10   -4.97    4.62
 -10  -6  10   -0.12    2.18
 -10  -6  10    1.03    2.61
  10   5 -10   14.13    5.13
  10   5 -10   16.85    5.13
 -10  -5  10    9.87    3.80
 -10  -5  10   13.45    3.76
  10   4 -10    9.48    4.32
  10   4 -10   10.84    4.64
 -10  -4  10   15.68    3.35
 -10  -4  10   12.60    5.84
 -10  -4  10   11.88    3.18
 -10  -4  10    8.74    5.00
 -10  -3 -10   -1.12    6.79
  10   3  10   -6.61    3.05
 -10  -2 -10    4.92    6.32
  10   2 -10    0.93    2.71
  10   2 -10   -5.31    4.11
  10   2 -10    3.47    3.78
  10   2 -10    0.62    2.68
 -10  -2  10    2.94    5.37
  10   2  10   -1.11    2.83
 -10  -2  10    1.73    3.30
  10   2  10   -0.13    3.89
 -10  -2  10   -0.25    1.66
  10   1 -10    0.57    2.72
  10   1 -10   -0.70    4.00
 -10  -1 -10   -4.11    5.47
  10   1 -10   -0.56    2.49
  10   1 -10   -3.84    5.20
  10   1  10   -2.40    3.83
 -10  -1  10   -0.27    1.82
  10   1  10    1.09    2.86
 -10  -1  10    0.27    5.43
 -10  -1  10    0.09    3.62
 -10   0 -10   12.44    5.59
  10   0 -10   17.39    7.46
  10   0 -10   24.21    4.29
  10   0 -10   10.94    4.03
  10   0 -10    9.30    6.26
 -10   0  10   12.17    3.91
  10   0  10    8.66    4.34
 -10   0  10   12.55    6.77
  10   0  10   12.73    4.93
 -10   1 -10   -1.38    4.20
  10  -1 -10   -0.76    2.13
  10  -1 -10   -8.93    7.52
  10  -1  10   -0.55    4.10
  10  -1  10   -0.96    3.22
 -10   2 -10   -0.26    6.63
 -10   2 -10    0.59    4.25
  10  -2  10   -5.72    4.82
  10  -2  10    1.77    3.30
 -10   3 -10   -3.18    4.55
 -10   3 -10   -1.82    7.29
 -10   4 -10   11.35    6.91
 -10   4 -10    8.20    5.17
  10  -4  10  -22.39    7.13
  10  -4  10    9.38    4.17
 -10   5 -10   14.15    5.87
 -10   5 -10    7.51    7.43
  10  -5  10   14.27    5.03
  10  -5  10   14.43    8.22
 -10   6 -10    4.37    6.73
  10  -6  10    0.19    7.70
  10  -6  10    1.22    3.80
 -10   7 -10    4.18    6.81
  10  -7  10    7.99    8.75
  10  -8  10    6.21    9.02
  11   9 -10   22.58    7.55
  11   7 -10   -1.46    5.36
  11   7 -10    1.24    4.68
 -11  -7  10    0.73    2.88
 -11  -7  10   -1.19    3.07
  11   6 -10   -3.21    4.73
  11   6 -10   -3.20    4.27
 -11  -6  10   -0.12    2.57
 -11  -6  10    0.39    2.38
  11   5 -10    0.64    3.90
  11   5 -10    1.23    4.35
 -11  -5  10    3.41    2.21
 -11  -5  10    1.60    2.20
  11   4 -10    2.98    3.88
  11   4 -10    1.07    3.77
 -11  -4  10    3.81    2.04
 -11  -4  10    0.37    2.03
  11   3 -10    1.24    2.90
  11   3 -10   -0.55    3.71
  11   3 -10   -4.03    3.86
  11   3 -10    1.95    3.23
 -11  -3 -10    4.46    7.51
 -11  -3  10   -0.39    3.78
  11   3  10    0.13    3.12
 -11  -3  10    1.31    5.63
 -11  -3  10    0.10    1.95
 -11  -3  10   -0.44    1.86
  11   2 -10    2.81    4.21
  11   2 -10    2.16    4.39
  11   2 -10   -0.14    3.17
 -11  -2 -10    7.56    7.17
  11   2 -10    1.27    2.99
 -11  -2  10   -1.52    1.80
 -11  -2  10    0.25    5.86
 -11  -2  10    0.28    3.67
  11   2  10   -2.15    4.22
  11   2  10   -0.49    3.14
  11   1 -10   16.75    6.58
 -11  -1 -10   22.05    8.73
  11   1 -10   27.74    8.35
  11   1 -10   21.36    6.53
  11   1 -10   20.62    7.95
  11   1  10   28.80    6.25
 -11  -1  10   27.68    8.81
 -11  -1  10   20.18    7.74
  11   1  10   22.00    6.98
 -11  -1  10   29.55    6.18
  11   0 -10   -2.21    4.99
 -11   0 -10    2.61    5.18
  11   0 -10   11.49    7.18
  11   0 -10    0.27    3.04
  11   0 -10    0.89    2.62
 -11   0  10   -0.11    1.96
 -11   0  10    3.69    6.66
  11   0  10   -5.52    4.26
  11   0  10    1.29    3.40
  11  -1 -10   20.29    5.91
  11  -1 -10   13.07   10.45
 -11   1 -10   31.13    7.35
  11  -1  10   18.47    6.36
  11  -1  10    8.64    7.13
  11  -2 -10    0.10    2.26
 -11   2 -10    2.00    4.78
 -11   2 -10    1.80    8.35
  11  -2 -10    3.61    9.35
 -11   3 -10    5.32    5.04
 -11   3 -10    3.88    7.50
  11  -3  10   13.77    6.79
  11  -3  10    3.37    4.13
 -11   4 -10    2.47    7.35
 -11   4 -10    3.56    5.14
  11  -4  10    6.41    4.00
  11  -4  10    5.64    6.97
 -11   5 -10   -4.03    5.13
 -11   5 -10    3.04    7.42
  11  -5  10    0.16    3.85
  11  -5  10   -7.32    7.72
 -11   6 -10    0.37    7.68
 -11   6 -10   -4.24    5.35
  11  -6  10   -0.21    8.31
  11  -6  10    1.68    4.05
 -11   7 -10    8.22    7.84
  11  -7  10    4.55    9.48
  12   9 -10   -4.62    5.23
 -12  -8  10    1.92    3.26
  12   7 -10    1.50    4.86
 -12  -7  10    2.48    3.04
  12   6 -10   -2.13    4.52
  12   6 -10    0.52    5.19
 -12  -6  10    0.27    2.53
 -12  -6  10   -1.20    2.87
  12   5 -10    0.13    4.40
  12   5 -10   -0.22    4.68
 -12  -5  10   -2.94    2.27
 -12  -5  10   -0.85    2.38
  12   4 -10    2.34    4.25
  12   4 -10    0.92    4.15
 -12  -4  10    2.01    2.25
 -12  -4  10    3.26    2.08
  12   3 -10   -0.17    3.77
  12   3 -10    2.70    4.39
 -12  -3  10    6.39    4.30
 -12  -3  10    2.23    2.12
 -12  -3  10    0.21    2.20
 -12  -3  10   -1.24    6.23
  12   2 -10    3.33    3.59
  12   2 -10    7.06    4.73
  12   2 -10    1.49    3.90
  12   2 -10    1.45    5.09
 -12  -2  10   13.87    6.83
 -12  -2  10    5.26    2.63
 -12  -2  10    4.90    4.63
  12   2  10   -0.15    4.87
 -12  -2  10    2.30    2.61
  12   1 -10    2.66    3.39
  12   1 -10    7.75    6.02
  12   1 -10   -3.67    3.29
  12   1 -10    8.67    5.09
 -12  -1 -10    3.08    6.25
  12   1  10   -0.94    4.61
 -12  -1  10    2.89    2.30
 -12  -1  10   -0.11    4.63
 -12  -1  10    1.95    7.01
 -12   0 -10   23.74    7.16
  12   0 -10   19.40    5.18
  12   0 -10   20.86    5.28
  12   0 -10   12.24    8.68
  12   0  10   -0.14    5.13
 -12   0  10   12.78    8.38
 -12   0  10   21.90    5.00
  12   0  10   13.30    6.05
  12  -1 -10    9.42    8.94
 -12   1 -10   -7.91    5.45
  12  -1  10   -3.74    5.00
 -12   1  10   -0.81    6.97
 -12   2 -10   22.78    9.67
  12  -2 -10    9.50   10.64
 -12   2 -10   20.53    6.16
  12  -2  10    4.47    6.81
 -12   3 -10    2.77    5.72
 -12   3 -10   23.84    8.39
  12  -3  10   13.69    7.15
 -12   4 -10    3.37    5.60
  12  -4  10    2.07    7.62
 -12   7 -10    7.15    8.38
  12  -7  10    2.55    4.74
  12  -8  10    9.39   10.68
  13   9 -10   -4.07    5.71
 -13  -9  10    6.64    3.89
  13   8 -10    3.02    5.50
 -13  -8  10   -2.07    3.55
 -13  -8  10    0.20    3.41
  13   6 -10    2.71    5.15
 -13  -6  10    3.05    2.71
 -13  -5  10   -0.11    2.40
 -13  -5  10    2.07    2.53
 -13  -3 -10   -2.42    8.89
  13   3  10   -0.16    3.85
  13   3  10    2.40    5.09
  13   2 -10   -0.81    5.36
 -13  -2 -10   13.32    8.86
  13   2 -10   -0.42    3.62
 -13  -2  10   -2.31    4.81
  13   2  10   -4.99    4.86
  13   2  10    3.85    4.07
 -13  -2  10   -6.07    7.47
  13   1 -10   15.14    7.62
  13   1 -10    4.78    4.91
 -13  -1  10   21.11    8.77
 -13  -1  10   10.32    6.63
  13   1  10    4.09    4.98
  13   0 -10    8.68    7.70
  13   0 -10   -1.30    3.78
 -13   0  10    6.78    7.89
 -13   0  10   -1.96    5.64
  13   0  10    1.63    4.47
 -13   1 -10    3.87   11.20
  13  -1 -10    2.64   10.22
  13  -1  10   -5.04    5.60
 -13   1  10    7.94    8.87
  13  -2 -10    7.23   11.06
 -13   2 -10   -1.93   10.31
  13  -2  10  -12.97    4.89
 -13   3 -10   -9.39    9.75
  13  -3  10   -9.88    5.53
 -13   4 -10   45.50   17.44
 -13   4 -10    3.27   17.52
  13  -4  10   45.73   15.09
 -13   5 -10    3.33    6.32
 -13   5 -10   -8.66    9.99
  13  -5  10    4.90    5.23
  13  -5  10  -10.75    9.25
 -13   6 -10   11.53    6.83
 -13   6 -10   -5.09    9.76
  13  -6  10    0.24    9.61
  13  -6  10   -3.88    5.07
 -13   7 -10   -2.96    9.79
 -13   7 -10  -12.27    6.99
  13  -7  10   -1.07    5.11
  13  -7  10   -4.50   10.85
  13  -8  10  -20.49   11.63
 -14  -3 -10   -4.89    9.98
  14   3  10    0.55    5.51
  14   3  10   -8.70    4.55
 -14  -2 -10    0.98    9.33
  14   2  10    3.58    5.30
 -14  -2  10   -7.46    8.29
 -14  -2  10    2.05    5.41
  14   2  10   -2.42    4.76
  14   1 -10   -1.38    7.11
 -14  -1 -10    4.59    8.22
  14   1 -10    9.61    4.20
  14   1  10    5.10    4.91
 -14  -1  10    1.58    5.89
  14   1  10    0.65    5.57
 -14   0 -10    4.98    7.52
  14   0 -10  -11.50    8.27
 -14   0  10    0.16    6.13
  14   0  10    0.19    5.07
  14   0  10    3.64    6.00
 -14   1 -10   -9.04   12.61
 -14   1 -10   11.40    7.14
  14  -1  10   -7.31    5.43
  14  -1  10    3.00    6.72
 -14   2 -10   -3.87    6.93
 -14   2 -10    8.64   11.30
  14  -2  10   -4.41    5.62
  14  -2  10    7.01    7.32
 -14   3 -10    1.48    7.16
 -14   3 -10    4.93   11.37
  14  -3  10    5.62    8.48
  14  -3  10    4.69    5.76
 -14   4 -10    3.71   11.36
 -14   4 -10    7.26    7.62
  14  -4  10    8.72    9.77
  14  -4  10   17.84    6.45
 -14   5 -10   -2.94   10.61
 -14   5 -10   -3.68    7.09
  14  -5  10    3.04    5.73
  14  -5  10   -4.62    9.68
 -14   6 -10   -7.80   10.21
 -14   6 -10   -9.38    7.18
  14  -6  10   -3.06   10.17
  14  -6  10    5.88    5.44
 -14   7 -10   -4.38   10.24
 -14   7 -10   14.18    7.40
  14  -7  10   -7.87   11.45
  14  -7  10   -9.63    5.53
 -14   8 -10    8.28    8.33
  14  -8  10   18.71   12.53
 -15  -4 -10   13.11   10.82
 -15  -3 -10  -10.09   10.90
  15   3  10   -1.81    5.91
  15   3  10    0.19    5.15
 -15  -2 -10    2.88   10.57
  15   2  10   -0.93    5.83
  15   2  10    0.19    5.44
 -15  -1 -10   -9.01    9.16
  15   1 -10    4.41    4.55
  15   1  10    0.36    6.15
  15   1  10  -12.07    5.60
 -15  -1  10   15.12    9.61
 -15   0 -10   -2.28    8.07
  15   0 -10   -2.19    8.87
 -15   0 -10   18.23   13.76
  15   0 -10    0.19    4.52
 -15   0  10    2.40    6.89
  15   0  10   -5.23    6.07
 -15   0  10   -5.69    9.50
  15   0  10    1.23    6.22
  15  -1 -10   -9.23   10.58
 -15   1 -10  -11.45    7.93
 -15   1 -10    1.44   12.80
  15  -1  10   -7.43    6.91
  15  -1  10    7.14    5.90
 -15   1  10   -3.47    7.25
 -15   1  10  -17.09    9.56
  15  -2 -10   -7.67   12.62
 -15   2 -10    1.52    7.47
 -15   2 -10    9.30   12.94
  15  -2  10   -3.17    5.76
  15  -2  10   -0.21    7.79
 -15   3 -10   -5.47    7.60
 -15   3 -10   -7.57   12.08
  15  -3  10    5.74    8.37
 -15   4 -10    8.18    7.58
 -15   4 -10   -0.53   12.10
  15  -4  10   -3.02    6.03
  15  -4  10   -0.74    9.27
 -15   5 -10   -9.00   12.32
 -15   5 -10    0.20    7.92
  15  -5  10    0.24    6.06
  15  -5  10   -3.97   10.56
 -15   6 -10   13.31    8.02
 -15   6 -10   -1.76   12.36
  15  -6  10   -4.14   11.30
  15  -6  10    2.25    6.32
 -15   7 -10    3.39    8.01
 -15   7 -10    1.83   11.35
  15  -7  10    1.03    6.07
  15  -7  10    2.40   11.61
 -15   8 -10   -7.41    8.79
  15  -8  10   11.22   12.82
 -16  -4 -10    2.38   11.96
 -16  -3 -10  -18.64   12.68
  16   3  10  -12.92    6.94
  16   3  10    0.22    6.13
 -16  -2 -10   -9.17   11.70
  16   2  10   26.58    7.13
  16   2  10   -3.93    6.37
 -16  -1 -10   37.95   16.65
 -16  -1  10   30.94   15.18
 -16  -1  10   61.28   16.33
  16   1  10   14.48   11.30
  16   1  10    6.41   12.35
  16   0 -10    5.03    6.41
 -16   0 -10   25.86   11.21
  16   0 -10   12.04   10.69
 -16   0 -10   33.82   15.22
  16   0  10    1.98    8.37
 -16   0  10    5.69   11.52
 -16   0  10   10.23    8.51
  16   0  10   32.45    7.42
 -16   1 -10   64.11   18.77
 -16   1 -10   38.19   21.77
  16  -1 -10   92.32   21.63
 -16   1  10   41.00   19.70
  16  -1  10   99.66   16.45
 -16   2 -10   -3.17    8.69
 -16   2 -10   16.71   14.95
  16  -2 -10  -11.88   13.94
 -16   2  10   -7.38    8.70
  16  -2  10   28.63    9.39
  16  -2  10  -14.63    6.88
 -16   3 -10   -5.75   14.63
 -16   3 -10  -11.04    8.81
  16  -3  10   -7.07    6.94
  16  -3  10  -14.99    9.54
 -16   4 -10   -0.61   14.77
 -16   4 -10    4.15    8.44
  16  -4  10  -29.03   10.35
  16  -4  10   -3.40    6.72
 -16   5 -10    0.64   13.74
 -16   5 -10    9.71    8.56
  16  -5  10  -10.53    6.70
  16  -5  10   -2.89   11.23
 -16   6 -10   -4.58    8.85
 -16   6 -10  -11.90   13.69
  16  -6  10   -5.82    6.90
  16  -6  10    3.05   12.06
 -16   7 -10   -1.64    8.98
 -16   7 -10   -4.12   13.33
  16  -7  10  -14.69   12.52
  16  -7  10   -4.28    6.74
 -16   8 -10   10.62    9.54
  16  -8  10  -13.99   13.54
 -17  -4 -10   -4.70   13.54
 -17  -3 -10    6.86   13.65
  17   3  10    0.73    6.37
  17   3  10   -7.70    7.35
 -17  -2 -10    1.85   13.35
  17   2  10    0.25    6.76
  17   2  10    7.52    7.38
 -17  -1 -10   -8.82   12.05
 -17  -1 -10   12.23   16.35
  17   1  10    0.25    6.72
  17   1  10    0.23    7.63
  17   0 -10   -8.41   10.19
 -17   0 -10   -8.11   10.86
  17   0 -10    9.58    5.34
 -17   0 -10  -25.23   16.32
 -17   0  10    9.09   11.43
  17   0  10   -7.27    7.47
 -17   0  10    8.51    8.10
  17   0  10  -21.27    6.87
 -17   1 -10    6.20    9.99
  17  -1 -10   26.70   11.92
 -17   1 -10   27.21   15.91
  17  -1  10    1.26    7.06
 -17   1  10    2.42    8.54
 -17   1  10    4.88   11.32
  17  -1  10   -1.80    8.11
 -17   2 -10    0.28    9.71
 -17   2 -10    5.59   15.58
  17  -2 -10    6.23   14.02
  17  -2  10    4.66    7.03
 -17   2  10  -19.61    9.25
  17  -2  10    5.64    9.04
 -17   3 -10   11.29    9.73
 -17   3 -10    5.18   15.36
  17  -3  10   10.47    9.87
  17  -3  10    2.74    7.50
 -17   4 -10    9.62   15.58
 -17   4 -10   -2.05    9.11
  17  -4  10   -8.34    7.41
  17  -4  10    0.29   10.79
 -17   5 -10   -7.93   16.37
 -17   5 -10    3.05    9.58
  17  -5  10   25.60    8.07
  17  -5  10   -8.70   11.89
 -17   6 -10   -2.03   10.27
 -17   6 -10  -24.67   15.94
 -17   7 -10  -26.30   16.13
 -17   7 -10   -6.76   10.49
 -17   8 -10   -2.40   10.52
  17  -8  10    8.01   14.18
 -18  -4 -10  -55.83   18.22
 -18  -3 -10  130.79   41.45
  18   3  10  205.48   35.19
 -18  -2 -10   25.79   17.51
  18   2  10  -16.93    8.37
 -18  -1 -10   -9.62   18.60
 -18  -1 -10  -31.46   15.91
 -18   0 -10  -27.51   19.34
 -18   0 -10  -42.99   15.20
 -18   0  10   -8.08   13.89
  18  -1 -10  -45.24   14.32
 -18   1 -10    2.01   17.91
 -18   1 -10  -33.02   13.60
 -18   1  10    0.24   10.22
 -18   1  10    0.66   12.79
  18  -2 -10   35.95   14.85
 -18   2 -10   -3.73   11.31
 -18   2 -10  -33.05   18.79
  18  -2  10   13.14    8.88
 -18   2  10   -7.57   10.14
 -18   3 -10   26.00   24.79
 -18   3 -10   68.33   28.61
  18  -3  10  122.86   25.57
  18  -3  10   12.94   20.72
 -18   4 -10  -22.08   19.12
 -18   4 -10   18.94   10.79
  18  -4  10   -0.32    8.36
  18  -4  10  -18.32   12.11
 -18   5 -10   -9.88   18.46
 -18   5 -10    5.16   10.44
  18  -5  10    0.33    8.24
  18  -5  10   -8.61   13.22
 -18   6 -10   14.91   10.79
 -18   6 -10   -3.41   17.28
  18  -6  10   21.40   14.41
  18  -6  10    2.36    8.66
 -18   7 -10   10.49   16.85
 -18   7 -10   -4.30   11.06
  18  -7  10    1.05    8.39
  18  -7  10   -6.78   14.84
 -18   8 -10   -0.30   10.91
  18  -8  10   -2.37   15.44
 -19  -4 -10   -0.64   17.08
 -19  -3 -10   23.46   18.74
  19   3  10  -14.45    9.99
 -19  -2 -10   -6.93   17.60
 -19  -2 -10   12.75   20.09
  19   2  10   -0.31    8.66
  19   2  10   -6.89    9.51
 -19  -1 -10   -5.06   16.12
 -19  -1 -10  -11.40   19.57
  19   1  10   -4.82    9.56
  19   1  10    1.22    8.77
 -19   0 -10  -24.65   19.35
 -19   0 -10   -1.37   14.97
  19   0  10  -13.01    9.93
  19   0  10    0.30    8.33
 -19   1 -10  -34.21   20.60
 -19   1 -10   -9.40   12.74
 -19   1  10  -15.91   13.80
  19  -1  10   -0.31    8.17
  19  -1  10    8.35   10.08
 -19   1  10    3.67   10.44
 -19   2 -10    1.09   12.60
  19  -2 -10    9.15   15.15
 -19   2 -10   35.01   20.24
 -19   2  10   16.20   11.19
  19  -2  10    7.53    9.45
  19  -2  10   20.61   11.03
 -19   3 -10   20.43   20.93
 -19   3 -10   -5.41   12.14
  19  -3  10  -21.80   12.06
  19  -3  10  -13.23    8.89
 -19   4 -10  -24.91   20.73
 -19   4 -10   -7.68   12.15
  19  -4  10  -15.90   12.76
  19  -4  10  -19.08    9.79
 -19   5 -10   -7.35   11.54
  19  -5  10   -8.10   13.97
  20  -2 -10   34.12   16.08
 -20   2  10  -11.04   11.59
   1   0 -11   80.29   24.73
  -1   0  11  115.37   22.28
   1   1 -11    4.40    2.23
   1   1 -11    0.06    1.09
  -1  -1  11    1.34    0.85
   1  -1  11   -0.51    0.95
   2   1 -11   13.97    5.17
   2   1 -11   18.79    6.20
   1  -2  11   25.59    5.23
  -2  -1  11   17.33    4.70
   2   0 -11    1.00    2.48
   0   2 -11   -0.24    1.21
  -2   0 -11    1.73    0.95
   2   0 -11    0.39    1.07
  -2   0  11    0.11    0.84
   0  -2  11   -0.17    0.48
  -2   1 -11   27.02    5.82
  -2   1 -11   18.15    7.12
   1   2 -11   20.80    5.40
   1   2 -11   23.07    6.23
  -1  -2  11   16.71    4.86
   2  -1  11   24.41    5.22
   2  -1  11   21.88    5.24
   2   2 -11    0.41    1.28
  -2   2 -11   -0.44    2.12
   2   2 -11    2.09    2.04
  -2   2 -11    0.13    1.82
   2  -2  11   -0.26    1.00
   2  -2  11   -0.87    0.70
  -2  -2  11    0.64    0.88
   2  -2  11    0.47    1.55
  -2   3 -11    5.21    1.80
   3   2 -11    4.35    2.55
   3   2 -11    3.37    1.84
  -2   3 -11    5.41    2.11
   2  -3  11    4.20    2.01
   2  -3  11    5.92    1.68
  -3  -2  11    2.90    1.44
  -1   3 -11   -0.04    1.34
   3   1 -11    2.26    2.43
  -1   3 -11   -0.76    1.35
  -1   3 -11   -1.77    1.48
   1  -3  11   -1.09    1.12
  -3  -1  11   -0.05    0.94
   1  -3  11    0.20    0.80
   0   3 -11    6.93    2.58
  -3   0 -11    3.47    2.16
   0   3 -11    9.49    2.15
   3   0 -11    5.83    3.42
   3   0  11    8.46    2.04
  -3   0  11    7.37    1.90
   0  -3  11    7.07    1.80
   1   3 -11   -0.53    1.90
   1   3 -11    0.60    1.51
  -3   1 -11    0.39    2.03
  -3   1 -11    1.84    2.59
  -3   1 -11    0.62    0.99
   3  -1  11   -0.94    0.70
  -1  -3  11    0.25    0.94
   3  -1  11    0.49    1.14
  -3   2 -11    5.73    1.81
   2   3 -11    5.17    2.03
  -3   2 -11    1.83    2.45
   2   3 -11    9.26    2.53
  -3   2 -11    6.88    2.50
   3  -2  11    5.95    2.21
  -2  -3  11    4.04    1.58
   3  -2  11    4.68    1.80
   3  -2  11    6.15    1.44
   3   3 -11   -0.85    2.23
  -3   3 -11    1.99    1.36
  -3   3 -11   -1.05    1.79
  -3   3 -11   -2.11    1.50
  -3   3 -11    0.83    2.11
  -3  -3  11   -0.46    1.09
   3  -3  11   -0.73    0.84
   3  -3  11   -3.84    1.50
   3  -3  11    1.39    0.73
   3  -3  11   -6.81    2.16
  -3   4 -11    0.66    1.60
   4   3 -11    0.27    1.68
   4   3 -11    1.60    1.28
   4   3 -11   -0.66    2.41
  -3   4 -11    1.74    2.60
  -4  -3  11    2.67    1.84
   3  -4  11   -4.94    2.89
  -4  -3  11    1.27    1.35
   3  -4  11    1.16    1.61
  -4  -3  11    1.76    1.22
  -2   4 -11   30.41    8.43
   4   2 -11   25.06    9.45
  -2   4 -11   46.63   10.39
   4   2 -11   32.81    8.44
   4   2 -11   33.32    9.62
  -2   4 -11   37.12    9.23
   2  -4  11   31.41    7.92
  -4  -2  11   28.89    7.74
   2  -4  11   40.15    9.29
   2  -4  11   43.28    9.67
  -1   4 -11    1.01    1.67
   4   1 -11    2.03    1.35
  -1   4 -11    0.09    1.65
   4   1 -11    0.29    2.46
  -1   4 -11   -0.34    0.93
   1  -4  11    0.62    1.02
   1  -4  11    1.90    0.89
  -4  -1  11    0.92    0.99
   1  -4  11    0.56    1.47
   0   4 -11   -0.35    1.68
   0   4 -11    0.18    1.70
  -4   0 -11   -0.89    1.04
   4   0 -11   -1.32    1.28
   4   0 -11   -0.74    2.89
  -4   0  11   -0.52    1.04
   0  -4  11   -0.28    1.10
   0  -4  11    0.27    0.92
  -4   1 -11    0.53    1.03
   1   4 -11    2.11    1.80
   1   4 -11   -0.18    1.76
  -1  -4  11   -1.24    1.17
  -1  -4  11    2.26    1.04
   2   4 -11   34.14    8.38
  -4   2 -11   45.65   10.88
  -4   2 -11   35.80    9.25
   2   4 -11   20.43    9.45
  -4   2 -11   32.30    8.94
   4  -2  11   35.82    8.46
  -2  -4  11   31.09    8.07
   4  -2  11   38.74    9.01
  -4   3 -11    0.59    1.47
   3   4 -11   -0.10    1.90
   3   4 -11    2.10    2.09
  -4   3 -11    0.60    1.77
  -4   3 -11    1.59    1.81
  -3  -4  11    1.12    1.17
   4  -3  11    1.10    0.84
   4  -3  11    1.42    2.86
  -3  -4  11    1.40    1.41
   4  -3  11    1.16    0.74
   4  -4  11   -0.05    1.96
   5   4 -11    0.40    1.17
   5   4 -11   -0.09    2.34
   5   4 -11    0.15    1.88
   5   4 -11   -0.11    2.21
  -5  -4  11    0.59    2.81
  -5  -4  11    1.57    1.47
  -5  -4  11    0.60    1.33
  -5  -4  11    4.45    2.43
   5   3 -11   28.72    7.16
   5   3 -11   36.90    7.93
   5   3 -11   21.62    8.13
  -3   5 -11   29.67    7.78
   5   3 -11   25.92    7.03
  -3   5 -11   17.32    7.56
   3  -5  11   29.36    6.52
  -5  -3  11   31.17    8.11
  -5  -3  11   20.79    8.18
  -5  -3  11   37.27    6.43
   5   2 -11    4.35    2.70
  -2   5 -11   -1.16    2.59
  -2   5 -11    0.33    2.11
   5   2 -11    3.78    2.24
   5   2 -11    6.97    1.89
  -5  -2  11    2.42    1.28
   2  -5  11    2.75    1.32
  -1   5 -11    7.56    2.47
   5   1 -11    2.98    3.63
   5   1 -11    5.86    2.25
  -1   5 -11    8.10    2.76
   5   1 -11    6.05    3.39
   5   1  11   10.24    2.28
   1  -5  11    7.32    1.93
   1  -5  11    2.95    3.16
  -5  -1  11    5.61    1.93
  -5   0 -11    0.32    1.03
   5   0 -11    0.39    3.27
   5   0 -11    0.64    1.33
   0   5 -11    0.47    2.14
  -5   0 -11   -0.59    3.65
   0   5 -11   -0.18    1.65
   0  -5  11    0.41    1.63
   0  -5  11    0.06    1.00
   5   0  11    3.23    2.52
  -5   0  11    0.42    1.17
   5   0  11    0.12    1.45
  -5   1 -11    6.81    3.39
  -5   1 -11    7.08    2.28
   1   5 -11    4.42    2.75
   1   5 -11    8.13    2.60
   5  -1  11    8.59    2.91
   5  -1  11    7.11    2.36
  -1  -5  11    7.37    2.01
  -5   2 -11   -4.94    2.92
  -5   2 -11    1.73    2.58
  -5   2 -11    1.68    1.36
   2   5 -11    2.67    2.21
   2   5 -11    2.46    1.94
  -2  -5  11    1.20    1.35
   5  -2  11   -1.21    1.09
   5  -2  11   -3.17    2.63
  -5   3 -11   30.65    7.58
  -5   3 -11   31.39    7.61
   3   5 -11   28.15    7.60
   3   5 -11   36.69    6.98
  -5   3 -11   19.81    6.95
  -5   3 -11   21.59    8.54
   5  -3  11   23.84    6.32
   5  -3  11   17.97    7.73
   5  -3  11   31.44    6.60
  -3  -5  11   32.17    6.57
  -5   4 -11    3.19    3.13
   4   5 -11    1.16    2.21
  -5   4 -11    0.38    1.95
  -5   4 -11    2.13    1.68
  -5   4 -11    2.05    2.22
   5  -4  11   -0.05    0.96
   5  -4  11    1.09    0.92
   5  -4  11    1.17    2.06
  -5   5 -11    1.27    3.56
   5   5 -11   -0.42    2.42
   5   5 -11    1.96    2.68
  -5   5 -11    0.94    1.58
  -5  -5  11    0.08    1.40
   5  -5  11    0.08    2.13
   5  -5  11    2.70    4.52
  -5  -5  11   -0.08    1.66
   6   5 -11    7.88    4.10
   6   5 -11   19.23    4.02
  -6  -5  11    8.67    3.18
  -6  -5  11    9.09    3.07
   5  -6  11   12.60    5.89
   6   4 -11   65.80   19.43
  -4   6 -11  101.87   22.85
   6   4 -11   82.21   21.66
  -6  -4  11   90.34   25.16
  -6  -4  11   92.85   21.26
  -6  -4  11   77.20   18.69
  -6  -4  11   88.28   19.28
   6   3 -11    1.04    1.56
   6   3 -11    1.46    2.01
  -3   6 -11    2.13    1.77
  -3   6 -11   -0.17    2.56
   6   3 -11   -0.18    2.08
   6   3 -11    0.47    2.83
   3  -6  11    3.07    1.41
  -6  -3  11    0.93    3.00
  -6  -3  11    1.45    1.93
   3  -6  11    7.53    3.91
  -6  -3  11    1.44    1.32
   6   2 -11   99.91   35.27
   6   2 -11  146.30   35.32
  -2   6 -11  156.24   33.40
   6   2 -11  114.38   31.66
   6   2 -11  125.97   32.20
  -2   6 -11  133.19   36.09
  -6  -2  11  113.16   36.73
   2  -6  11  142.49   30.01
  -6  -2  11  131.59   29.27
  -6  -2  11  124.37   36.68
  -1   6 -11   12.42    3.96
  -1   6 -11   13.29    4.17
   6   1 -11   15.94    4.71
   6   1 -11   11.05    5.08
   6   1 -11   16.08    3.52
  -6  -1 -11   -1.84    5.50
   1  -6  11   14.11    3.20
  -6  -1  11   12.36    3.27
   6   1  11   11.25    3.35
   0   6 -11   -0.99    1.96
   6   0 -11    0.23    1.53
   0   6 -11   -0.77    2.77
   6   0 -11   -0.14    3.43
  -6   0 -11   -0.56    1.10
  -6   0 -11    0.15    4.01
   0  -6  11    0.16    1.27
   6   0  11   -2.39    2.80
   6   0  11   -0.48    1.82
  -6   0  11   -0.53    1.22
   1   6 -11   14.43    4.01
   1   6 -11   13.33    4.08
  -6   1 -11   14.34    3.87
  -6   1 -11    9.94    4.58
   6  -1 -11   12.92    3.79
   6  -1  11   12.31    3.73
  -1  -6  11   14.57    3.28
   6  -1  11   10.24    4.18
  -6   2 -11  113.32   33.08
   2   6 -11  123.42   32.06
  -6   2 -11  139.02   34.79
   2   6 -11  148.67   34.87
   6  -2  11  157.15   34.36
  -2  -6  11  131.53   30.71
   6  -2  11  136.60   34.42
  -6   3 -11    2.16    1.95
  -6   3 -11    1.30    1.57
   3   6 -11    1.31    2.23
   3   6 -11   -0.16    2.82
  -6   3 -11    0.28    3.70
  -6   3 -11    1.98    2.41
   6  -3  11   -0.16    3.41
  -3  -6  11    3.26    1.54
   6  -3  11    0.15    2.25
   6  -3  11    0.72    0.86
  -6   4 -11   86.36   21.63
   4   6 -11   88.75   20.48
  -6   4 -11   86.80   19.83
  -6   4 -11   76.17   22.60
  -6   4 -11   36.68   21.37
   6  -4  11   82.10   22.39
   6  -4  11   85.02   20.23
   5   6 -11   14.30    4.16
   5   6 -11    9.22    3.88
  -6   5 -11   11.65    4.94
  -5  -6  11    9.89    3.20
   6  -5  11   17.48    3.85
   6  -5  11    7.59    5.93
   6   6 -11    1.76    3.30
   6   6 -11   -0.46    2.60
  -6   6 -11   -0.50    4.28
  -6  -6  11    0.10    1.69
   6  -6  11    2.77    5.47
   6  -6  11    0.22    2.52
   7   6 -11    0.93    3.31
   7   6 -11    2.36    2.92
  -7  -6  11    2.23    1.91
   6  -7  11   -1.71    6.04
  -5   7 -11    1.31    2.01
   7   5 -11    0.16    2.93
   7   5 -11    1.73    3.12
   5  -7  11   -1.29    5.33
  -7  -5  11   -0.57    1.75
  -7  -5  11   -1.48    1.86
   7   4 -11    7.71    3.19
  -4   7 -11    6.32    2.95
   7   4 -11    8.89    3.50
  -7  -4  11    9.11    3.84
   4  -7  11    6.85    5.24
  -7  -4  11    7.08    2.31
  -7  -4  11    6.58    2.37
  -3   7 -11   23.30    6.60
   7   3 -11   18.45    5.84
   7   3 -11   19.75    6.61
  -7  -3  11   23.53    5.13
   7   2 -11    9.94    3.20
   7   2 -11   10.89    4.21
  -2   7 -11    7.68    3.43
  -7  -2  11    9.48    2.62
  -1   7 -11   10.80    4.28
  -7  -1 -11    0.19    5.74
  -1   7 -11   14.50    3.94
   7   1 -11   13.14    3.56
   7   1 -11   14.34    4.84
   7   1  11   13.53    3.41
   7   1  11   11.53    4.36
  -7  -1  11   16.43    3.30
   1  -7  11   10.09    3.35
   0   7 -11   37.61   11.08
   7   0 -11   49.75   10.39
  -7   0 -11   27.82   11.79
   7   0 -11   34.19   13.29
   0   7 -11   44.00   10.93
   7   0 -11   18.34   13.95
  -7   0  11   39.22   10.30
   7   0  11   34.30    9.87
   0  -7  11   51.30    9.55
   7   0  11   53.65   10.51
  -7   1 -11   15.84    4.53
   1   7 -11   12.76    4.38
   1   7 -11   13.91    3.76
   7  -1 -11    5.90    3.50
   7  -1  11    9.83    3.69
   7  -1  11   11.06    4.09
  -1  -7  11   10.88    3.11
  -7   2 -11    8.64    3.83
   2   7 -11   10.72    4.19
   2   7 -11    8.16    3.45
  -2  -7  11   11.09    2.80
   7  -2  11   10.07    3.47
   7  -2  11   13.00    4.22
  -7   3 -11   25.76    7.02
   3   7 -11   14.18    6.03
  -7   3 -11   21.33    6.43
   3   7 -11   22.83    6.35
   7  -3  11   21.38    6.14
  -3  -7  11   23.81    5.27
   7  -3  11   20.97    7.06
  -7   4 -11    6.18    4.54
  -7   4 -11    7.82    3.50
   4   7 -11    8.37    3.10
   7  -4  11    7.22    4.88
   7  -4  11    3.62    3.04
  -7   5 -11   -0.33    3.08
   5   7 -11    0.45    2.50
  -7   5 -11    0.63    4.42
   5   7 -11   -0.21    3.51
   7  -5  11    1.73    5.61
   7  -5  11    1.23    2.77
  -5  -7  11   -0.87    1.96
   6   7 -11    1.26    2.76
  -7   6 -11    2.08    4.87
   6   7 -11    2.63    3.87
   7  -6  11    0.14    5.99
   7  -6  11    0.70    2.79
  -6  -7  11   -1.14    1.85
   7   7 -11   -0.72    3.12
   7   7 -11   -5.27    4.41
  -7  -7  11   -0.72    2.31
   7  -7  11   -0.95    6.62
   8   7 -11    5.75    3.64
   8   7 -11    4.09    4.56
  -8  -7  11    3.89    2.60
   7  -8  11   -1.56    7.13
   8   6 -11    0.43    3.15
   8   6 -11   -1.96    3.67
  -8  -6  11   -0.67    2.13
   6  -8  11   -1.77    6.63
  -8  -6  11    0.64    2.20
   8   5 -11   31.26   10.60
   8   5 -11   30.04    9.61
  -8  -5  11   45.89    9.18
  -8  -5  11   38.82    8.97
   8   4 -11    5.84    3.53
   8   4 -11    5.47    3.05
  -8  -4  11    4.67    2.12
  -8  -4  11    4.22    2.09
   8   3 -11   20.16    7.35
   8   3 -11   29.19    6.66
   8   3 -11   26.63    6.59
   8   3 -11   24.07    7.13
  -3   8 -11   25.05    7.53
  -8  -3  11   15.23    7.78
  -8  -3  11   20.21    5.69
  -8  -3  11   21.05    7.39
   8   2 -11   16.37    5.06
   8   2 -11   13.25    5.94
  -2   8 -11   13.47    5.48
   8   2 -11   13.99    5.76
   8   2 -11   10.78    5.01
  -8  -2  11   17.67    4.33
   8   2  11   26.47    4.50
  -8  -2  11   17.80    6.69
  -8  -2  11   17.36    5.68
   8   1 -11    9.95    4.04
  -8  -1 -11    7.62    6.41
   8   1 -11    7.18    5.87
   8   1 -11   19.52    5.39
  -1   8 -11   14.69    4.51
   8   1 -11   19.04    4.16
  -8  -1  11   12.31    5.80
   8   1  11   19.70    3.93
  -8  -1  11    9.86    3.76
   8   1  11   18.55    4.79
   8   0 -11   -5.25    4.19
   8   0 -11    1.28    5.35
   8   0 -11    0.63    1.86
  -8   0 -11    0.87    3.89
   0   8 -11   -0.24    2.29
   8   0  11   -1.99    3.08
   8   0  11    0.63    2.30
  -8   0  11    0.45    1.59
   1   8 -11   10.49    4.22
   8  -1 -11   14.87    7.64
  -8   1 -11   14.18    4.96
   8  -1 -11   12.10    3.97
  -1  -8  11   14.74    3.71
   8  -1  11   12.01    4.60
   8  -1  11   14.92    4.19
  -8   2 -11   19.90    6.02
   2   8 -11   22.16    6.26
   2   8 -11   18.95    5.53
  -2  -8  11   22.51    5.03
   8  -2  11   22.14    5.72
   8  -2  11   19.73    6.27
   3   8 -11   26.25    7.73
  -8   3 -11   27.81    8.43
  -8   3 -11   24.65    7.80
   3   8 -11   21.06    7.12
   8  -3  11   39.56    8.36
   8  -3  11   28.71    7.35
  -3  -8  11   29.26    6.51
   4   8 -11    4.58    2.90
  -8   4 -11    2.92    3.67
  -8   4 -11    2.25    5.03
   8  -4  11    5.18    3.12
   8  -4  11    4.60    5.28
   5   8 -11   39.61    9.51
  -8   5 -11   27.12   10.66
  -8   5 -11   33.09   10.85
   5   8 -11   30.29   10.07
   8  -5  11   26.26   12.10
   8  -5  11   37.00    9.70
  -5  -8  11   37.24    8.56
  -8   6 -11   -1.39    5.60
   6   8 -11   -0.50    2.93
   6   8 -11    2.17    4.45
  -6  -8  11   -0.14    2.45
   8  -6  11    0.13    3.06
   8  -6  11   -0.78    6.74
   7   8 -11    2.53    4.79
   7   8 -11    3.87    3.31
  -7  -8  11    6.64    2.64
   8  -7  11    2.05    7.11
   8   8 -11    0.29    5.05
   8   8 -11   -4.41    3.59
   8  -8  11   -5.99    7.92
  -8  -8  11   -1.92    2.57
   9   8 -11    2.99    4.65
   9   8 -11   13.20    5.55
  -9  -8  11   18.52    3.64
   9   7 -11    5.58    5.08
   9   7 -11    2.26    4.24
  -9  -7  11   12.09    3.10
   9   6 -11   -0.85    3.90
   9   6 -11    1.54    3.64
  -9  -6  11    0.47    2.13
  -9  -6  11    0.68    2.41
   9   5 -11   16.15    6.04
   9   5 -11   17.58    5.99
  -9  -5  11   19.97    4.81
  -9  -5  11   21.57    4.91
   9   4 -11   25.39    8.81
   9   4 -11   15.81    7.94
  -9  -4  11   32.87    7.54
  -9  -4  11   37.68    7.05
   9   3 -11    3.95    3.34
   9   3 -11    0.13    2.80
  -9  -3  11   -1.49    1.82
  -9  -3  11   -1.26    4.72
  -9  -3  11   -0.90    1.72
  -9  -3  11    1.29    2.85
   9   2 -11   15.35    6.12
  -9  -2 -11    0.25    7.69
   9   2 -11   15.66    5.29
   9   2 -11   21.17    5.34
   9   2 -11   20.31    6.23
  -9  -2  11   16.11    4.53
   9   2  11   24.38    4.66
  -9  -2  11   14.23    5.96
  -9  -2  11   17.82    7.15
   9   1 -11    0.75    2.51
  -9  -1 -11    5.70    5.72
   9   1 -11    3.89    4.86
   9   1 -11    3.30    2.64
   9   1 -11    0.28    4.16
  -9  -1  11    4.80    1.96
   9   1  11    2.56    3.64
   9   1  11    7.88    2.74
  -9  -1  11    1.27    5.01
   9   0 -11    9.30    5.95
   9   0 -11    2.56    4.60
  -9   0 -11    2.69    4.66
   9   0 -11    2.24    2.19
   9   0  11    2.49    3.51
   9   0  11    4.74    2.85
  -9   0  11    3.77    1.95
  -9   1 -11    6.90    3.96
   9  -1 -11    2.81    2.14
   9  -1 -11    0.58    6.91
   9  -1  11    0.94    3.65
   9  -1  11    5.01    3.10
  -9   2 -11   23.98    6.64
   9  -2  11   25.47    6.90
   9  -2  11   19.20    6.29
  -9   3 -11   -1.64    3.60
  -9   3 -11    0.69    6.09
   9  -3  11   -1.59    3.03
   9  -3  11   -4.72    4.90
  -9   4 -11   39.17    9.75
  -9   4 -11   32.88    9.40
   9  -4  11   21.64   10.37
   9  -4  11   29.40    8.51
  -9   5 -11   15.93    7.42
   5   9 -11   10.03    4.98
  -9   5 -11   14.34    6.15
  -5  -9  11   14.03    4.74
   9  -5  11    9.95    8.33
   9  -5  11   21.59    5.48
  -9   6 -11   -0.91    6.23
   6   9 -11    2.54    3.11
  -6  -9  11   -0.17    2.69
   9  -6  11   -0.42    3.48
   9  -6  11    0.85    7.03
  -9   7 -11    2.43    6.55
   7   9 -11    9.77    3.83
   9  -7  11    5.22    7.95
  -7  -9  11    7.23    3.36
   8   9 -11   -0.97    3.86
   9  -8  11    2.85    8.44
  10   9 -11   36.60    6.58
 -10  -9  11    1.99    5.58
  10   7 -11    7.10    4.44
  10   7 -11    1.65    5.24
 -10  -7  11    0.52    2.96
 -10  -7  11    6.32    2.83
  10   6 -11    5.41    4.53
  10   6 -11    0.53    4.33
 -10  -6  11    0.24    2.69
 -10  -6  11    1.84    2.30
  10   5 -11   10.91    4.64
  10   5 -11    3.07    4.17
 -10  -5  11    6.10    2.83
 -10  -5  11    8.91    2.82
  10   4 -11    1.86    3.99
  10   4 -11    0.12    4.11
 -10  -4  11    4.88    2.19
 -10  -4  11    4.99    2.34
  10   3 -11    5.11    4.37
  10   3 -11    5.26    3.74
 -10  -3  11    9.62    2.73
 -10  -3  11   10.80    2.56
  10   2 -11   -0.96    2.89
 -10  -2 -11   33.14    7.70
  10   2 -11    6.09    4.29
  10   2 -11   -0.90    2.88
  10   2 -11    2.24    4.24
 -10  -2  11    0.08    3.51
  10   2  11    5.16    3.06
 -10  -2  11    3.17    5.97
  10   2  11    0.13    4.20
 -10  -2  11    3.35    1.98
  10   1 -11    0.35    2.85
  10   1 -11    1.70    4.38
  10   1 -11   -4.06    5.12
  10   1 -11   -0.35    2.74
 -10  -1 -11  -19.94    6.58
 -10  -1  11    0.28    5.81
 -10  -1  11   -1.45    1.92
 -10  -1  11   -2.31    3.75
 -10   0 -11   -7.65    5.37
  10   0 -11   -0.54    2.34
  10   0 -11   -1.45    4.95
  10   0 -11  -11.34    6.51
 -10   0  11   -2.23    5.82
 -10   0  11   -1.09    1.98
  10  -1 -11   -1.22    7.55
 -10   1 -11  -14.63    5.35
  10  -1 -11   -1.32    2.22
 -10   2 -11    4.41    8.60
  10  -2  11   33.87    6.41
 -10   3 -11    2.90    4.67
 -10   3 -11    2.65    7.38
  10  -3  11   -1.67    4.24
 -10   4 -11    0.81    6.55
 -10   4 -11    5.15    4.64
  10  -4  11    9.82    3.80
  10  -4  11    5.37    6.31
 -10   5 -11    6.74    5.08
 -10   5 -11    4.14    6.69
  10  -5  11    5.12    4.12
  10  -5  11   16.36    7.39
 -10   6 -11   -0.61    4.94
 -10   6 -11    0.33    6.73
  10  -6  11    5.77    7.59
  10  -6  11    3.05    3.89
 -10   7 -11    4.47    6.90
  10  -7  11    1.82    8.73
  10  -7  11    8.76    4.13
  10  -8  11  -13.01    9.58
  11  10 -11   18.82    7.23
  11   9 -11   -4.12    5.13
 -11  -9  11   -1.08    3.52
  11   8 -11   -0.34    5.46
 -11  -8  11    1.77    3.03
  11   7 -11    0.30    4.90
 -11  -7  11   -2.31    2.88
  11   6 -11    0.25    4.69
  11   6 -11    1.28    4.54
 -11  -6  11    3.61    2.81
 -11  -6  11    6.34    2.63
  11   5 -11    8.62    4.42
  11   5 -11    1.25    4.18
 -11  -5  11    3.47    2.43
 -11  -5  11    2.86    2.41
  11   4 -11   11.56    5.26
  11   4 -11   11.52    4.96
 -11  -4  11    8.51    3.73
 -11  -4  11   12.36    3.51
  11   3 -11    4.66    3.71
  11   3 -11    1.74    4.39
 -11  -3  11    5.01    2.33
  11   3  11    7.10    3.21
 -11  -3  11    2.42    2.23
  11   2 -11    2.34    4.47
  11   2 -11    0.85    3.22
  11   2 -11   -5.56    4.31
  11   2 -11    3.40    3.04
 -11  -2 -11   -5.83    7.25
 -11  -2  11    1.08    5.94
 -11  -2  11    1.67    3.76
  11   2  11   -0.13    3.35
 -11  -2  11    1.05    2.01
  11   2  11   -3.71    4.50
 -11  -1 -11    0.24    7.06
  11   1 -11   -1.01    5.01
  11   1 -11    2.94    5.63
  11   1 -11    0.26    3.07
  11   1 -11    4.75    3.30
 -11  -1  11    1.07    2.17
  11   1  11    1.12    3.30
 -11  -1  11    3.11    6.48
 -11  -1  11    1.11    4.17
  11   1  11    2.32    4.27
  11   0 -11   29.76   10.74
 -11   0 -11   40.31    9.57
  11   0 -11   20.91   10.32
  11   0 -11   20.93    7.69
 -11   0  11   28.73    7.83
  11   0  11   38.42    7.61
  11   0  11   34.03    8.19
 -11   0  11   21.98   10.17
  11  -1 -11   -5.91    8.52
 -11   1 -11    8.82    5.38
  11  -1 -11    1.34    2.95
  11  -1  11   25.72    5.21
  11  -1  11   12.87    4.39
 -11   2 -11    1.56    8.06
 -11   2 -11   -3.61    4.98
  11  -2  11    4.22    4.47
  11  -2  11    7.68    5.60
 -11   3 -11    1.46    5.02
 -11   3 -11    6.46    8.03
  11  -3  11   15.06    4.21
  11  -3  11    2.24    6.22
 -11   4 -11   15.20    8.86
 -11   4 -11   29.41    6.89
  11  -4  11   21.00    6.00
  11  -4  11   15.91    8.40
 -11   5 -11    4.35    7.72
 -11   5 -11    4.04    5.19
  11  -5  11   -2.86    4.20
  11  -5  11   12.24    7.61
 -11   6 -11    7.14    5.56
 -11   6 -11    1.47    7.33
  11  -6  11   -9.77    8.37
  11  -6  11   -7.76    4.38
 -11   7 -11   14.12    7.74
  11  -7  11  -25.39    9.64
  12  10 -11    0.17    5.54
  12   9 -11   -2.64    4.98
  12   8 -11    1.97    5.20
  12   8 -11    4.29    5.83
 -12  -8  11    2.03    3.56
 -12  -8  11   -1.29    3.10
  12   6 -11    1.68    5.05
  12   6 -11   12.19    5.32
 -12  -6  11   -4.33    2.97
  12   5 -11    2.27    4.53
  12   5 -11   -0.43    4.68
 -12  -5  11   -0.11    2.32
 -12  -5  11    0.63    2.40
  12   4 -11    1.20    4.18
  12   4 -11   -1.43    4.57
 -12  -4  11   -0.23    2.31
 -12  -4  11   -1.82    2.17
  12   3 -11   -1.87    3.84
  12   3 -11   -0.29    4.52
  12   3  11   -0.44    3.52
 -12  -3  11    0.69    2.06
 -12  -3  11    1.55    2.18
  12   2 -11   -2.48    3.36
  12   2 -11    1.54    4.76
 -12  -2  11    0.21    4.24
 -12  -2  11   -1.25    2.18
 -12  -2  11    4.51    6.87
  12   1 -11    5.23    5.64
  12   1 -11   10.42    6.14
  12   1 -11    5.78    3.81
  12   1 -11    5.24    3.80
 -12  -1  11    8.58    2.97
 -12  -1  11   16.28    5.17
 -12  -1  11    9.50    7.27
  12   1  11   -0.14    5.06
  12   0 -11   -0.39    2.92
 -12   0 -11   -4.59    6.37
  12   0 -11    2.00    3.52
  12   0 -11  -15.49    7.41
  12   0  11    0.92    4.51
 -12   0  11   -8.38    7.10
 -12   0  11    0.39    2.39
  12  -1 -11   23.12    9.23
  12  -1 -11    4.32    3.22
 -12   1 -11    4.77    5.96
  12  -1  11   -1.05    5.15
 -12   2 -11    2.97    5.54
  12  -2 -11    3.30   10.26
  12  -2  11   -8.46    5.87
 -12   3 -11   -0.30    5.67
  12  -3  11   -7.02    6.85
 -12   4 -11    3.67    5.82
  12  -4  11    7.21    7.96
 -12   7 -11   -3.55    8.66
  12  -7  11    4.10    4.84
  12  -8  11   28.24   11.65
  13  10 -11   -4.71    6.23
  13   9 -11    0.56    6.85
 -13  -9  11   20.94    5.11
  13   8 -11   -5.60    6.36
  13   8 -11    5.18    5.79
 -13  -8  11    0.16    3.43
 -13  -8  11   -4.23    3.29
  13   7 -11    2.64    8.39
  13   7 -11   53.91    8.08
 -13  -7  11   28.35    6.51
  13   5 -11   12.70    5.25
  13   5 -11    1.52    5.34
 -13  -5  11    4.95    3.16
 -13  -5  11   13.92    3.10
 -13  -4  11    5.70    2.72
 -13  -4  11    4.22    2.58
 -13  -3 -11   29.39   11.07
  13   3  11    3.50    5.60
 -13  -3  11    5.26    5.20
 -13  -2 -11    1.61    9.14
  13   2  11   -5.37    5.34
  13   2  11   -7.37    4.53
  13   1 -11    4.21    6.71
  13   1 -11   -2.79    4.27
 -13  -1 -11   -2.44    8.19
  13   1  11    4.96    4.73
  13   1  11   -0.77    5.51
 -13  -1  11    7.52    5.64
 -13  -1  11    1.86    7.78
  13   0 -11   12.71    8.87
  13   0 -11    4.02    4.58
 -13   0 -11   36.43    7.71
 -13   0  11    2.62    6.51
  13   0  11   -3.83    5.42
 -13   0  11   -5.37    8.39
  13   0  11   29.31    5.77
 -13   1 -11   48.87    8.38
  13  -1 -11   -4.53   11.20
  13  -2 -11  -14.93   11.62
 -13   2 -11   -8.71   11.03
  13  -2  11   21.69    6.57
 -13   3 -11   66.33   13.38
 -13   3 -11   16.14   14.53
  13  -3  11   58.98   12.85
 -13   4 -11   10.29    6.78
 -13   4 -11   15.56   10.50
  13  -4  11   -4.39    8.82
  13  -4  11    1.89    5.40
 -13   5 -11  -14.14    6.60
 -13   5 -11    0.44   10.33
  13  -5  11    2.79    8.94
  13  -5  11    0.20    5.26
 -13   6 -11   -5.76    6.77
 -13   6 -11   -4.15    9.62
  13  -6  11   -3.88    9.40
  13  -6  11   -0.21    4.92
 -13   7 -11    5.87    7.34
 -13   7 -11   -2.46   10.23
  13  -7  11    2.77   11.08
  13  -7  11    4.47    5.76
  13  -8  11   -2.96   11.07
 -14  -3 -11    9.33    9.96
  14   3  11   -0.17    4.54
 -14  -2 -11   -0.70    9.48
  14   2  11    0.18    4.79
  14   2  11    2.66    5.60
 -14  -1 -11    6.28    8.92
 -14  -1  11   -3.70    5.85
  14   1  11    1.79    4.99
  14   1  11   -1.02    5.79
 -14   0 -11   -0.25    7.86
  14   0 -11   -1.26    8.59
  14   0  11    1.94    5.83
 -14   0  11   -0.46    6.11
  14   0  11    3.75    5.16
 -14   1 -11    2.36    7.26
 -14   1 -11   -4.45   12.61
  14  -1  11   -1.17    5.37
  14  -1  11    0.65    6.26
 -14   2 -11   11.62   12.18
 -14   2 -11   -6.72    7.24
  14  -2  11    9.02    5.73
  14  -2  11   -2.13    6.83
 -14   3 -11    5.46   11.42
 -14   3 -11    2.10    7.58
  14  -3  11    1.99    7.85
  14  -3  11   12.38    6.02
 -14   4 -11   -4.07    7.09
 -14   4 -11   -6.17   11.44
  14  -4  11   -3.14    5.74
  14  -4  11   16.41    8.90
 -14   5 -11    3.68    7.32
 -14   5 -11    9.96   10.88
  14  -5  11    5.54    5.85
  14  -5  11   -1.90    9.47
 -14   6 -11    5.44    7.52
 -14   6 -11    3.12   11.37
  14  -6  11    8.16   10.33
  14  -6  11   12.60    6.21
 -14   7 -11   -4.20    7.50
 -14   7 -11   -2.19   10.72
  14  -7  11    0.94    5.68
  14  -7  11  -20.07   11.20
 -14   8 -11   -7.23    8.05
 -14   8 -11   -4.59   10.62
  14  -8  11    8.85   11.60
 -15  -3 -11   -0.85   11.00
  15   3  11    1.24    6.25
  15   3  11   -2.73    5.43
 -15  -2 -11   -3.10   10.87
  15   2  11    3.14    5.21
  15   2  11    1.36    5.91
 -15  -1 -11  -11.62   10.02
  15   1  11    1.50    6.07
  15   1  11    0.20    5.42
  15   0 -11  -11.87    8.80
 -15   0 -11   -2.21    8.76
  15   0 -11   -3.15    4.36
  15   0  11    2.52    5.72
  15   0  11    0.54    6.23
 -15   0  11   17.04    9.23
 -15   0  11   -8.95    6.80
 -15   1 -11    3.45   13.33
 -15   1 -11   -5.52    8.08
  15  -1 -11   -1.08   10.70
  15  -1  11    1.08    6.04
  15  -1  11    5.28    6.76
 -15   1  11    0.54    7.25
 -15   2 -11   -8.08   13.47
  15  -2 -11    3.16   12.41
 -15   2 -11    5.96    7.54
  15  -2  11   -1.98    7.35
  15  -2  11   -8.60    5.93
 -15   3 -11   -0.52   13.00
 -15   3 -11   -7.42    8.39
  15  -3  11   -8.15    6.30
  15  -3  11   -6.62    8.39
 -15   4 -11    4.84   13.03
 -15   4 -11   11.89    7.76
  15  -4  11   -2.61    9.54
  15  -4  11    3.08    6.39
 -15   5 -11    5.65   13.72
 -15   5 -11   10.61    9.61
  15  -5  11   16.18    8.07
 -15   6 -11   -6.41    8.23
 -15   6 -11   -5.28   12.00
  15  -6  11   -7.09    6.39
  15  -6  11   -1.91   11.11
 -15   7 -11   13.06    8.26
 -15   7 -11   -3.07   11.86
  15  -7  11    6.55   11.30
  15  -7  11  -15.77    6.28
 -15   8 -11   13.62    8.98
 -15   8 -11    3.19   11.42
  15  -8  11    0.30   12.43
 -16  -3 -11   17.21   12.97
  16   3  11    9.25    7.13
  16   3  11    5.08    5.97
 -16  -2 -11    0.43   11.84
  16   2  11    0.21    6.69
  16   2  11    0.87    6.07
 -16  -1 -11    8.13   11.26
  16   1  11    0.23    6.12
  16   1  11  -24.91    7.56
 -16   0 -11   -1.55   10.23
 -16   0 -11   -1.09   15.22
 -16   0  11   -5.28   10.57
  16   0  11  -11.93    6.72
 -16   0  11   -0.56    7.86
 -16   1 -11    1.69    9.42
  16  -1 -11   -9.95   11.81
 -16   1 -11    1.65   15.32
 -16   1  11    4.55    7.93
  16  -1  11  -27.14    7.06
 -16   2 -11    2.82   14.30
 -16   2 -11    1.00    8.73
  16  -2 -11    4.34   13.02
  16  -2  11   -0.95    6.46
  16  -2  11   -8.73    7.88
 -16   3 -11    7.58   14.96
 -16   3 -11   -5.84    8.84
  16  -3  11    2.24    6.95
  16  -3  11   23.04    9.34
 -16   4 -11    0.61   14.51
 -16   4 -11   -4.73    8.69
  16  -4  11  -16.27   10.19
  16  -4  11    0.26    6.43
 -16   5 -11  -11.69   14.27
 -16   5 -11    5.73    8.60
  16  -5  11  -12.99    6.99
  16  -5  11   12.79   10.83
 -16   6 -11   14.09   14.26
 -16   6 -11   -0.23    9.01
  16  -6  11   -2.81    7.03
  16  -6  11  -10.96   11.45
 -16   7 -11   -9.69   13.51
 -16   7 -11    0.93    8.99
  16  -7  11   -4.93   12.45
  16  -7  11   -3.15    6.91
 -16   8 -11  -13.53   14.34
 -16   8 -11   -9.30    9.76
 -17  -3 -11    1.03   13.71
  17   3  11    5.44    7.42
  17   3  11    4.67    6.79
 -17  -2 -11   17.09   13.42
  17   2  11  -10.49    7.07
  17   2  11   -9.21    7.55
 -17  -1 -11  -14.01   12.62
  17   1  11    3.29    6.70
  17   1  11  -14.29    7.87
 -17   0 -11   19.18   16.41
 -17   0 -11  -11.09   11.82
  17   0  11   -9.14    7.94
  17   0  11    2.06    7.18
 -17   1 -11    5.52   16.21
 -17   1 -11   -2.53   10.60
  17  -1  11  -20.80    7.21
  17  -1  11   -5.16    7.95
 -17   1  11    7.13    8.64
  17  -2 -11  -36.13   13.53
 -17   2 -11    9.29    9.51
 -17   2 -11  -19.17   16.14
  17  -2  11    0.26    7.00
 -17   2  11  -11.34    9.25
  17  -2  11   13.49    8.74
 -17   3 -11   -6.55    9.52
 -17   3 -11    8.62   16.52
  17  -3  11    7.52    9.19
  17  -3  11  -14.80    7.34
 -17   4 -11    5.26    9.16
 -17   4 -11   -9.13   16.31
  17  -4  11    4.70    7.63
  17  -4  11    2.50   10.30
 -17   5 -11   -5.68    9.78
 -17   5 -11   -8.83   16.95
  17  -5  11  -16.38    8.41
  17  -5  11  -26.48   12.76
 -17   6 -11   44.97   23.96
 -17   6 -11   13.69   27.29
 -17   7 -11    4.70   15.12
 -17   7 -11   -1.54    9.73
  17  -7  11  -18.40   13.54
  17  -7  11    4.47    7.77
 -17   8 -11    3.20   15.04
 -17   8 -11  -13.20   10.59
  17  -8  11  -11.41   14.61
 -18  -3 -11  -17.04   16.69
  18   3  11  -29.32    8.23
  18   2  11   11.27   10.53
 -18  -1 -11   20.38   30.66
 -18  -1 -11   84.86   34.60
  18   1  11   56.20   23.45
 -18   0 -11  101.44   39.17
 -18   0 -11   66.58   36.82
  18   0  11   92.15   29.34
 -18   1 -11   71.02   32.82
 -18   1 -11   78.19   32.33
  18  -1  11   42.10   24.69
 -18   2 -11  -16.63   18.91
 -18   2 -11   -5.60   12.17
  18  -2 -11  -25.67   15.31
  18  -2  11  -13.34   11.02
 -18   2  11  -17.82   10.54
 -18   3 -11  -22.80   19.30
 -18   3 -11   15.56   11.35
  18  -3  11  -11.66    8.83
  18  -3  11  -22.02   11.46
 -18   4 -11  -16.67   18.86
 -18   4 -11   10.22   10.69
  18  -4  11   -1.94    8.52
  18  -4  11  -17.72   11.31
 -18   5 -11  -10.62   10.63
 -18   5 -11    8.33   17.95
  18  -5  11   -0.33   12.98
  18  -5  11  -12.37    9.01
 -18   6 -11    0.85   11.11
 -18   6 -11   -9.48   18.73
  18  -6  11   -9.63    8.82
  18  -6  11    9.03   13.53
 -18   7 -11   -7.95   10.91
 -18   7 -11   -8.87   17.53
  18  -7  11   -8.14    8.66
  18  -7  11   12.43   14.58
 -18   8 -11    8.15   11.27
  18  -8  11    0.39   15.22
 -19  -3 -11   14.54   18.03
  19   3  11   -2.42    9.51
 -19  -2 -11   15.24   21.24
 -19  -2 -11   -0.60   17.79
  19   2  11    8.46    9.50
 -19  -1 -11   -3.85   17.32
 -19  -1 -11    5.83   20.45
  19   1  11    5.30    8.88
  19   1  11    4.03    9.98
 -19   0 -11    0.74   19.92
 -19   0 -11   21.07   15.20
  19   0  11   -1.23    8.46
  19   0  11   -5.12    9.79
 -19   1 -11   -0.42   14.28
 -19   1 -11   17.92   20.76
  19  -1  11   14.66   10.43
  19  -1  11   -0.31    8.66
 -19   2 -11   30.22   21.00
 -19   2 -11   17.43   12.56
  19  -2  11   -1.14   10.44
  19  -2  11  -20.53    8.77
 -19   2  11   -7.80   10.66
 -19   3 -11    8.56   20.26
 -19   3 -11   10.07   12.35
  19  -3  11   13.48   11.27
  19  -3  11  -13.80    9.30
 -19   4 -11  -18.23   20.94
 -19   4 -11   12.08   12.30
  19  -4  11  -25.29   12.67
  19  -4  11   -8.29    8.72
 -19   5 -11   14.99   12.24
  19  -5  11  -12.88   13.64
   0   0 -12   75.28   18.65
  -1   0 -12   -0.39    1.16
   0   1 -12   -0.85    2.41
   0   1 -12    0.31    1.12
   1   0 -12    0.07    1.21
  -1   0  12   -0.88    0.89
   0  -1  12    0.31    0.90
   1   1 -12   34.05   10.08
  -1   1 -12   38.15    8.93
   1   1 -12   37.06    8.61
   1  -1  12   28.66    8.09
   2   1 -12   -0.10    2.59
  -1   2 -12    0.06    1.36
   2   1 -12    0.67    1.25
   1  -2  12    0.39    0.86
  -2  -1  12    1.01    0.96
   1  -2  12   -0.05    0.73
   0   2 -12   13.00    3.34
   2   0 -12   13.07    3.48
   2   0 -12    6.28    4.74
   0   2 -12   16.92    4.10
   0  -2  12   14.36    2.94
  -2   0  12   11.08    3.09
   0  -2  12   11.73    3.20
   1   2 -12    0.63    1.37
   1   2 -12    1.22    2.15
   2  -1  12   -0.55    1.06
  -1  -2  12    1.16    1.00
   2   2 -12    4.31    1.84
   2   2 -12    3.37    2.64
  -2  -2  12    4.82    1.49
   2  -2  12    5.01    1.60
   3   2 -12   -1.37    2.47
  -2   3 -12    0.07    1.64
  -2   3 -12   -0.40    1.78
   3   2 -12   -0.17    1.36
  -2   3 -12   -0.18    1.69
   2  -3  12    2.14    1.55
   2  -3  12    1.00    1.24
  -3  -2  12   -0.46    1.08
  -1   3 -12    3.16    1.43
  -1   3 -12    0.96    1.53
  -1   3 -12    0.87    2.05
   3   1 -12    0.52    2.57
  -1   3 -12   -0.99    1.90
  -3  -1  12    2.19    1.09
   1  -3  12    2.60    0.97
   1  -3  12    1.62    0.95
   0   3 -12   -1.21    2.04
   0   3 -12    1.07    1.41
   3   0 -12    0.13    2.94
   0  -3  12   -0.80    0.99
  -3   0  12   -0.39    1.05
   1   3 -12    1.28    1.58
   1   3 -12   -0.08    2.11
   3  -1  12    0.83    0.84
   3  -1  12    2.06    1.23
  -1  -3  12    1.97    1.11
  -3   2 -12   -0.07    2.15
  -3   2 -12    0.60    2.60
   2   3 -12    0.56    2.30
   2   3 -12    0.67    1.72
   3  -2  12    1.49    0.88
  -2  -3  12    1.02    1.18
   3  -2  12   -0.04    1.36
   3  -2  12    4.54    1.98
  -3   3 -12   14.53    4.24
  -3   3 -12   22.91    4.20
   3   3 -12   20.03    3.98
   3   3 -12   17.66    4.68
  -3  -3  12   10.71    3.47
   3  -3  12   12.64    4.13
   3  -3  12    1.76    4.45
   4   3 -12   25.07    8.06
   4   3 -12   16.39   10.18
  -4  -3  12   23.92    9.86
  -4  -3  12   20.82    7.22
   3  -4  12   48.92    7.45
  -2   4 -12   -2.00    1.88
   4   2 -12   -2.42    2.79
  -2   4 -12   -3.68    2.89
   4   2 -12    0.58    1.70
  -2   4 -12   -1.86    2.21
   4   2 -12   -0.44    2.01
  -2   4 -12   -1.78    1.46
   2  -4  12   -1.94    1.15
   2  -4  12   -3.45    1.71
  -4  -2  12   -0.30    1.19
   2  -4  12   -4.26    1.39
   4   1 -12   -0.54    2.85
  -1   4 -12    0.06    1.90
  -1   4 -12   -0.22    1.00
  -1   4 -12    0.44    1.73
   4   1 -12   -1.22    1.53
   1  -4  12    1.09    1.12
   1  -4  12   -0.53    1.19
   1  -4  12   -0.65    0.98
  -4  -1  12   -0.69    1.14
   0   4 -12    3.10    1.91
   4   0 -12   -1.73    3.13
   4   0 -12    2.42    1.41
   0   4 -12    0.14    1.95
  -4   0 -12    1.12    1.17
   0  -4  12   -0.29    1.02
   0  -4  12    1.00    1.22
  -4   0  12    0.99    1.12
   4   0  12    1.00    1.40
  -4   1 -12   -0.26    1.17
   1   4 -12   -0.39    1.93
   1   4 -12    0.07    2.07
  -1  -4  12    0.75    1.11
  -1  -4  12   -0.31    1.18
   2   4 -12   -2.37    2.14
  -4   2 -12   -9.06    2.99
  -4   2 -12   -1.61    1.58
   2   4 -12   -1.94    2.63
  -2  -4  12   -1.59    1.66
  -2  -4  12   -1.13    1.36
   3   4 -12   22.38    7.53
  -4   3 -12   22.94    8.99
   3   4 -12   17.97    8.87
  -3  -4  12   20.66    7.20
  -3  -4  12   25.67    7.06
   4   4 -12   25.48    7.77
  -4  -4  12   27.06    6.38
   5   4 -12   12.42    4.92
  -4   5 -12   15.61    4.47
   5   4 -12   14.63    4.30
  -5  -4  12    8.23    3.91
   4  -5  12   16.92    3.68
  -5  -4  12   13.39    3.80
   4  -5  12   21.49    3.87
   5   3 -12    3.04    2.95
   5   3 -12    4.25    2.14
  -3   5 -12    4.11    2.00
  -3   5 -12    5.34    2.42
  -3   5 -12    3.98    3.20
  -5  -3  12    3.30    2.55
   3  -5  12    2.30    1.36
  -5  -3  12    2.95    1.89
  -5  -3  12    3.41    1.54
   3  -5  12    1.38    3.25
  -2   5 -12   65.28   17.31
  -2   5 -12   78.84   15.33
   5   2 -12   60.25   15.29
   5   2 -12   63.98   17.13
   2  -5  12   52.35   17.99
   5   1 -12    1.04    3.01
   5   1 -12   -0.56    3.44
  -1   5 -12    0.87    1.97
  -1   5 -12    0.11    2.37
   5   1 -12    0.98    1.64
  -5  -1  12   -0.20    1.29
   1  -5  12    0.13    1.18
   1  -5  12   -6.70    2.45
  -5   0 -12    2.11    4.53
   0   5 -12    0.13    2.04
   5   0 -12   -0.70    1.54
  -5   0 -12    0.90    1.35
   0   5 -12   -0.72    2.43
   5   0 -12   -0.14    3.53
  -5   0  12    0.30    1.28
   0  -5  12    0.93    1.32
   1   5 -12   -0.37    2.39
   1   5 -12    0.14    2.11
  -5   1 -12   -8.03    4.20
  -5   1 -12    0.49    1.33
  -1  -5  12   -0.55    1.25
   5  -1  12   -3.38    2.08
  -5   2 -12   72.98   16.76
   2   5 -12   60.34   15.06
  -5   2 -12   54.44   20.86
   2   5 -12   62.68   16.89
  -5   2 -12   70.80   16.43
   5  -2  12   61.48   16.04
  -2  -5  12   62.79   14.82
  -2  -5  12   62.71   14.61
   5  -2  12   65.92   16.31
   5  -2  12   65.07   16.02
  -5   3 -12    7.51    3.31
  -5   3 -12    2.34    2.36
  -5   3 -12    4.33    2.33
   3   5 -12    3.06    2.50
  -5   3 -12    3.48    1.75
   3   5 -12   -0.13    2.48
  -3  -5  12    5.24    1.60
   5  -3  12    2.28    1.07
  -3  -5  12    1.95    1.76
   5  -3  12    2.53    2.17
   5  -3  12    3.82    1.17
   4   5 -12   16.82    4.94
  -5   4 -12   17.96    4.88
  -5   4 -12   13.37    4.77
  -5   4 -12    9.46    5.05
   5  -4  12   18.88    3.72
  -4  -5  12    8.72    4.00
   5  -4  12    9.99    4.54
   5  -4  12   27.27    5.54
   5  -4  12   18.45    3.81
  -5   5 -12   11.98    4.67
  -5   5 -12   14.01    3.75
   5   5 -12   18.04    3.79
   5   5 -12    8.71    3.99
  -5  -5  12    3.98    2.82
   5  -5  12   10.75    3.46
  -5  -5  12    9.72    2.99
   5  -5  12   12.49    5.07
  -5   6 -12    6.39    2.20
   6   5 -12    2.94    3.14
   6   5 -12    5.05    2.91
  -5   6 -12   -0.69    4.18
  -6  -5  12    3.28    1.99
   5  -6  12    3.05    4.97
  -6  -5  12    2.11    1.85
   6   4 -12   31.23    6.53
  -4   6 -12   29.46    7.25
   6   4 -12   15.21    7.36
   4  -6  12   27.51    6.13
  -6  -4  12   24.96    6.14
  -6  -4  12   19.89    5.91
  -3   6 -12   67.84   16.34
   6   3 -12   50.72   15.40
  -3   6 -12   56.13   17.64
  -6  -3  12   63.64   14.14
  -6  -3  12   71.84   18.02
   3  -6  12   59.71   14.52
  -6  -3  12   65.56   17.90
   3  -6  12   69.09   18.86
  -2   6 -12   16.70    5.04
   6   2 -12   13.73    5.22
  -2   6 -12   22.16    5.09
   6   2 -12   16.72    4.54
   6   2 -12   14.92    5.47
  -6  -2  12   16.20    4.01
   2  -6  12   12.04    5.97
   2  -6  12   17.22    4.05
  -1   6 -12    8.51    3.27
  -1   6 -12   14.63    3.65
   6   1 -12   10.69    4.56
   6   1 -12    8.95    4.36
   6   1 -12   11.07    2.92
   6   1  12   11.72    2.85
  -6  -1  12    6.45    2.60
   1  -6  12    8.50    2.57
   1  -6  12    8.23    4.07
   0   6 -12  117.75   22.80
   6   0 -12  124.04   23.12
   0   6 -12  106.38   24.22
   6   0 -12   98.84   26.70
  -6   0 -12   35.11   26.95
   6   0  12  129.57   23.08
   6   0  12  128.99   22.32
   0  -6  12  138.58   21.96
  -6   0  12  109.22   22.76
  -6   1 -12   11.05    3.11
  -6   1 -12    5.24    4.21
   1   6 -12   10.58    3.41
   1   6 -12   12.40    3.59
   6  -1  12    6.20    3.06
   6  -1  12   11.05    3.59
  -1  -6  12   10.54    2.58
   2   6 -12   12.37    5.07
   2   6 -12   23.33    5.08
  -6   2 -12   19.31    5.28
  -6   2 -12   13.93    4.63
   6  -2  12   20.27    5.04
   6  -2  12   17.45    5.17
  -2  -6  12   18.91    4.28
  -6   3 -12   68.88   16.88
   3   6 -12   70.37   16.75
  -6   3 -12   71.62   16.54
   3   6 -12   38.98   15.33
  -6   3 -12   56.68   20.05
   6  -3  12   75.82   17.03
   6  -3  12   61.03   16.84
  -3  -6  12   68.93   14.83
   4   6 -12   26.87    6.79
  -6   4 -12   18.44    7.03
  -6   4 -12   22.88    7.00
   6  -4  12   21.61    6.55
   6  -4  12   21.03    7.74
  -6   5 -12    4.26    2.95
   5   6 -12    4.04    2.82
  -6   5 -12    2.23    4.05
   5   6 -12    1.52    3.31
   6  -5  12    1.99    2.60
   6  -5  12    2.96    4.76
  -5  -6  12    3.19    1.92
   6   6 -12   11.69    4.16
   6   6 -12    8.07    3.76
  -6   6 -12   11.96    5.20
   6  -6  12   12.02    6.11
   6  -6  12    7.72    3.54
  -6  -6  12    8.85    2.84
  -6  -6  12    7.24    2.73
   7   6 -12    4.84    3.73
   7   6 -12    2.10    3.57
   6  -7  12    5.54    6.07
  -7  -6  12    7.02    2.35
  -7  -6  12    5.35    2.47
  -5   7 -12   21.01    5.41
   7   5 -12   19.13    5.26
   7   5 -12   16.02    5.67
  -7  -5  12   23.55    4.54
   5  -7  12   18.36    7.36
  -7  -5  12   11.43    4.50
   7   4 -12    1.72    2.71
   7   4 -12    4.87    3.56
  -4   7 -12    4.27    2.45
  -7  -4  12    3.70    1.98
  -7  -4  12    5.52    2.01
   4  -7  12    5.05    5.11
   7   3 -12   22.73    5.74
  -3   7 -12   21.85    6.41
   7   3 -12   19.83    6.57
  -7  -3  12   21.34    5.09
   7   2 -12   18.45    5.49
  -2   7 -12   12.45    5.12
  -2   7 -12   16.56    4.83
   7   2 -12   12.18    4.33
  -7  -2  12    8.43    3.76
   2  -7  12   16.34    3.93
   7   1 -12   22.09    5.00
  -1   7 -12   17.42    5.52
  -1   7 -12   21.97    5.74
   7   1 -12   11.63    6.32
  -7  -1 -12    2.69    6.96
  -7  -1  12   22.61    4.68
   7   1  12   18.26    4.60
   1  -7  12   21.22    4.57
  -7   0 -12    0.51    4.54
   7   0 -12   -1.11    3.98
   7   0 -12    4.80    4.96
   0   7 -12    0.08    2.06
   0   7 -12    1.78    3.15
   7   0 -12    1.16    1.84
   7   0  12    1.91    3.00
  -7   0  12   -0.18    1.54
   0  -7  12    0.29    1.55
   7   0  12   -0.08    2.07
   7  -1 -12   17.39    5.02
   1   7 -12   13.18    5.52
  -7   1 -12   15.73    5.98
   1   7 -12   17.95    5.28
   7  -1  12   14.33    5.36
   7  -1  12   22.09    5.03
  -1  -7  12   14.14    4.38
   2   7 -12   16.78    5.17
   2   7 -12   17.50    5.35
  -7   2 -12   23.54    5.46
   7  -2  12   21.53    5.45
   7  -2  12   17.74    5.18
  -2  -7  12   16.23    4.40
   3   7 -12   20.24    5.81
  -7   3 -12   18.03    6.91
  -7   3 -12   18.57    6.13
   3   7 -12   20.11    6.04
   7  -3  12   20.92    6.72
  -3  -7  12   16.39    4.96
   7  -3  12   22.03    6.02
  -7   4 -12    3.16    4.25
   4   7 -12    3.55    2.80
  -7   4 -12    3.47    3.17
   7  -4  12    4.30    2.72
   7  -4  12    2.10    4.44
  -7   5 -12   16.02    5.44
   5   7 -12   13.71    4.91
  -7   5 -12    9.33    6.01
   5   7 -12   21.44    5.23
   7  -5  12   14.53    4.80
  -5  -7  12   11.06    4.02
   7  -5  12   12.44    6.90
   6   7 -12    3.15    3.16
   6   7 -12    3.65    4.08
  -7   6 -12    3.53    4.88
   7  -6  12    0.53    5.97
  -6  -7  12    4.14    2.18
   7  -6  12    2.74    2.98
   7   7 -12   -2.70    4.68
   7   7 -12   -3.70    4.04
   7  -7  12    3.60    6.84
  -7  -7  12   -1.93    2.45
   8   7 -12   -0.60    3.68
   8   7 -12   -5.19    4.51
  -8  -7  12    2.39    2.49
   7  -8  12    3.29    6.99
  -8  -7  12    0.51    2.30
   8   6 -12    0.12    3.72
   8   6 -12   -0.20    3.82
  -8  -6  12    2.55    2.30
   6  -8  12    2.42    6.52
  -8  -6  12    1.38    2.20
   8   5 -12    0.87    3.44
  -5   8 -12    2.76    2.55
   8   5 -12    2.02    3.71
  -8  -5  12    2.48    2.13
  -8  -5  12    1.76    1.96
   8   4 -12   49.31   10.11
   8   4 -12   41.29   11.19
  -4   8 -12   32.75   11.91
  -8  -4  12   31.51    9.22
  -8  -4  12   52.16    9.81
  -3   8 -12    5.79    3.00
   8   3 -12    6.05    3.90
   8   3 -12    5.92    3.08
  -8  -3  12    7.46    2.24
  -2   8 -12   14.95    5.58
   8   2 -12   18.43    5.00
   8   2 -12   20.28    6.06
   8   2 -12   20.46    4.97
  -8  -2  12    9.09    5.66
  -8  -2  12   22.82    4.39
  -8  -2  12   12.96    6.56
   8   2  12   16.60    4.54
  -8  -1 -12    0.87    5.97
   8   1 -12    6.18    3.07
  -1   8 -12   13.42    3.35
   8   1 -12   10.04    4.56
   8   1 -12    8.72    5.08
   8   1  12   10.08    4.07
   8   1  12    7.32    2.92
  -8  -1  12    5.22    2.63
   0   8 -12   25.19    7.00
   8   0 -12   13.76    9.53
   8   0 -12   23.18    8.91
  -8   0 -12   20.96    8.41
   8   0 -12   23.93    6.65
  -8   0  12   27.13    6.49
   8   0  12   35.72    6.99
   0  -8  12   17.68    6.14
   8   0  12   28.12    6.38
   8  -1 -12    8.29    2.95
  -8   1 -12    6.48    4.62
   1   8 -12   11.87    3.36
   1   8 -12   10.41    4.29
  -1  -8  12    6.72    2.83
   8  -1  12    8.19    3.55
   8  -1  12    9.21    4.00
  -8   2 -12   17.30    5.83
   2   8 -12   12.08    5.27
   2   8 -12   24.07    6.09
  -2  -8  12   14.97    4.57
   8  -2  12   18.15    5.87
   8  -2  12   25.20    5.51
  -8   3 -12    8.17    5.53
  -8   3 -12    5.42    3.66
   3   8 -12    8.71    4.39
   3   8 -12    5.29    3.01
   8  -3  12    4.87    3.38
  -3  -8  12    5.40    2.43
   8  -3  12    4.61    4.63
  -8   4 -12   33.98   10.71
   4   8 -12   41.88    9.70
  -8   4 -12   32.29   10.65
   8  -4  12   28.17   11.49
  -4  -8  12   39.99    8.68
   8  -4  12   28.46    9.92
  -8   5 -12    1.23    3.57
  -8   5 -12   -2.07    5.18
   5   8 -12    1.69    3.03
   5   8 -12    0.78    4.53
  -5  -8  12    2.32    2.39
   8  -5  12    3.39    5.66
   8  -5  12    3.42    2.94
   6   8 -12    2.24    3.33
   6   8 -12    4.29    4.74
  -8   6 -12    0.59    3.97
  -8   6 -12    3.79    5.35
   8  -6  12    2.13    3.32
  -6  -8  12    1.48    2.28
   8  -6  12   -0.88    6.57
  -8   7 -12   -1.92    5.71
   7   8 -12    2.15    3.53
   7   8 -12   -0.56    4.95
  -7  -8  12    3.79    2.39
   8  -7  12   -0.17    7.16
   8   8 -12    0.12    3.69
   8   8 -12   -2.33    5.13
   8  -8  12   -0.18    7.46
  -8  -8  12    2.20    2.48
   9   8 -12   -0.13    4.09
   9   7 -12    5.43    4.36
   9   7 -12    4.22    4.58
  -9  -7  12    3.67    2.86
  -9  -7  12    2.06    2.62
   9   6 -12    0.21    4.54
   9   6 -12    3.55    4.20
  -9  -6  12    5.57    2.83
  -9  -6  12    8.70    2.72
   9   5 -12   25.89    6.95
   9   5 -12   15.06    6.22
  -9  -5  12   23.35    5.51
  -9  -5  12   21.10    5.34
   9   4 -12    8.96    4.86
   9   4 -12    7.52    3.85
  -9  -4  12    7.28    2.73
  -9  -4  12    7.69    2.80
   9   3 -12   25.44    8.92
   9   3 -12   31.26    9.89
  -9  -3  12   35.83    7.79
   9   2 -12   -2.27    4.10
   9   2 -12    2.47    2.72
  -9  -2  12    1.60    3.04
  -9  -2  12    4.62    1.85
   9   2  12    3.45    2.74
  -9  -2  12    7.65    5.04
   9   1 -12    7.41    6.20
  -9  -1 -12    4.55    7.11
   9   1 -12   11.30    4.14
   9   1 -12   14.22    5.80
   9   1  12   16.04    5.06
  -9  -1  12   11.14    6.01
   9   1  12   13.46    4.02
  -9  -1  12   15.29    3.77
  -9   0 -12    6.45    5.17
   9   0 -12    6.12    4.56
   9   0 -12   -0.52    2.23
   9   0 -12   -3.06    6.07
   9   0  12   -0.21    3.70
  -9   0  12   -1.25    1.86
   9   0  12   -0.93    2.76
  -9   1 -12   10.50    5.73
   1   9 -12   16.75    4.58
   9  -1 -12    7.85    8.46
   9  -1 -12   13.44    4.26
   9  -1  12   19.44    4.63
   9  -1  12   14.54    5.08
   2   9 -12    0.47    2.74
  -9   2 -12    1.23    3.91
   9  -2  12    0.23    3.44
   9  -2  12    7.16    3.94
   3   9 -12   30.82    9.14
  -9   3 -12   31.53   10.03
  -9   3 -12   32.92   10.93
   9  -3  12   24.46   10.49
   9  -3  12   49.23    9.67
  -3  -9  12   35.23    8.46
  -9   4 -12    3.11    4.52
  -9   4 -12    6.74    6.34
   4   9 -12    8.59    3.56
   9  -4  12   11.31    6.22
  -4  -9  12    5.12    3.14
   9  -4  12    6.20    3.84
  -9   5 -12   14.79    6.74
   5   9 -12   15.57    5.55
  -9   5 -12   11.45    7.61
   9  -5  12   23.63    5.90
   9  -5  12   15.84    8.30
   6   9 -12    4.38    5.37
  -9   6 -12    4.42    6.04
  -9   6 -12    5.95    4.62
   6   9 -12    5.16    3.51
   9  -6  12    3.32    3.74
   9  -6  12    7.81    7.03
  -6  -9  12    3.08    2.92
  -9   7 -12   -1.36    6.40
   7   9 -12    5.05    3.67
   9  -7  12    2.42    3.70
   9  -7  12   -2.16    7.58
   9  -8  12   -1.57    8.16
   9   9 -12   -0.70    5.75
   9  -9  12  -25.89    9.23
  -9  -9  12   -3.31    3.12
  10   9 -12    3.66    4.44
  10   9 -12   -1.10    5.79
 -10  -9  12   -3.85    3.42
 -10  -8  12   -0.16    2.86
  10   7 -12    2.04    4.55
 -10  -7  12    2.14    3.10
  10   6 -12   -0.45    4.77
  10   6 -12    1.56    4.44
 -10  -6  12   -0.24    2.74
 -10  -6  12    6.23    2.62
  10   5 -12    5.63    4.99
  10   5 -12    9.38    5.03
 -10  -5  12   10.92    3.22
 -10  -5  12   11.45    3.34
  10   4 -12   24.42    8.23
  10   4 -12   24.05    7.48
 -10  -4  12   29.74    6.40
 -10  -4  12   23.63    6.91
  10   3 -12    3.03    3.46
  10   3 -12    5.16    4.18
 -10  -3  12    0.84    2.23
 -10  -3  12    4.99    2.07
 -10  -2 -12  -10.22    6.87
  10   2 -12    3.12    3.11
  10   2 -12    5.05    4.29
  10   2  12    1.54    3.01
 -10  -2  12    5.45    2.04
  10   1 -12    2.87    2.78
  10   1 -12    2.24    2.77
 -10  -1 -12  -10.09    6.96
  10   1 -12    0.63    5.34
  10   1 -12   -2.80    4.87
 -10  -1  12   -2.95    6.28
  10   1  12   -0.11    3.01
 -10  -1  12    1.88    2.06
  10   0 -12    2.11    5.24
 -10   0 -12  -14.46    5.88
  10   0 -12   -1.34    2.55
  10   0 -12   -5.13    6.77
  10   0  12   -8.97    3.50
 -10   0  12   -2.16    2.19
  10  -1 -12    2.48    7.59
  10  -1 -12    1.84    2.23
 -10   1 -12  -12.28    5.13
 -10   2 -12    7.60    4.42
  10  -2  12    4.10    4.45
  10  -2  12   -5.17    3.92
 -10   3 -12    4.95    7.03
 -10   3 -12    3.16    4.44
  10  -3  12    2.10    3.71
  10  -3  12   -3.55    5.29
 -10   4 -12   28.91    8.85
 -10   4 -12   18.58    9.84
  10  -4  12   33.08    9.96
  10  -4  12   32.27    8.14
 -10   5 -12    4.11    5.28
 -10   5 -12    2.96    7.14
  10  -5  12    8.97    7.10
  10  -5  12   11.53    4.53
 -10   6 -12    0.33    6.93
 -10   6 -12   -1.98    4.71
  10  -6  12    3.03    7.52
  10  -6  12   -1.07    3.97
 -10   7 -12   -1.82    7.25
  10  -7  12    7.44    7.98
  10  -7  12   -5.23    3.95
   8  10 -12   -1.85    4.17
   9  10 -12    1.00    4.06
  10  -9  12    0.45    9.25
  10  10 -12    3.53    4.91
  11  10 -12    0.17    4.92
  11   9 -12    5.35    6.22
  11   9 -12   -3.49    4.86
 -11  -9  12   -1.48    3.42
  11   8 -12    4.37    5.77
  11   8 -12    3.68    5.13
 -11  -8  12    2.95    3.21
 -11  -8  12    4.88    3.41
  11   6 -12   14.56    5.05
  11   6 -12   -0.15    5.13
 -11  -6  12   -0.14    2.32
 -11  -6  12   -0.25    2.66
  11   5 -12    6.89    4.64
  11   5 -12   -1.92    4.46
 -11  -5  12    4.06    2.47
 -11  -5  12    3.63    2.41
  11   4 -12    1.82    4.17
  11   4 -12    4.12    4.45
 -11  -4  12    4.58    2.32
 -11  -4  12    1.17    2.29
  11   3 -12    6.42    3.97
  11   3 -12    1.75    4.58
 -11  -3  12    8.09    2.54
 -11  -3  12    5.32    2.59
  11   2 -12    0.45    3.77
 -11  -2 -12   -7.68    7.56
  11   2 -12    1.71    4.58
  11   2  12    0.30    4.65
  11   2  12   11.69    3.38
 -11  -2  12    1.73    2.10
 -11  -1 -12    3.13    7.30
  11   1 -12   -1.80    5.28
  11   1 -12    1.36    3.09
 -11  -1  12   -2.83    2.18
 -11  -1  12   -1.40    4.15
  11   1  12   -0.38    3.43
 -11  -1  12    3.57    6.23
  11   1  12    2.66    4.36
  11   0 -12    1.57    6.97
  11   0 -12   -0.13    2.93
 -11   0 -12   -7.44    6.24
  11   0  12   -1.20    3.63
 -11   0  12    0.62    2.20
  11   0  12   -0.12    4.34
 -11   1 -12   -6.77    5.57
  11  -1 -12    1.75    2.50
  11  -1 -12    3.05    8.25
  11  -1  12   -7.81    4.50
  11  -1  12   -2.96    3.79
 -11   2 -12   -4.28    5.01
 -11   2 -12    3.57    8.55
  11  -2  12   -1.41    5.01
  11  -2  12    0.75    4.29
 -11   3 -12    1.10    5.22
 -11   3 -12   10.04    8.44
  11  -3  12    3.25    4.30
  11  -3  12   10.55    6.04
 -11   4 -12   -3.18    8.02
 -11   4 -12    0.94    5.06
  11  -4  12    0.15    4.12
  11  -4  12    0.50    6.97
 -11   5 -12    6.64    5.37
 -11   5 -12    0.34    7.69
  11  -5  12   -2.46    7.49
  11  -5  12   -2.91    4.39
 -11   6 -12    4.39    7.89
 -11   6 -12    3.73    5.52
  11  -6  12   -0.17    4.28
  11  -6  12    4.41    8.27
 -11   7 -12    6.75    9.13
 -11   7 -12   27.53   10.21
  12  10 -12   20.71    8.11
  12   9 -12   12.56    5.71
 -12  -9  12   -4.19    3.97
 -12  -9  12    1.40    3.85
  12   8 -12    6.85    5.77
  12   8 -12   -5.76    6.24
 -12  -8  12    4.15    3.18
 -12  -8  12   -0.80    3.37
  12   7 -12    0.31    5.99
  12   7 -12   -0.17    5.08
 -12  -7  12   -0.14    2.84
 -12  -7  12    0.96    3.01
  12   5 -12   38.53    8.15
  12   5 -12   10.19    7.71
 -12  -5  12   19.25    5.71
 -12  -5  12   18.57    5.62
  12   4 -12    4.97    4.89
  12   4 -12    1.41    4.42
 -12  -4  12    2.72    2.44
 -12  -4  12    1.07    2.36
  12   3 -12    0.62    4.97
  12   3 -12    4.67    4.27
 -12  -3  12    1.29    2.44
  12   3  12    1.50    3.86
 -12  -3  12    3.90    2.19
  12   2 -12    7.67    5.23
  12   2 -12   -0.99    3.85
 -12  -2  12   -0.88    2.24
  12   1 -12    0.45    3.61
  12   1 -12   -3.71    5.57
 -12  -1  12    0.87    2.41
  12   0 -12   12.59    8.19
  12   0 -12    9.36    4.16
 -12   0  12    9.91    3.47
 -12   1 -12    9.41    6.22
  12  -1 -12   -1.27    3.04
  12  -1 -12    2.73    9.28
  12  -1  12    4.75    5.01
 -12   2 -12    1.60    5.72
  12  -2  12   -1.86    5.63
  12  -3  12   -2.88    6.86
  12  -6  12  -10.59    5.47
 -12   7 -12   14.66    5.51
 -12   7 -12    2.63    8.86
  12  -7  12   -2.13    5.11
  12  -8  12   -5.53   10.19
  12  -9  12   -9.15   11.06
  13  10 -12    3.82    6.40
 -13 -10  12    5.16    4.48
  13   9 -12    0.80    6.50
 -13  -9  12    3.83    4.27
 -13  -9  12    3.49    4.09
  13   8 -12   -0.38    6.46
  13   8 -12    3.04    6.03
 -13  -8  12    5.99    3.74
 -13  -8  12    3.16    3.47
  13   7 -12    2.55    6.11
  13   7 -12    1.32    6.28
 -13  -7  12    4.39    3.42
 -13  -7  12    6.13    3.18
  13   6 -12    6.24    5.65
 -13  -6  12    3.91    2.94
  13   4 -12    1.27    5.26
  13   4 -12    6.45    4.98
 -13  -4  12    8.78    2.72
 -13  -4  12    0.67    2.62
  13   3 -12   -8.21    5.33
 -13  -3 -12   -2.60    9.16
  13   3  12   -0.81    4.17
 -13  -3  12    2.11    2.55
 -13  -3  12   -1.01    2.35
 -13  -2 -12   -8.49    9.62
 -13  -2  12    3.02    2.46
  13   2  12    3.78    5.46
  13   2  12   -5.97    4.12
 -13  -2  12   -4.22    2.63
 -13  -1 -12   17.04   13.06
  13   1  12   15.21    8.44
  13   1  12   23.43    9.34
 -13   0 -12   35.91   10.49
 -13   0  12    3.68    8.78
 -13   0  12   12.82   10.42
  13   0  12   38.00    7.57
  13   0  12   27.41    8.29
 -13   1 -12   55.41   14.54
  13  -1 -12   40.95   17.19
  13  -1  12   64.53   12.86
 -13   2 -12  -23.69    7.90
 -13   2 -12   -3.29   11.42
 -13   4 -12   -1.87    6.75
 -13   4 -12    4.19   10.23
  13  -4  12    8.17    8.33
  13  -4  12   -1.71    5.83
 -13   5 -12    8.76   10.60
 -13   5 -12   17.00    7.12
  13  -5  12    9.42    5.82
  13  -5  12    1.27    9.28
 -13   6 -12    9.29   10.00
 -13   6 -12    3.23    6.93
  13  -6  12    3.98    5.31
  13  -6  12    5.11    9.00
 -13   7 -12    1.55    6.73
 -13   7 -12   -0.49    9.81
  13  -7  12   -1.20   10.11
  13  -7  12   11.31    5.33
 -13   8 -12   -1.03    9.60
 -13   8 -12  -10.22    7.43
  13  -8  12   -4.08   10.65
  13  -9  12    3.64   11.45
  14  10 -12   -9.50    7.77
 -14 -10  12  -12.13    5.01
 -14  -9  12    3.61    4.53
 -14  -8  12    0.21    3.56
 -14  -3 -12  -12.07   10.30
  14   3  12   -4.46    4.93
 -14  -2 -12   15.57   10.21
  14   2  12    0.75    5.83
  14   2  12    3.23    5.11
 -14  -1 -12  -10.55    9.91
  14   1  12    7.13    5.88
  14   1  12    4.00    5.02
 -14   0 -12   -3.01    8.85
  14   0  12   -7.26    6.12
  14   0  12   -3.05    5.39
 -14   1 -12  -12.92   13.18
 -14   1 -12   10.15    7.70
  14  -1  12  -11.80    6.08
  14  -1  12    5.40    5.48
 -14   2 -12    3.88    7.45
 -14   2 -12   11.57   12.09
  14  -2  12    4.20    5.80
  14  -2  12    0.52    6.82
 -14   3 -12   -1.39    7.45
 -14   3 -12   -2.35   11.86
  14  -3  12    0.20    5.84
  14  -3  12  -16.39    7.85
 -14   4 -12    0.57    7.02
 -14   4 -12   -2.38   11.21
  14  -4  12   -4.50    5.82
  14  -4  12  -14.49    8.77
 -14   5 -12    1.30    7.04
 -14   5 -12    9.12   11.64
  14  -5  12    4.45    5.86
  14  -5  12    3.26    9.56
 -14   6 -12    8.05    7.48
 -14   6 -12   17.34   11.91
  14  -6  12  -15.44    9.64
  14  -6  12    6.51    5.76
 -14   7 -12   19.42    7.98
 -14   7 -12    4.37   11.17
  14  -7  12    8.72    6.48
  14  -7  12    1.79   11.27
 -14   8 -12  -11.49    7.70
 -14   8 -12    3.43   10.54
  14  -8  12   -6.77   10.91
 -14   9 -12   17.58    8.55
  14  -9  12    9.31   12.46
 -15  -3 -12   -4.81   11.27
  15   3  12    2.39    5.36
 -15  -2 -12   -2.44   11.28
  15   2  12    1.60    5.48
  15   2  12   -5.50    6.37
 -15  -1 -12   20.42   11.21
  15   1  12   16.69    6.57
  15   1  12   -4.49    5.75
 -15   0 -12    3.96    9.70
  15   0  12  -12.62    5.99
  15   0  12    2.06    6.38
 -15   1 -12    8.67   14.13
 -15   1 -12   19.33    8.87
 -15   1  12    7.26    7.66
  15  -1  12    3.10    6.73
  15  -1  12    6.61    6.32
 -15   2 -12  -15.46   14.08
 -15   2 -12    2.98    7.75
  15  -2 -12   -4.67   12.52
  15  -2  12   -5.50    6.17
  15  -2  12   -4.99    7.01
 -15   3 -12   15.89    8.03
 -15   3 -12   31.68   13.63
  15  -3  12  -10.79    8.44
  15  -3  12  -10.60    6.39
 -15   4 -12   -5.52   15.77
 -15   4 -12    9.65   11.65
  15  -4  12   43.78   12.53
 -15   5 -12   -5.18   12.91
 -15   5 -12  -10.59    8.01
  15  -5  12    6.25   10.07
  15  -5  12    0.50    6.36
 -15   6 -12   -9.53   13.19
 -15   6 -12   22.90    8.18
  15  -6  12    3.87    6.73
  15  -6  12    5.59   11.04
 -15   7 -12    2.95    8.12
 -15   7 -12   -3.08   12.07
  15  -7  12    1.04    5.98
  15  -7  12   -3.87   11.35
 -15   8 -12    8.79    8.53
 -15   8 -12  -10.21   11.24
  15  -8  12  -16.12   12.26
 -15   9 -12   21.62    9.25
  15  -9  12   -8.59   13.68
 -16  -3 -12    8.62   12.35
  16   3  12    0.89    6.21
 -16  -2 -12  -39.05   13.15
  16   2  12    0.22    6.04
  16   2  12    4.92    7.01
 -16  -1 -12    7.28   11.77
  16   1  12   -0.23    6.29
  16   1  12  -13.80    7.16
 -16   0 -12    5.44   10.48
 -16   0 -12    2.80   15.86
  16   0  12   -7.62    6.53
  16   0  12    7.26    7.07
 -16   1 -12    7.81    9.78
 -16   1 -12   -1.70   15.33
  16  -1  12  -14.80    7.46
  16  -1  12   -7.17    6.76
 -16   2 -12   12.80   15.35
  16  -2 -12   23.02   13.25
 -16   2 -12   24.59    9.44
  16  -2  12    2.14    8.08
  16  -2  12    6.04    6.99
 -16   3 -12    6.01   14.57
 -16   3 -12    2.48    9.03
  16  -3  12   10.15    8.62
  16  -3  12   -1.27    6.74
 -16   4 -12    3.81    8.67
 -16   4 -12   -1.25   14.99
  16  -4  12    4.50    9.41
  16  -4  12   -9.63    7.00
 -16   5 -12  -13.78    9.15
 -16   5 -12    1.96   14.10
  16  -5  12   -8.80   10.63
  16  -5  12    1.38    7.41
 -16   6 -12  -13.52   14.11
 -16   6 -12    9.59    8.67
  16  -6  12   -4.28    6.92
  16  -6  12   -7.25   11.30
 -16   7 -12    1.62    9.24
 -16   7 -12    8.35   14.04
  16  -7  12  -14.45    7.23
  16  -7  12  -18.24   12.59
 -16   8 -12   23.63   14.54
 -16   8 -12    5.69    9.57
 -16   9 -12    4.38    9.31
 -17  -3 -12    2.11   14.04
  17   3  12    0.75    6.81
 -17  -2 -12    0.99   13.71
  17   2  12   11.73    6.87
  17   2  12  -12.35    7.93
 -17  -1 -12  -19.81   13.88
  17   1  12  -26.50    7.24
  17   1  12    4.47    7.75
 -17   0 -12    9.25   17.18
 -17   0 -12   12.56   11.52
  17   0  12  -16.79    7.37
  17   0  12    8.54    7.69
 -17   1 -12   19.54   10.89
 -17   1 -12  -11.38   16.88
  17  -1  12   22.78    8.55
  17  -1  12    5.50    7.50
 -17   2 -12   -1.50    9.90
 -17   2 -12   -0.66   16.68
  17  -2  12  -15.64    7.34
  17  -2  12    6.70    8.44
 -17   3 -12   20.72   10.12
 -17   3 -12   34.15   17.67
  17  -3  12    5.30    7.84
  17  -3  12    1.25    9.47
 -17   4 -12   -6.53    9.91
 -17   4 -12  -11.54   17.29
  17  -4  12   -5.84   10.41
  17  -4  12  -12.66    7.90
 -17   5 -12    4.52   23.24
 -17   5 -12   19.17   17.68
 -17   6 -12  -21.75   10.90
 -17   6 -12    6.97   16.80
  17  -6  12   -6.21   13.26
  17  -6  12  -30.34    9.12
 -17   7 -12   17.10   10.41
 -17   7 -12    6.34   16.20
  17  -7  12   12.19    8.30
  17  -7  12   -1.95   13.22
 -17   8 -12    8.88   14.51
 -17   8 -12   -4.97    9.98
  17  -8  12    7.21   14.04
 -18  -3 -12   -6.41   15.69
  18   3  12  -15.17    7.85
 -18  -2 -12    5.52   15.90
  18   2  12    1.91    8.63
  18   2  12  -16.27    8.07
 -18  -1 -12   11.06   15.21
 -18  -1 -12  -65.43   20.14
  18   1  12  -33.76   10.17
  18   1  12   -0.29    8.20
 -18   0 -12  -29.64   15.45
 -18   0 -12  -34.18   19.51
  18   0  12  -17.68    9.21
 -18   1 -12   -5.39   13.02
 -18   1 -12  -17.00   19.21
  18  -1  12  -28.16   10.34
  18  -1  12    0.57    8.31
 -18   2 -12   -6.70   19.26
 -18   2 -12   10.20   12.10
  18  -2  12  -26.25   10.01
  18  -2  12    4.42    8.01
 -18   3 -12   10.99   10.93
 -18   3 -12   30.66   19.23
  18  -3  12    1.56    8.48
  18  -3  12    5.91   10.13
 -18   4 -12   27.70   19.28
 -18   4 -12   -1.22   11.11
  18  -4  12  -11.47   11.47
  18  -4  12  -33.28    9.52
 -18   5 -12  -10.24   19.03
 -18   5 -12   -7.63   11.15
  18  -5  12   -7.47   12.15
  18  -5  12   -7.50    8.87
 -18   6 -12    0.29   10.79
 -18   6 -12  -15.84   18.31
  18  -6  12    0.33   13.13
  18  -6  12   14.37    9.10
 -18   7 -12    7.20   17.98
 -18   7 -12  -11.73   11.31
  18  -7  12   25.19   14.78
  18  -7  12    0.36    8.43
 -18   8 -12   12.40   11.73
 -18   8 -12   -8.23   17.61
  18  -8  12   37.24   16.40
 -19  -2 -12  -34.51   17.58
  19   2  12   -2.74    9.84
 -19  -1 -12  -11.74   17.90
  19   1  12    0.32    7.67
  19   1  12    8.47    9.92
 -19   0 -12   -7.18   16.64
 -19   0 -12  -19.82   20.62
  19   0  12   -5.28   10.20
 -19   1 -12  -30.40   20.82
 -19   1 -12   -8.23   14.37
  19  -1  12    0.31    8.60
  19  -1  12   -9.07   10.02
 -19   2 -12   18.96   13.77
 -19   2 -12  -23.15   20.61
  19  -2  12  -16.21   10.57
 -19   3 -12   -5.50   12.79
  19  -3  12   14.93   11.21
  19  -3  12    0.35    7.80
 -19   4 -12  -40.16   12.90
 -19   4 -12    0.93   17.25
  19  -4  12   11.60   12.04
   0   0 -13   -0.81    1.34
  -1   0 -13   14.51    6.68
   0   1 -13   26.40    7.71
   1   0 -13   22.50    6.51
   0   1 -13   35.29    6.36
   0  -1  13   28.00    5.80
  -1   0  13   26.11    5.83
  -1   1 -13   -0.32    2.70
   1   1 -13    0.49    1.29
  -1   1 -13   -0.45    1.17
   1   1 -13   -0.98    2.69
  -1  -1  13    0.71    0.98
   1  -1  13    0.06    0.98
  -1   2 -13    4.79    2.77
   2   1 -13    3.87    1.80
  -1   2 -13    6.17    1.87
   2   1 -13    5.99    3.11
   1  -2  13    5.21    1.45
   1  -2  13    6.62    1.42
  -2  -1  13    3.10    1.47
   0   2 -13   -0.53    2.45
   2   0 -13    0.65    3.13
  -2   0 -13   -0.48    1.24
   2   0 -13    0.54    1.45
   0   2 -13    1.10    1.43
   0  -2  13    0.37    1.03
   0  -2  13    0.39    0.67
  -2   0  13   -0.20    1.03
   1   2 -13    5.43    1.70
  -2   1 -13    3.12    1.60
   1   2 -13    4.40    2.70
   2  -1  13   -0.05    1.11
  -1  -2  13    0.06    1.26
   2  -1  13    5.28    1.41
   2   2 -13   -0.08    1.56
   2   2 -13   -0.39    2.53
  -2   2 -13    0.75    1.42
  -2   2 -13    2.65    2.36
  -2  -2  13    0.35    1.07
   2  -2  13    3.16    0.94
   2  -2  13   -0.51    1.17
   3   2 -13   -1.93    2.89
   3   2 -13   -1.08    1.70
   3   2 -13    0.30    1.68
  -2   3 -13   -5.27    2.27
  -2   3 -13   -5.44    3.20
  -3  -2  13   -1.06    1.30
  -1   3 -13    0.40    1.67
  -1   3 -13    0.16    1.47
   3   1 -13    3.22    3.02
  -1   3 -13   -0.46    2.21
   1  -3  13   -0.14    0.92
  -3  -1  13    0.71    1.16
   1  -3  13   -0.71    1.04
   0   3 -13   -0.33    1.71
   3   0 -13   -0.41    3.24
   0   3 -13    0.57    2.30
   0  -3  13    0.05    1.03
  -3   0  13    1.14    1.15
   1   3 -13    0.17    1.77
   1   3 -13   -1.35    2.35
   3  -1  13    1.83    1.32
  -1  -3  13    0.80    1.12
   2   3 -13   -1.69    2.94
   2   3 -13   -2.41    1.99
  -2  -3  13   -0.61    1.54
   3   3 -13   -1.31    2.05
   3   3 -13   -2.63    3.03
  -3  -3  13   -1.42    1.64
  -3   4 -13   10.38    2.94
  -3   4 -13    8.64    3.45
  -3   4 -13    4.34    2.91
   4   3 -13    6.02    3.79
  -3   4 -13    8.75    3.41
   3  -4  13   11.04    3.29
   3  -4  13    7.96    2.93
   3  -4  13   13.00    2.40
   3  -4  13    9.62    2.34
  -4  -3  13    7.45    2.49
  -2   4 -13    3.25    2.17
  -2   4 -13    4.13    2.84
   4   2 -13    8.31    2.55
  -2   4 -13    3.00    2.94
   4   2 -13    6.85    3.31
  -2   4 -13    4.99    2.33
  -4  -2  13    6.95    1.84
   2  -4  13    7.27    1.70
   2  -4  13    5.63    1.78
  -1   4 -13   -0.59    2.68
  -1   4 -13   -1.31    2.19
   4   1 -13   -1.69    3.32
   4   1 -13    1.32    1.62
  -4  -1  13    0.34    1.31
   1  -4  13   -0.18    1.28
   1  -4  13   -0.34    1.48
   4   0 -13    0.08    1.88
   0   4 -13    7.12    3.04
   4   0 -13   -1.44    4.02
   0   4 -13    6.01    2.68
   0  -4  13    9.73    1.97
  -4   0  13    2.64    1.73
   1   4 -13   -2.82    2.95
   1   4 -13   -0.71    2.01
  -1  -4  13   -2.12    1.71
  -1  -4  13   -0.14    1.43
   2   4 -13    8.52    3.04
   2   4 -13    8.24    2.51
  -4   2 -13   -5.29    3.92
  -2  -4  13    6.43    1.96
  -2  -4  13    5.24    1.86
   3   4 -13   11.85    3.09
   3   4 -13    7.71    3.63
  -3  -4  13    7.74    2.57
  -3  -4  13    6.05    2.49
  -4   4 -13    0.18    1.92
   4   4 -13   -0.10    2.78
   4  -4  13   -0.43    0.97
  -4  -4  13    0.91    1.40
  -4   5 -13   35.28    9.18
   5   4 -13   32.31    8.99
   5   4 -13   30.80   10.25
  -4   5 -13   39.33   10.38
   4  -5  13   35.48    8.23
  -5  -4  13   26.18    8.76
  -5  -4  13   39.31    8.34
   4  -5  13   41.64    8.67
   5   3 -13   77.75   17.56
  -3   5 -13   75.13   19.89
  -3   5 -13   64.28   20.89
   5   3 -13   81.62   19.40
   3  -5  13   95.27   18.97
   3  -5  13   71.65   17.27
  -5  -3  13   81.59   16.38
   5   2 -13   19.88    4.06
   5   2 -13    9.37    5.10
  -2   5 -13   13.42    4.63
  -2   5 -13   14.82    4.25
   2  -5  13   14.63    3.57
   2  -5  13   14.49    3.75
   2  -5  13    7.74    4.60
  -5  -2  13   17.60    3.59
  -1   5 -13   15.55    5.02
   5   1 -13   11.58    5.71
  -1   5 -13   19.10    4.60
   5   1 -13   22.81    4.45
   5   1 -13   18.21    6.07
   1  -5  13   16.52    4.01
   1  -5  13   14.41    4.15
  -5  -1  13   18.43    4.11
   0   5 -13   59.63   10.80
   0   5 -13   52.53    9.80
  -5   0 -13   14.39   11.58
   5   0 -13   31.75   12.17
   5   0 -13   53.87   10.01
   0  -5  13   47.78    9.31
  -5   0  13   39.76    9.59
   5   0  13   47.24    9.47
   0  -5  13   40.98    9.50
  -5   1 -13   15.11    4.88
   1   5 -13   20.78    4.51
  -5   1 -13    5.17    5.71
   1   5 -13   16.84    4.84
  -1  -5  13   14.00    3.94
   5  -1  13   12.09    4.27
  -1  -5  13   17.62    3.79
   5  -1  13   14.36    4.70
  -5   2 -13   15.69    4.28
  -5   2 -13   10.61    5.03
   2   5 -13    9.52    4.76
   2   5 -13   16.82    4.29
  -5   2 -13   16.98    5.58
   5  -2  13   13.56    4.34
  -2  -5  13   16.60    3.83
  -2  -5  13   18.65    3.70
   5  -2  13    7.93    4.45
   5  -2  13   19.24    3.89
  -5   3 -13   82.09   21.97
  -5   3 -13   97.49   19.24
   3   5 -13   68.82   19.83
   5  -3  13   77.10   19.09
   5  -3  13   91.23   18.26
   5  -3  13   81.21   19.52
  -3  -5  13   84.86   17.52
  -5   4 -13   43.37    9.73
  -5   4 -13   28.97    9.43
   4   5 -13   23.16   10.08
  -4  -5  13   47.12    8.45
   5  -4  13   28.99   10.15
   5  -4  13   31.22    9.50
   5   5 -13   -0.10    3.03
  -5   5 -13   -1.43    2.44
  -5   5 -13   -1.03    2.52
  -5   5 -13   -0.33    3.66
   5   5 -13   -1.56    2.76
  -5  -5  13    0.09    1.66
  -5  -5  13   -1.35    1.93
   5  -5  13   -0.91    1.18
   5  -5  13    2.38    3.96
   5  -5  13    0.32    2.31
   6   5 -13   11.19    4.02
  -5   6 -13   10.13    5.20
   6   5 -13    5.97    4.40
  -5   6 -13   12.44    3.69
  -6  -5  13    9.97    3.08
   5  -6  13   11.50    3.04
  -6  -5  13    8.41    3.17
   5  -6  13   15.55    5.88
   6   4 -13    2.73    2.64
  -4   6 -13    1.58    2.21
  -4   6 -13    3.99    2.89
   6   4 -13    2.67    3.24
   4  -6  13    2.61    1.48
  -6  -4  13    1.18    1.68
  -6  -4  13    1.83    1.73
   6   3 -13   15.88    5.10
  -3   6 -13   14.32    5.59
   6   3 -13   14.82    5.93
  -3   6 -13   25.27    5.56
  -6  -3  13   24.76    4.54
   3  -6  13   22.03    4.50
   6   2 -13   14.73    4.70
  -2   6 -13   10.49    3.73
   6   2 -13    9.45    3.43
  -2   6 -13    9.73    3.79
   2  -6  13   12.45    2.92
  -6  -2  13   10.82    2.94
   6   1 -13   26.44   12.43
   6   1 -13   31.48   11.74
   6   1 -13   33.75    9.84
  -1   6 -13   51.11    9.98
  -1   6 -13   40.31   11.00
  -6  -1  13   38.48    9.37
   6   1  13   43.45    9.11
   1  -6  13   46.06    9.08
   6   0 -13   -0.96    3.95
   6   0 -13   -0.18    1.72
  -6   0 -13   -0.62    1.37
  -6   0 -13    0.92    4.31
   0   6 -13    1.34    2.89
   0   6 -13   -0.38    2.25
  -6   0  13   -0.35    1.40
   6   0  13    0.45    1.86
   0  -6  13   -0.16    1.30
  -6   1 -13   42.48   12.08
  -6   1 -13   25.27   11.62
   1   6 -13   37.36   10.88
   1   6 -13   40.86    9.90
  -1  -6  13   42.57    9.28
   6  -1  13   53.11   10.24
   6  -1  13   33.93   10.13
   2   6 -13    8.85    3.72
   2   6 -13   12.58    3.97
  -6   2 -13    8.21    4.10
  -2  -6  13   10.52    2.89
   6  -2  13   11.17    3.59
   6  -2  13    8.44    3.81
  -6   3 -13   16.28    5.99
  -6   3 -13   14.81    5.06
   3   6 -13   21.62    5.14
   3   6 -13   14.09    4.99
  -3  -6  13   10.20    4.10
   6  -3  13   10.98    5.26
   6  -3  13   14.11    5.03
  -6   4 -13    1.06    3.74
  -6   4 -13    3.15    2.52
   4   6 -13    2.67    2.79
  -4  -6  13    1.50    1.82
   6  -4  13    0.41    3.70
   6  -4  13    1.65    2.38
  -6   5 -13    6.55    5.05
  -6   5 -13   13.07    4.21
   5   6 -13   16.99    4.38
   5   6 -13    9.99    4.33
  -5  -6  13   10.00    3.24
   6  -5  13   13.74    3.88
   6  -5  13   18.59    5.64
  -5  -6  13    8.47    3.33
  -6   6 -13    1.79    3.04
  -6   6 -13   -1.14    4.46
   6   6 -13    2.88    3.64
   6   6 -13    0.11    3.17
   6  -6  13   -0.51    2.61
   6  -6  13   -0.90    5.27
  -6  -6  13    1.03    2.09
  -6  -6  13    0.32    1.84
   7   6 -13   13.93    4.92
   7   6 -13    9.82    4.74
  -7  -6  13   16.89    3.73
  -7  -6  13   12.16    3.57
   6  -7  13   -1.15    6.88
   7   5 -13    2.20    3.35
   7   5 -13    5.33    3.59
  -5   7 -13   -0.78    2.24
  -7  -5  13    1.44    1.90
  -7  -5  13    1.46    2.17
   7   4 -13   64.98   15.90
  -4   7 -13   50.93   16.63
   7   4 -13   46.56   14.25
  -7  -4  13   78.04   13.36
  -3   7 -13   22.50    6.87
   7   3 -13   24.58    7.13
   7   3 -13   19.84    6.18
  -3   7 -13   24.41    6.83
  -7  -3  13   21.04    5.40
   3  -7  13   23.28    5.65
  -2   7 -13   12.61    5.15
  -2   7 -13   12.29    4.78
   7   2 -13   15.26    5.51
   7   2 -13   18.29    4.45
   2  -7  13   18.52    3.86
  -7  -2  13   14.82    3.80
  -1   7 -13    5.70    2.73
  -1   7 -13    3.36    3.47
   7   1 -13    6.14    2.39
   7   1 -13    4.00    4.15
  -7  -1  13    3.26    1.93
   7   1  13    5.28    2.38
   1  -7  13    4.36    1.88
   7   0 -13   19.10   13.54
   7   0 -13   58.20   10.53
   0   7 -13   37.57   10.63
   7   0 -13   20.16   14.28
  -7   0 -13    7.14   12.28
   0   7 -13   41.51   11.37
   7   0  13   41.68    9.98
  -7   0  13   56.29   10.22
   7   0  13   48.56   10.64
   1   7 -13    5.38    3.49
  -7   1 -13    1.85    4.41
   1   7 -13    4.49    2.83
  -1  -7  13    5.77    2.11
   7  -1  13    7.46    3.37
   7  -1  13    6.45    2.82
  -7   2 -13   15.37    4.89
   2   7 -13   15.23    4.91
   2   7 -13   12.38    4.49
   7  -2  13   13.44    4.61
  -2  -7  13    8.11    3.51
   7  -2  13   13.39    4.49
   3   7 -13   19.05    6.58
  -7   3 -13   24.66    6.79
  -7   3 -13   27.25    7.66
   3   7 -13   26.50    6.67
  -3  -7  13   17.04    5.62
   7  -3  13   28.43    7.01
   7  -3  13   22.47    6.68
  -7   4 -13   53.30   14.29
   4   7 -13   55.79   14.20
   4   7 -13   60.17   13.23
  -7   4 -13   44.46   14.85
   7  -4  13   51.43   14.21
   7  -4  13   35.80   15.33
  -4  -7  13   52.00   12.41
   5   7 -13    1.92    2.96
  -7   5 -13    0.40    4.43
  -7   5 -13    0.25    3.16
   5   7 -13    2.67    3.82
   7  -5  13    1.32    2.71
   7  -5  13   -0.11    4.94
   6   7 -13   12.40    4.91
  -7   6 -13   11.69    4.75
   6   7 -13   12.60    4.44
  -7   6 -13    8.28    5.77
   7  -6  13   10.27    4.18
   7  -6  13    8.43    6.64
  -6  -7  13   10.05    3.31
   7   7 -13   -2.25    3.59
   7   7 -13   -0.90    4.33
  -7  -7  13   -0.23    2.38
   7  -7  13   -1.42    6.63
  -7  -7  13    0.12    2.18
   8   7 -13    1.04    4.05
   8   7 -13   -3.76    4.43
  -8  -7  13    1.59    2.35
  -8  -7  13   -0.62    2.54
   8   6 -13   13.03    4.50
   8   6 -13    9.40    4.65
  -8  -6  13    7.65    3.07
  -8  -6  13    6.52    3.21
  -5   8 -13   15.88    7.42
   8   5 -13   36.85    7.87
   8   5 -13   34.44    7.17
  -8  -5  13   24.10    6.10
  -8  -5  13   21.18    6.20
   8   4 -13   -0.13    3.80
  -4   8 -13    0.78    2.53
   8   4 -13   -1.34    3.11
  -8  -4  13   -1.02    1.98
  -8  -4  13    1.38    1.86
   8   3 -13   30.64    9.31
   8   3 -13   34.32   10.40
  -3   8 -13   33.76   10.77
  -8  -3  13   32.81    8.20
  -2   8 -13    3.89    2.92
   8   2 -13    2.77    4.16
   8   2 -13    5.40    2.81
  -8  -2  13    6.50    2.16
   8   1 -13   22.88    6.12
  -1   8 -13   20.46    6.82
   8   1 -13   23.18    7.94
  -8  -1 -13   -2.32    8.39
  -8  -1  13   25.48    5.76
   8   1  13   27.10    5.74
   1  -8  13   21.35    5.68
  -8   0 -13    0.98    5.40
   8   0 -13    1.97    4.68
   8   0 -13    0.10    2.08
   0   8 -13   -0.26    2.42
   0   8 -13   -1.69    3.70
   8   0 -13   -0.15    5.61
   8   0  13    0.29    2.51
  -8   0  13    1.11    1.82
   0  -8  13    0.36    1.87
   8   0  13    1.96    3.54
   1   8 -13   28.01    7.28
   8  -1 -13   17.94    6.56
   1   8 -13   32.06    6.87
  -8   1 -13   20.40    7.92
   8  -1  13   21.83    6.91
   8  -1  13   28.66    6.70
  -1  -8  13   22.65    5.87
   2   8 -13    4.93    2.91
   2   8 -13    3.38    4.20
  -8   2 -13    5.37    3.77
   8  -2  13    1.14    3.14
  -2  -8  13    5.05    2.26
   8  -2  13    4.35    3.61
  -8   3 -13   41.17   11.67
   3   8 -13   30.86   10.43
   3   8 -13   46.47   10.28
  -8   3 -13   48.77   10.90
  -3  -8  13   38.17    9.10
   8  -3  13   34.72   10.96
   8  -3  13   35.91   10.77
   4   8 -13    0.40    2.97
  -8   4 -13    0.63    5.21
  -8   4 -13    1.11    3.52
   4   8 -13    3.47    4.25
   8  -4  13    1.68    2.93
  -4  -8  13   -0.12    2.20
   8  -4  13    2.32    4.75
  -8   5 -13   17.05    7.28
   5   8 -13   36.22    6.86
  -8   5 -13   15.08    7.89
   8  -5  13   16.04    6.64
   8  -5  13   27.88    8.71
   6   8 -13   10.35    3.85
  -8   6 -13    2.63    5.71
   6   8 -13   12.73    5.22
  -8   6 -13    6.47    4.46
   8  -6  13    6.20    6.79
   8  -6  13    2.12    3.77
  -6  -8  13    8.63    2.90
   7   8 -13    0.28    5.00
  -8   7 -13    1.55    5.75
   7   8 -13   -2.85    3.59
   8  -7  13   -3.28    7.08
  -7  -8  13   -2.26    2.47
   8   8 -13    0.38    3.84
   8  -8  13    0.68    7.41
   9   7 -13    5.43    4.76
   9   7 -13   -0.25    3.88
  -9  -7  13    4.06    3.00
   9   6 -13    4.09    4.48
   9   6 -13    0.86    4.44
  -9  -6  13    0.24    2.67
  -9  -6  13    3.77    2.41
   9   5 -13    7.06    4.37
   9   5 -13    3.87    3.93
  -9  -5  13    1.69    2.44
  -9  -5  13    1.50    2.17
   9   4 -13   32.26   10.65
   9   4 -13   37.80    9.68
  -4   9 -13   32.11   11.45
  -9  -4  13   37.62    9.28
  -9  -4  13   42.23    8.63
  -3   9 -13    0.37    2.86
   9   3 -13   -0.14    4.06
   9   3 -13   -1.99    3.26
  -9  -3  13    1.01    2.00
   9   2 -13   20.13    6.66
  -2   9 -13   21.11    6.02
   9   2 -13   22.10    5.43
  -9  -2  13   22.36    4.79
   9   2  13    5.82    4.82
   9   1 -13    3.76    2.71
   9   1 -13    3.30    4.88
  -9  -1 -13   -0.49    6.56
  -1   9 -13    3.00    2.86
   9   1  13    4.64    3.04
  -9  -1  13    4.59    2.11
   9   1  13    1.50    4.01
   9   0 -13   30.25    7.29
   9   0 -13   29.08   10.45
  -9   0 -13   11.72    9.30
   9   0 -13   15.59    9.78
   0   9 -13   27.92    7.74
   9   0  13   32.84    7.12
  -9   0  13   31.14    7.18
   9   0  13   27.44    7.66
   1   9 -13    2.19    2.76
  -9   1 -13    2.98    4.61
   9  -1 -13    2.89    2.41
   9  -1  13    2.61    3.19
   9  -1  13   -4.73    3.85
  -1  -9  13    2.35    2.46
  -9   2 -13   19.18    6.70
   2   9 -13   19.04    5.67
  -2  -9  13   19.12    5.10
   9  -2  13   14.21    6.12
   9  -2  13   20.74    6.37
   3   9 -13   -0.58    4.49
  -9   3 -13    2.01    4.10
   3   9 -13    0.10    3.05
  -9   3 -13    1.97    6.76
   9  -3  13    1.61    4.93
   9  -3  13    9.73    4.15
  -3  -9  13    1.19    2.38
   4   9 -13   35.81    9.61
  -9   4 -13   31.63   10.72
   4   9 -13   23.28   10.31
  -9   4 -13   33.66   11.16
   9  -4  13   45.79   10.07
  -4  -9  13   37.29    8.77
   9  -4  13   40.76   11.38
  -9   5 -13    3.91    6.08
  -9   5 -13   -0.21    4.16
   5   9 -13    3.19    3.41
   9  -5  13   -0.26    3.48
   9  -5  13    5.30    6.33
   6   9 -13    1.52    3.37
  -9   6 -13   -1.33    4.57
  -9   6 -13    0.29    6.36
   9  -6  13    2.45    6.55
   9  -6  13    1.38    3.56
  -9   7 -13    1.66    6.26
  -9   7 -13    1.02    4.78
   9  -7  13    5.46    7.43
   9  -7  13    4.33    3.73
   8   9 -13   -3.37    5.66
  -8  -9  13   -1.02    2.78
   9  -8  13    1.30    8.02
   9   9 -13    3.87    6.10
   9   9 -13    3.54    4.34
  -9  -9  13    0.19    3.30
  10   9 -13    0.31    4.79
  10   9 -13    7.72    6.07
 -10  -9  13    4.50    3.52
  10   8 -13   -5.73    6.22
 -10  -8  13   -5.83    3.18
 -10  -8  13    5.80    3.34
  10   6 -13   26.82    5.78
  10   6 -13    9.34    6.22
 -10  -6  13   14.13    4.48
 -10  -6  13   21.76    4.48
  10   5 -13   18.33    6.82
  10   5 -13   13.87    6.36
 -10  -5  13   19.58    4.84
 -10  -5  13   20.91    5.15
  10   4 -13    6.20    4.19
  10   4 -13    7.07    4.91
 -10  -4  13    8.99    2.72
 -10  -4  13    6.80    2.83
  10   3 -13   32.01    9.10
  10   3 -13   27.46    8.22
 -10  -3  13   28.17    7.09
  10   2 -13    2.98    4.64
  10   2 -13    1.96    3.32
 -10  -2  13    4.83    2.29
  10   2  13    2.57    3.07
  10   1 -13    1.03    2.75
  10   1 -13   -0.90    4.99
 -10  -1 -13    6.69    6.90
  10   1  13    1.42    3.16
  10   1  13    9.70    4.37
 -10  -1  13    1.65    2.29
  10   0 -13   -0.60    2.58
  10   0 -13    2.80    6.53
  10   0 -13    0.81    5.20
 -10   0 -13    1.44    6.05
  10   0  13   -2.84    4.20
 -10   0  13   -7.86    2.24
  10   0  13   -1.09    3.37
 -10   1 -13    2.46    5.20
  10  -1 -13    5.77    7.82
  10  -1 -13    0.46    2.51
  10  -1  13    1.15    3.80
  10  -1  13   -5.80    4.16
 -10   2 -13    2.93    4.75
  10  -2  13    6.67    4.67
  10  -2  13    9.28    4.16
 -10   3 -13   28.01   10.85
 -10   3 -13   31.93    9.10
  10  -3  13   37.87    8.63
  10  -3  13   16.31    9.28
 -10   4 -13    3.92    7.01
 -10   4 -13    4.32    4.65
  10  -4  13    0.95    3.94
  10  -4  13    4.84    6.06
 -10   5 -13   11.42    8.01
 -10   5 -13   11.37    6.54
  10  -5  13   18.55    5.88
  10  -5  13   20.65    8.20
 -10   6 -13    6.46    5.80
 -10   6 -13    6.50    7.33
  10  -6  13    8.79    4.69
  -6 -10  13    1.02    3.91
  10  -6  13    6.13    7.74
   7  10 -13    4.75    3.85
 -10   7 -13    3.43    5.14
 -10   7 -13    2.16    7.19
  10  -7  13   -6.04    8.01
  10  -7  13   -0.48    3.90
  -7 -10  13   -1.90    3.35
   8  10 -13   -0.55    4.24
  -8 -10  13   -2.86    3.84
   9  10 -13    0.88    4.52
  -9 -10  13    0.23    3.73
  10  10 -13   -4.92    4.98
 -10 -10  13   -3.57    3.96
  11  10 -13    1.72    5.34
  11   9 -13   -5.87    6.57
  11   9 -13    5.97    5.18
 -11  -9  13    0.41    3.52
 -11  -9  13   -2.20    3.53
  11   8 -13    2.92    5.59
  11   8 -13   -1.38    6.27
 -11  -8  13    3.61    3.46
 -11  -8  13    6.09    3.30
  11   7 -13    1.99    5.62
 -11  -7  13    3.79    2.89
  11   5 -13   -4.73    5.24
  11   5 -13   11.71    4.77
 -11  -5  13    2.29    2.72
 -11  -5  13   15.62    3.02
  11   4 -13    1.08    5.09
  11   4 -13    4.97    4.22
 -11  -4  13    3.19    2.77
 -11  -4  13    5.90    2.61
  11   3 -13   -0.63    4.80
  11   3 -13    1.36    3.75
 -11  -3  13   -0.11    2.11
 -11  -3  13    0.95    2.39
  11   2 -13    3.19    5.10
  11   2 -13    0.46    3.65
 -11  -2 -13   -3.09    7.75
  11   2  13   -0.13    3.01
 -11  -2  13    2.72    2.17
 -11  -1 -13    1.63    7.37
  11   1 -13   -0.78    5.40
  11   1 -13    0.70    3.09
  11   1  13   -5.39    3.52
  11   1  13    7.67    4.76
 -11  -1  13    0.36    2.28
  11   0 -13   -1.30    2.95
 -11   0 -13    3.83    6.43
  11   0  13    5.33    4.66
  11   0  13    2.74    3.81
 -11   0  13   -0.65    2.34
  11  -1 -13   -0.99    2.75
  11  -1 -13   11.22    8.30
 -11   1 -13   -1.64    5.91
  11  -1  13    4.87    4.54
  11  -1  13   -0.29    3.97
 -11   2 -13   -2.04    9.32
 -11   2 -13   -2.54    5.39
  11  -2  13   -1.23    4.45
  11  -2  13  -12.35    5.06
 -11   3 -13    2.43    5.12
 -11   3 -13    0.33    8.57
  11  -3  13    3.97    5.38
  11  -3  13    4.09    4.17
 -11   4 -13    6.45    5.47
 -11   4 -13    7.52    8.65
  11  -4  13   18.58    4.76
  11  -4  13    9.56    6.89
 -11   5 -13    3.11    5.35
 -11   5 -13   -5.46    8.28
  11  -5  13   -6.21    7.54
  11  -5  13   -1.61    4.25
 -11   6 -13    2.17    7.70
 -11   6 -13   -4.02    5.66
  11  -6  13   -4.05    4.16
 -11   7 -13   -3.53    5.68
  11  -7  13   -9.79    8.95
  12  10 -13   -3.28    6.08
 -12 -10  13   -7.10    4.44
  12   9 -13    7.36    6.89
  12   9 -13    8.48    6.06
 -12  -9  13    1.08    3.81
 -12  -9  13    0.21    3.58
  12   8 -13   -5.07    6.63
  12   8 -13    0.19    5.68
 -12  -8  13   -0.99    3.70
 -12  -8  13   -2.54    3.38
  12   7 -13    4.01    6.51
  12   7 -13   -1.25    6.33
 -12  -7  13    7.55    3.85
 -12  -7  13    1.02    3.87
  12   6 -13    0.79    5.46
 -12  -6  13    2.10    2.86
  12   4 -13    9.98    5.72
  12   4 -13   15.99    6.40
 -12  -4  13   13.82    3.84
 -12  -4  13    5.96    3.63
  12   3 -13    4.45    4.36
  12   3 -13   -5.04    5.24
 -12  -3  13    0.25    2.41
 -12  -3  13   -0.45    2.26
  12   2 -13    0.85    4.17
  12   2 -13    2.85    5.47
  12   2  13    0.74    3.71
 -12  -2  13    3.80    2.46
  12   1 -13   -0.46    3.47
  12   1 -13    1.03    5.82
 -12  -1  13    2.11    2.55
  12   0 -13    0.15    3.37
  12  -1 -13    4.98    3.33
  12  -1 -13    8.30    9.09
  12  -6  13    0.94    4.87
 -12   7 -13   49.42   10.44
 -12   8 -13   -1.40    8.30
 -12   8 -13   -0.48    6.30
  12  -8  13    7.80    9.65
  12  -9  13  -14.30   10.79
  13  10 -13    4.05    6.96
 -13 -10  13    4.27    4.70
  13   9 -13    0.85    6.77
  13   9 -13   -8.48    6.74
 -13  -9  13   -3.75    4.26
 -13  -9  13    4.24    3.88
  13   8 -13    1.01    7.06
  13   8 -13    3.80    7.29
 -13  -8  13   12.46    4.43
 -13  -8  13   17.15    4.52
  13   7 -13    7.60    6.91
  13   7 -13   -0.19    6.35
 -13  -7  13    0.87    3.52
 -13  -7  13    3.58    3.19
  13   6 -13   -0.18    5.78
  13   6 -13    3.44    5.77
 -13  -6  13    2.69    2.96
 -13  -6  13   -0.78    2.82
  13   5 -13    2.31    5.60
 -13  -5  13    3.08    2.98
  13   3 -13   -3.38    5.54
  13   3 -13   -0.20    4.09
 -13  -3  13    0.71    2.51
  13   2 -13    2.69    5.54
  13   2 -13   -1.30    4.31
 -13  -2 -13    0.72    9.62
  13   2  13   11.55    5.75
 -13  -2  13    0.78    2.63
  13   2  13   -2.58    4.32
 -13  -1 -13    1.62    9.24
  13   1  13    6.94    5.50
  13   1  13    2.48    4.48
 -13  -1  13   -3.38    2.75
 -13   0 -13    3.01    8.30
  13   0  13    0.85    4.72
  13   0  13    2.38    5.64
 -13   1 -13  -15.15    7.91
  13  -1  13   -4.81    5.83
  13  -1  13   -0.18    5.15
 -13   2 -13    2.12   11.57
 -13   2 -13   11.70    7.13
  13  -2  13   -3.21    5.52
  13  -2  13   -0.47    6.30
 -13   3 -13    2.55   11.08
 -13   3 -13  -19.01    7.54
  13  -3  13    2.74    7.14
  13  -3  13  -22.52    6.05
 -13   4 -13    2.10    6.84
 -13   4 -13   -2.13   10.33
  13  -4  13   -3.49    5.48
  13  -4  13   -1.15    7.84
 -13   5 -13    6.63    6.58
 -13   5 -13   -4.46   10.19
  13  -5  13  -10.05    5.39
  13  -5  13    1.23    8.44
 -13   6 -13    1.70    6.62
 -13   6 -13   -2.32    9.78
  13  -6  13  -14.44    5.43
  13  -6  13    8.05    9.02
 -13   7 -13    3.42    9.95
 -13   7 -13   16.42    6.92
  13  -7  13   -0.21    5.34
  13  -7  13    2.30    9.75
 -13   8 -13    6.68    9.48
 -13   8 -13   -0.88    7.24
  13  -8  13   21.68   10.84
 -13   9 -13    8.28    7.39
  13  -9  13   -3.49   11.66
  14  10 -13   -2.12    7.56
 -14 -10  13   -4.48    4.95
  14   9 -13    8.50    7.52
 -14  -9  13   -1.15    4.34
 -14  -9  13    3.66    3.91
 -14  -8  13    3.44    3.62
 -14  -8  13    8.95    4.02
 -14  -7  13    2.29    3.39
 -14  -7  13    2.52    3.37
  14   3  13   22.32    6.42
 -14  -2 -13   18.75   10.31
  14   2  13   -0.18    4.85
  14   2  13    1.73    5.95
 -14  -1 -13    8.88    9.94
  14   1  13    0.18    4.89
  14   1  13   -3.80    5.95
 -14   0 -13    9.09    9.34
  14   0  13    2.10    6.27
  14   0  13    7.79    5.55
 -14   1 -13   -4.03    8.40
 -14   1 -13    6.23   13.48
  14  -1  13    2.25    5.76
  14  -1  13   10.20    6.35
 -14   2 -13   -1.75    7.34
 -14   2 -13   -3.33   12.60
  14  -2  13    0.21    5.60
  14  -2  13   -2.36    6.41
 -14   3 -13   19.82    7.78
 -14   3 -13    5.35   12.47
  14  -3  13    2.48    6.42
  14  -3  13    0.18    7.71
 -14   4 -13    1.47   12.02
 -14   4 -13    2.92    7.53
  14  -4  13    0.44    5.84
  14  -4  13   12.62    8.27
 -14   5 -13    7.74    7.58
 -14   5 -13    5.09   11.79
  14  -5  13    5.64    9.38
  14  -5  13    8.66    6.11
 -14   6 -13   22.50    9.45
 -14   6 -13   11.71   12.79
  14  -6  13   23.96   11.65
  14  -6  13   18.61    8.01
 -14   7 -13    6.60   10.74
 -14   7 -13    6.50    7.46
  14  -7  13    5.23   10.08
  14  -7  13  -14.51    5.70
 -14   8 -13    5.71   10.53
 -14   8 -13   -0.19    7.61
  14  -8  13   -9.39   11.22
 -14   9 -13   -5.36    7.87
  14  -9  13    9.96   11.97
 -15  -3 -13   -2.26   17.05
  15   3  13    6.11   10.05
 -15  -2 -13  -13.26   11.89
  15   2  13   -8.76    5.51
  15   2  13   -7.12    6.63
 -15  -1 -13   -1.96   11.89
  15   1  13   -4.16    6.14
  15   1  13    1.39    6.89
 -15   0 -13   16.17   10.45
  15   0  13    6.00    6.81
  15   0  13    0.22    6.02
 -15   1 -13  -10.57   14.53
 -15   1 -13   -4.79    9.51
  15  -1  13  -19.30    7.52
  15  -1  13  -22.74    6.88
 -15   2 -13    1.60   14.39
 -15   2 -13   13.45    8.92
 -15   3 -13   50.52   17.89
 -15   3 -13    5.47   20.92
  15  -3  13   86.55   16.03
 -15   4 -13    7.12    8.33
 -15   4 -13   -6.12   13.20
  15  -4  13    4.61    6.74
 -15   5 -13    9.43   13.42
 -15   5 -13    1.91    8.04
  15  -5  13   -0.24    9.76
  15  -5  13   -3.53    6.44
 -15   6 -13  -13.89    8.20
 -15   6 -13   -3.03   13.09
  15  -6  13   -6.83    6.95
  15  -6  13   -6.54   10.82
 -15   7 -13    6.22   12.52
 -15   7 -13   -1.68    8.00
  15  -7  13   15.83    6.66
  15  -7  13  -10.49   11.11
 -15   8 -13   -0.43    8.46
 -15   8 -13   -5.12   11.83
  15  -8  13   -1.99   11.52
 -16  -3 -13  -19.25   12.75
  16   3  13  -10.44    6.50
 -16  -2 -13    6.92   12.27
  16   2  13   -3.90    7.14
  16   2  13    0.23    5.96
 -16  -1 -13   19.97   13.14
  16   1  13   14.01    7.17
  16   1  13   16.03    8.09
 -16   0 -13   -9.75   11.40
 -16   0 -13  -13.34   16.97
  16   0  13    0.24    6.91
  16   0  13    1.72    7.25
 -16   1 -13    8.21   16.37
 -16   1 -13   27.09   10.80
  16  -1  13    3.71    7.73
  16  -1  13    0.25    7.17
 -16   2 -13  -13.15    9.51
 -16   2 -13    3.61   15.40
  16  -2  13    0.25    6.70
  16  -2  13   -7.51    7.62
 -16   3 -13   23.23    9.92
 -16   3 -13   18.66   15.83
  16  -3  13   16.81    8.98
  16  -3  13   11.19    7.67
 -16   4 -13    4.94    8.87
 -16   4 -13  -10.29   14.97
  16  -4  13   -7.66    9.40
  16  -4  13   -6.84    7.25
 -16   5 -13   19.46   15.18
 -16   5 -13    4.08    9.04
  16  -5  13    0.28    7.05
  16  -5  13    0.53   10.36
 -16   6 -13    4.14   14.68
 -16   6 -13   -4.64    9.15
  16  -6  13   -3.78    7.01
  16  -6  13   -2.52   11.27
 -16   8 -13   -3.60   13.39
 -16   8 -13    2.59    9.20
  16  -8  13  -14.42   12.72
 -16   9 -13    3.13    9.36
  16  -9  13  -20.16   13.39
 -17  -3 -13    5.96   14.36
  17   3  13    0.25    6.88
 -17  -2 -13   11.74   14.22
  17   2  13   13.64    8.25
  17   2  13    0.51    7.17
 -17  -1 -13   -7.23   14.11
  17   1  13   -4.19    7.05
  17   1  13    8.26    7.89
 -17   0 -13    6.69   12.77
 -17   0 -13   26.09   17.77
  17   0  13    4.81    7.64
  17   0  13   10.25    8.54
 -17   1 -13    2.47   11.23
 -17   1 -13    3.91   17.71
  17  -1  13   -5.05    7.95
  17  -1  13    0.27    7.15
 -17   2 -13   19.36   17.74
 -17   2 -13   11.22   10.89
  17  -2  13   15.87    8.90
 -17   3 -13   -6.57   10.55
 -17   3 -13   -2.08   17.31
  17  -3  13  -14.50    9.47
  17  -3  13   -9.98    8.16
 -17   4 -13   -2.18   21.88
 -17   4 -13   25.18   15.42
  17  -4  13   16.51   16.61
 -17   5 -13  -19.80   18.67
 -17   6 -13   -7.84   16.31
 -17   6 -13  -10.16    9.81
  17  -6  13  -12.24    8.29
  17  -6  13    5.93   12.13
 -17   7 -13   -8.00    9.97
 -17   7 -13    3.21   15.79
  17  -7  13   25.76   13.02
  17  -7  13   -0.33    8.05
 -17   8 -13   -2.45   15.38
 -17   8 -13    3.89   10.31
  17  -8  13   16.25   13.66
 -17   9 -13   -3.19   10.73
  17  -9  13  -26.25   14.70
 -18  -3 -13   -8.98   15.66
  18   3  13    7.72    7.96
 -18  -2 -13    1.73   15.78
  18   2  13   11.99    8.14
  18   2  13    1.68    9.19
 -18  -1 -13   -3.47   20.46
 -18  -1 -13   20.42   15.92
  18   1  13    4.37    8.13
  18   1  13   -8.37    9.01
 -18   0 -13   -6.08   14.31
 -18   0 -13   11.26   19.04
  18   0  13    2.38    9.23
  18   0  13  -10.81    8.04
 -18   1 -13    7.20   19.14
 -18   1 -13  -13.07   13.89
  18  -1  13   10.50    9.34
  18  -1  13    5.54    8.12
 -18   2 -13    6.11   12.35
 -18   2 -13   17.36   19.09
  18  -2  13    1.79    9.54
  18  -2  13   13.51    8.53
 -18   3 -13    3.94   19.29
 -18   3 -13   11.65   11.41
  18  -3  13   -5.22    9.87
  18  -3  13    1.28    8.69
 -18   4 -13    7.08   11.15
 -18   4 -13   10.05   19.86
  18  -4  13   15.15    9.03
  18  -4  13  -10.70   10.96
 -18   5 -13  -19.26   19.26
 -18   5 -13    4.85   11.00
  18  -5  13    9.76    9.21
  18  -5  13    1.48   11.68
 -18   6 -13    3.83   11.06
 -18   6 -13    6.30   19.09
  18  -6  13    5.90   13.10
  18  -6  13  -16.39    9.51
 -18   7 -13    4.59   18.30
 -18   7 -13    1.71   11.46
  18  -7  13  -13.79   14.22
  18  -7  13  -20.60    9.05
 -18   8 -13  -14.00   11.57
  18  -8  13  -28.54   15.50
 -19  -1 -13  -10.21   17.80
  19   1  13  -15.95   10.31
 -19   0 -13  -29.61   17.68
 -19   0 -13    0.78   17.65
  19   0  13   11.81   10.05
 -19   1 -13    8.05   15.27
 -19   1 -13   34.74   19.95
  19  -1  13  -18.12   10.37
 -19   2 -13    1.70   19.94
 -19   2 -13  -26.97   14.11
  19  -2  13   -1.14   10.31
 -19   3 -13   20.93   13.00
  19  -3  13   -4.64   11.07
   0   0 -14   24.10    6.16
   1   0 -14   -0.57    1.56
   0   1 -14   -0.73    3.10
  -1   0 -14   -0.15    1.41
   0   1 -14   -0.30    1.37
   0  -1  14    0.06    1.11
   1   1 -14   18.10    4.87
  -1   1 -14   13.01    6.37
   1   1 -14   11.73    6.20
  -1   1 -14   20.54    5.03
  -1  -1  14   19.19    4.40
   1  -1  14   22.21    4.47
   2   1 -14    2.84    3.31
   2   1 -14    0.56    1.57
  -1   2 -14    1.88    1.67
  -1   2 -14    0.59    2.95
  -2  -1  14    0.34    1.19
   1  -2  14   -2.01    1.29
   1  -2  14    1.73    1.22
   0   2 -14    4.09    3.22
   0   2 -14    9.65    2.08
   2   0 -14    5.78    2.02
  -2   0 -14    2.01    1.96
  -2   0  14    4.79    1.66
   0  -2  14    8.34    1.68
   0  -2  14    3.42    1.56
   1   2 -14    1.22    1.62
   1   2 -14    2.29    3.01
  -2   1 -14    0.55    1.58
  -2   1 -14   -1.14    3.52
  -1  -2  14   -0.06    1.15
   2  -1  14   -2.66    1.72
   2  -1  14   -2.97    1.27
   2   2 -14    0.64    3.21
  -2   2 -14   -0.53    1.79
   2   2 -14   -0.52    1.82
  -2   2 -14   -3.87    3.40
   2  -2  14   -4.74    1.75
   2  -2  14   -4.08    1.41
  -2  -2  14    0.38    1.20
   3   2 -14   -1.17    1.83
  -2   3 -14    0.08    1.83
  -2   3 -14   -0.33    2.47
  -2   3 -14    4.20    2.80
   3   2 -14   -0.34    3.09
   2  -3  14    0.52    1.11
  -3  -2  14    0.34    1.28
   2  -3  14   -0.48    1.30
  -1   3 -14   -0.17    2.69
   3   1 -14   -1.26    1.71
  -1   3 -14   -0.26    2.07
   3   1 -14    1.03    3.41
   1  -3  14   -1.67    1.08
   1  -3  14   -0.66    1.20
  -3  -1  14    0.64    1.25
  -3   0 -14   -2.29    1.69
   0   3 -14   -2.36    2.84
   3   0 -14    0.17    1.70
   0   3 -14    0.09    2.03
   3   0 -14   -4.12    3.82
  -3   0  14   -0.84    1.44
   0  -3  14   -1.62    1.29
   1   3 -14   -2.30    3.03
   1   3 -14    1.21    1.85
  -3   1 -14   -2.73    1.58
  -1  -3  14   -0.86    1.26
  -3   2 -14    1.07    2.84
   2   3 -14    0.58    1.92
   2   3 -14    1.31    3.04
  -3   2 -14   -0.15    1.64
   3  -2  14   -0.18    1.52
   3  -2  14   -0.33    1.04
  -2  -3  14   -0.07    1.24
   3   3 -14   13.08    5.20
  -3   3 -14   19.82    4.42
  -3   3 -14   13.99    5.17
   3   3 -14   14.49    4.30
  -3   3 -14   11.95    5.17
  -3  -3  14   11.16    3.66
   3  -3  14   19.13    3.73
   3  -3  14   15.38    4.43
   3  -3  14   14.68    4.37
  -3   4 -14   11.60    4.78
  -3   4 -14   17.91    4.67
  -3   4 -14   12.76    5.37
   4   3 -14   11.19    5.41
  -3   4 -14   17.81    4.51
  -4  -3  14   13.43    3.88
   3  -4  14   18.06    4.62
   3  -4  14   12.16    4.65
   3  -4  14   15.88    3.85
   3  -4  14   14.16    3.91
   4   2 -14    0.23    3.12
  -2   4 -14    1.01    2.45
  -2   4 -14   -1.16    1.95
   2  -4  14   -1.12    1.35
   2  -4  14    1.27    1.59
  -4  -2  14    0.29    1.29
   2  -4  14    0.44    1.13
   2  -4  14    0.53    1.07
  -1   4 -14   19.80    6.10
  -1   4 -14   22.19    5.40
   4   1 -14   13.85    6.69
   1  -4  14   19.62    4.67
  -4  -1  14   18.26    4.80
   1  -4  14   16.76    4.80
   0   4 -14    1.12    2.50
   4   0 -14   -0.62    3.65
   4   0 -14    0.61    1.64
   0   4 -14   -1.03    2.14
  -4   0 -14    0.89    1.39
   0  -4  14   -0.21    1.25
   0  -4  14    0.06    1.20
  -4   0  14    1.05    1.34
   4   0  14   -0.61    1.66
   1   4 -14   18.58    6.47
   1   4 -14   23.55    5.81
   4  -1  14   22.26    5.69
  -1  -4  14   26.53    5.19
   2   4 -14    0.10    2.68
  -4   2 -14    1.62    1.64
   2   4 -14    1.68    2.23
  -2  -4  14   -0.07    1.46
   3   4 -14   13.91    5.04
  -4   3 -14   17.76    5.00
   3   4 -14   12.26    5.67
  -3  -4  14   19.72    4.39
   4  -3  14   26.34    4.44
  -4   4 -14   19.88    6.08
   4   4 -14   22.91    6.13
  -4   4 -14   13.39    5.12
   4  -4  14   21.25    4.57
  -4  -4  14   17.64    4.56
   4  -4  14   17.35    4.45
  -4   5 -14    5.98    2.99
  -4   5 -14    7.07    3.18
   5   4 -14   12.04    3.97
   5   4 -14    9.58    3.16
   4  -5  14    5.15    2.14
   4  -5  14    7.11    2.05
  -5  -4  14    6.86    2.28
  -3   5 -14   16.18    5.79
   5   3 -14   13.88    6.10
   5   3 -14   13.97    5.15
  -3   5 -14   24.74    5.20
  -5  -3  14   27.21    4.54
   3  -5  14   13.42    4.65
   3  -5  14   20.27    4.47
   5   2 -14   14.09    5.35
   5   2 -14   13.39    4.14
  -2   5 -14   13.92    4.77
  -2   5 -14   15.54    4.26
   2  -5  14   18.18    3.60
   2  -5  14   11.61    3.72
  -5  -2  14   12.41    3.62
  -1   5 -14   37.54   10.90
   5   1 -14   31.78   11.50
  -1   5 -14   40.60    9.58
   5   1 -14   45.36    9.61
  -5  -1  14   37.16    9.07
   1  -5  14   39.59    9.12
   1  -5  14   39.35    8.89
   0   5 -14   -1.33    2.34
   0   5 -14   -0.26    2.51
   5   0 -14    1.64    1.82
   5   0 -14   -3.55    4.02
   0  -5  14    0.07    1.28
   5   0  14    0.71    1.81
  -5   0  14   -1.21    1.47
   0  -5  14   -0.07    1.54
   1   5 -14   38.09    8.79
   1   5 -14   37.52   10.12
  -5   1 -14    1.95   10.81
  -1  -5  14   29.41    8.21
  -1  -5  14   39.33    8.28
   5  -1  14   37.84    9.09
  -5   2 -14   14.95    5.55
   2   5 -14   16.08    4.92
   2   5 -14   15.90    4.53
  -2  -5  14   11.33    3.81
  -2  -5  14   16.81    3.93
   5  -2  14   16.01    4.59
   5  -2  14   14.76    4.48
   3   5 -14   17.20    5.79
   3   5 -14   15.76    5.09
  -5   3 -14   21.94    5.53
   5  -3  14   12.33    5.26
  -3  -5  14   20.33    4.56
  -3  -5  14   16.73    4.55
   5  -3  14   18.38    5.43
   4   5 -14    4.93    3.83
  -5   4 -14   12.53    3.06
  -5   4 -14    6.03    2.82
  -5   4 -14    5.66    3.85
   5  -4  14    6.78    2.90
  -4  -5  14    6.74    2.51
   5  -4  14    6.25    1.98
   5  -4  14    9.16    3.67
  -4  -5  14   10.77    2.61
  -5   5 -14   28.94    8.20
   5   5 -14   27.97    7.47
  -5   5 -14   29.92    8.41
  -5   5 -14   26.02    8.62
   5   5 -14   23.80    8.58
  -5   5 -14   27.92    7.63
   5  -5  14   27.88    7.92
   5  -5  14   27.01    8.87
   5  -5  14   31.68    6.67
  -5  -5  14   33.27    7.00
  -5  -5  14   26.86    7.14
  -5   6 -14   -2.35    3.09
  -5   6 -14    0.32    2.28
   6   5 -14    2.21    3.56
   6   5 -14    3.30    3.28
  -6  -5  14   -1.64    1.94
  -6  -5  14   -1.22    1.80
   6   4 -14   19.04    5.73
  -4   6 -14   18.90    6.18
   6   4 -14   23.74    6.63
  -4   6 -14   28.78    5.92
  -6  -4  14   26.01    4.96
   4  -6  14   13.61    5.18
   4  -6  14   20.87    4.85
  -6  -4  14   14.95    5.28
   6   3 -14   14.69    6.62
   6   3 -14   25.09    5.62
  -3   6 -14   19.11    5.99
  -3   6 -14   17.21    6.35
  -6  -3  14   21.37    4.96
   3  -6  14   17.14    5.25
   3  -6  14   25.28    4.91
  -2   6 -14   15.61    5.06
   6   2 -14   13.88    4.53
   6   2 -14   14.80    5.69
  -2   6 -14   16.87    4.84
  -6  -2  14   17.48    3.98
   2  -6  14   18.12    4.20
   2  -6  14   15.23    3.88
  -1   6 -14    4.15    2.68
   6   1 -14    0.45    4.08
  -1   6 -14    2.99    3.07
   6   1 -14    2.58    2.29
   1  -6  14    6.83    1.80
  -6  -1  14    3.42    1.83
   1  -6  14    3.64    1.88
   6   0 -14   12.98    3.19
   0   6 -14   12.07    3.74
   6   0 -14    4.76    5.13
   0   6 -14    8.44    3.77
   0  -6  14    9.11    2.80
   0  -6  14    9.78    2.96
  -6   0  14    9.40    2.91
   6   0  14   10.22    3.15
   1   6 -14    5.98    3.06
   1   6 -14    4.28    3.10
  -6   1 -14    2.96    4.52
  -1  -6  14    4.78    2.05
   6  -1  14    5.33    2.57
  -1  -6  14    4.53    1.88
   6  -1  14    4.51    3.22
   2   6 -14   15.10    4.93
  -6   2 -14    9.67    5.52
   2   6 -14   15.24    4.79
  -2  -6  14   15.03    3.96
  -2  -6  14   18.29    3.90
   6  -2  14   10.51    4.74
   6  -2  14   12.29    4.74
  -6   3 -14   20.43    6.12
   3   6 -14   22.24    6.34
   3   6 -14   23.92    5.87
   6  -3  14   17.55    6.16
  -3  -6  14   19.20    5.12
   6  -3  14   14.38    6.02
  -3  -6  14   25.91    5.27
  -6   4 -14   26.68    6.45
   4   6 -14   14.34    5.80
   4   6 -14   16.28    6.28
  -6   4 -14   21.22    6.03
  -4  -6  14   18.11    5.10
  -4  -6  14   23.88    5.22
   6  -4  14   26.22    6.42
   6  -4  14   16.98    5.83
  -6   5 -14   -1.76    4.02
   5   6 -14   -0.17    3.30
   5   6 -14   -0.23    3.20
  -6   5 -14    3.29    2.81
   6  -5  14   -1.51    4.18
   6  -5  14    0.98    2.57
  -5  -6  14    0.82    2.08
   6   6 -14    5.10    4.11
   6   6 -14    8.61    4.24
   6  -6  14    0.62    5.45
  -6  -6  14    8.94    3.00
   6  -6  14    8.96    3.36
  -6  -6  14    9.84    2.93
   7   6 -14    1.68    3.96
   7   6 -14    4.92    4.13
  -7  -6  14    1.28    2.32
  -7  -6  14    0.45    2.35
   7   5 -14   20.17    5.78
   7   5 -14   18.07    6.48
  -7  -5  14   14.53    4.99
  -7  -5  14   24.98    4.90
   7   4 -14    1.74    3.02
   7   4 -14    4.54    4.03
  -4   7 -14    2.16    2.54
  -7  -4  14    1.03    2.14
  -7  -4  14    2.84    2.04
   4  -7  14    6.62    1.93
  -3   7 -14   27.81    7.85
   7   3 -14   27.40    7.09
  -3   7 -14   22.29    7.64
   7   3 -14   23.99    8.03
   3  -7  14   23.57    6.30
  -7  -3  14   33.84    6.26
  -2   7 -14   11.12    4.52
  -2   7 -14   13.82    4.01
   7   2 -14   12.06    4.95
   7   2 -14    9.21    3.65
  -7  -2  14    6.92    3.02
   2  -7  14    9.68    2.97
   7   1 -14   32.74    7.97
  -1   7 -14   34.58    9.06
  -1   7 -14   32.24    8.38
   7   1 -14   30.68   10.13
   7   1  14   23.98    7.40
  -7  -1  14   22.37    7.59
   0   7 -14    0.52    2.63
   7   0 -14   -3.59    4.57
   0   7 -14    0.37    3.28
   7   0 -14    0.42    5.10
  -7   0 -14   -3.51    5.30
   7   0 -14   -0.62    2.19
   7   0  14   -0.09    2.35
   0  -7  14    0.10    1.57
  -7   0  14   -1.09    1.81
   1   7 -14   40.69    8.78
   1   7 -14   42.88    9.32
  -7   1 -14   13.26   10.27
   7  -1  14   39.95    8.87
   7  -1  14   34.12    8.77
  -1  -7  14   29.54    7.82
  -7   2 -14   11.39    4.95
   2   7 -14    9.69    4.21
   2   7 -14   12.94    4.65
  -2  -7  14   13.18    3.38
   7  -2  14   17.34    4.40
   7  -2  14   11.40    4.27
   3   7 -14   26.94    7.29
   3   7 -14   23.98    7.09
  -7   3 -14   24.41    7.39
  -7   3 -14   35.79    8.52
   7  -3  14   17.07    7.29
  -3  -7  14   21.36    6.04
   7  -3  14   20.76    7.37
   4   7 -14    4.54    3.76
   4   7 -14    4.60    3.08
  -7   4 -14    2.50    4.51
  -7   4 -14    3.51    3.22
  -4  -7  14    2.11    2.23
   7  -4  14    0.64    4.15
   7  -4  14    2.21    2.89
   5   7 -14   12.69    5.81
  -7   5 -14   16.38    6.61
  -7   5 -14   16.11    5.83
   7  -5  14   13.10    7.01
  -5  -7  14   21.47    4.72
   7  -5  14   16.74    5.31
   6   7 -14    0.12    3.69
   6   7 -14   -1.28    4.40
  -7   6 -14    2.57    3.51
  -7   6 -14   -0.24    4.99
   7  -6  14    2.01    2.96
   7  -6  14    4.50    5.45
  -6  -7  14   -0.46    2.59
  -6  -7  14    0.49    2.44
   7   7 -14   21.05    6.93
   7   7 -14   16.54    6.78
  -7  -7  14   19.96    5.66
  -7  -7  14   24.26    5.63
   8   7 -14   -0.24    4.50
   8   7 -14    9.29    4.65
  -8  -7  14    8.34    3.10
   8   6 -14    5.18    4.54
   8   6 -14    5.46    4.52
  -8  -6  14    5.02    2.75
  -8  -6  14    4.08    2.69
   8   5 -14   -1.25    4.35
   8   5 -14   -4.54    3.72
  -8  -5  14   -1.15    2.21
  -8  -5  14   -0.57    2.14
   8   4 -14   65.95   14.91
   8   4 -14   59.26   16.84
  -4   8 -14   46.21   17.73
  -8  -4  14   59.25   14.79
  -3   8 -14    3.73    3.03
   8   3 -14    6.00    4.26
   8   3 -14    3.84    3.11
  -8  -3  14    2.50    2.09
   8   2 -14   35.90    8.57
   8   2 -14   37.76    9.90
  -2   8 -14   23.80    9.66
   2  -8  14   23.89    7.86
  -8  -2  14   36.50    7.81
  -1   8 -14    0.99    2.74
   8   1 -14   -0.69    2.43
  -1   8 -14    2.38    3.56
   8   1 -14   -0.83    4.74
   8   1  14   -2.69    2.61
  -8  -1  14    0.70    1.93
   1  -8  14    1.32    1.95
   0   8 -14   29.72    6.88
   8   0 -14   20.65    8.50
   0   8 -14   17.70    7.00
  -8   0 -14    6.17    8.47
   8   0 -14   20.75    6.29
   8   0  14   26.35    6.19
   8   0  14   29.02    6.87
   0  -8  14   29.62    5.66
  -8   0  14   16.20    6.04
  -8   1 -14    0.83    4.81
   1   8 -14    1.34    2.81
   1   8 -14    0.96    3.82
   8  -1  14   -0.29    3.52
   8  -1  14    0.41    2.72
  -1  -8  14    0.23    1.93
  -8   2 -14   28.46    9.96
   2   8 -14   38.69    9.40
   2   8 -14   28.00    9.32
   8  -2  14   38.69    9.28
   8  -2  14   37.95    9.59
  -2  -8  14   33.49    8.06
  -8   3 -14    7.93    6.02
   3   8 -14    4.90    4.51
  -8   3 -14    4.75    3.70
   3   8 -14    5.61    3.34
   8  -3  14    4.85    3.47
   8  -3  14    4.02    3.98
  -3  -8  14    5.14    2.28
  -8   4 -14   39.99   17.07
  -8   4 -14   59.35   17.26
   4   8 -14   79.93   16.49
   4   8 -14   63.39   16.08
  -4  -8  14   78.57   14.71
   8  -4  14   50.03   16.86
   8  -4  14   79.28   17.63
  -8   5 -14    1.13    3.60
  -8   5 -14   -0.90    5.28
   5   8 -14   -4.11    3.37
   8  -5  14   -1.54    5.32
   8  -5  14   -0.46    3.21
  -8   6 -14    3.37    5.67
  -8   6 -14    4.61    4.25
   6   8 -14    4.95    3.90
   6   8 -14    6.77    4.98
   8  -6  14    3.78    6.27
   8  -6  14    5.73    3.67
  -6  -8  14   12.50    2.97
   7   8 -14    6.63    4.23
   8  -7  14    4.63    3.65
   9   8 -14    3.59    6.86
   9   8 -14   38.54    6.24
  -9  -8  14   20.27    5.14
   9   6 -14   27.58    6.49
   9   6 -14   10.51    6.68
  -9  -6  14   13.37    5.10
  -9  -6  14   31.89    5.28
   9   5 -14    7.73    5.29
   9   5 -14   15.89    5.78
  -9  -5  14   12.27    3.98
  -9  -5  14   18.19    3.93
   9   4 -14   -1.99    3.59
  -4   9 -14    2.83    3.03
   9   4 -14   -0.88    4.62
  -9  -4  14    0.51    2.22
  -9  -4  14    2.18    2.32
   9   3 -14   41.60   11.31
  -3   9 -14   44.31   12.96
   9   3 -14   35.30   12.43
  -9  -3  14   49.15   10.08
   9   2 -14   -0.27    3.03
  -2   9 -14    1.62    3.04
   9   2 -14   -8.25    4.64
  -9  -2  14   -2.49    2.00
  -9  -1 -14   -0.52    8.18
   9   1 -14   26.07    5.46
  -1   9 -14   15.95    5.87
   9   1 -14   14.79    7.38
  -9  -1  14   25.38    5.05
   9   1  14   21.78    5.29
   0   9 -14   -1.66    2.86
   9   0 -14   -3.60    5.23
  -9   0 -14   -3.12    6.52
   9   0 -14   -0.59    2.58
   9   0  14    3.58    4.28
   0  -9  14   -0.74    2.23
   9   0  14    0.44    3.02
  -9   0  14    1.04    2.03
   1   9 -14   13.58    6.24
   9  -1 -14   11.77    4.99
  -9   1 -14   12.58    7.26
   1   9 -14   22.33    5.43
   9  -1  14   13.87    5.40
   9  -1  14    9.86    6.05
  -1  -9  14   18.41    4.65
   2   9 -14   -0.41    3.05
  -9   2 -14    2.15    4.31
   2   9 -14   -2.02    4.75
   9  -2  14   -5.53    4.03
   9  -2  14   -3.82    3.78
  -2  -9  14   -1.02    2.54
   3   9 -14   46.15   11.26
  -9   3 -14   29.18   12.07
  -9   3 -14   40.53   13.50
   3   9 -14   46.23   11.71
   9  -3  14   44.80   12.00
   9  -3  14   34.17   11.96
  -3  -9  14   44.54    9.91
  -9   4 -14    1.43    4.20
   4   9 -14    2.42    3.25
   4   9 -14   -0.30    5.07
  -9   4 -14    2.74    6.23
  -4  -9  14    4.43    2.66
   9  -4  14    4.11    5.29
   9  -4  14    4.84    3.52
   5   9 -14    8.36    4.62
  -9   5 -14   12.44    5.43
  -9   5 -14   10.30    6.89
   9  -5  14   11.52    4.88
   9  -5  14   16.41    6.92
  -9   6 -14    8.89    6.14
  -9   6 -14    6.36    7.39
   9  -6  14   13.85    7.95
   9  -6  14   10.93    5.19
   7   9 -14    5.15    5.49
   9  -7  14    0.33    7.41
   9  -7  14    2.51    3.60
  -7  -9  14    2.34    3.08
   8   9 -14   -1.34    5.97
   8   9 -14    1.94    4.70
  -8  -9  14    1.05    3.36
   9   9 -14    0.35    6.06
   9   9 -14   -1.04    4.47
  -9  -9  14   -0.18    3.07
  10   9 -14    2.47    5.22
  10   9 -14    8.62    6.70
 -10  -9  14    1.96    3.42
 -10  -9  14    5.54    3.43
  10   8 -14    3.85    5.39
  10   8 -14   -2.52    5.81
 -10  -8  14   -0.92    3.38
 -10  -8  14   -4.39    3.10
  10   7 -14    1.61    5.23
 -10  -7  14    0.89    2.88
  10   5 -14    1.59    5.36
  10   5 -14    7.17    4.80
 -10  -5  14   17.07    3.19
 -10  -5  14    3.32    2.98
  10   4 -14   15.61    6.13
  10   4 -14   10.24    5.43
 -10  -4  14   13.87    4.03
 -10  -4  14   15.40    4.48
  10   3 -14    6.44    3.71
  10   3 -14    4.01    4.91
 -10  -3  14    2.52    2.25
  10   2 -14   11.86    5.84
  10   2 -14    7.98    4.27
 -10  -2  14    8.92    3.41
  10   2  14   12.39    3.97
 -10  -1 -14   -1.38    7.11
  10   1 -14    2.67    5.36
  10   1 -14    0.41    3.04
 -10  -1  14   -2.13    2.36
  10   1  14   -1.67    4.48
  10   1  14   -2.69    3.17
  10   0 -14    1.52    2.76
 -10   0 -14   -6.01    6.86
  10   0  14   -5.54    4.37
 -10   0  14   -1.75    2.21
  10   0  14    0.12    3.27
  10  -1 -14   -0.73    2.57
 -10   1 -14   -2.21    5.83
  10  -1  14    2.18    4.28
  10  -1  14    1.04    3.69
 -10   2 -14   13.83    6.16
   2  10 -14   12.25    4.56
  10  -2  14   16.55    5.48
  10  -2  14   12.03    5.16
 -10   3 -14    7.07    7.83
 -10   3 -14    2.34    4.73
   3  10 -14    3.34    3.28
  10  -3  14    4.93    4.73
  10  -3  14   -3.93    4.26
  -3 -10  14   -0.19    2.66
 -10   4 -14   18.70    8.51
 -10   4 -14   15.91    6.47
  10  -4  14   18.19    5.82
  10  -4  14   19.12    7.09
 -10   5 -14    2.06    5.09
 -10   5 -14    6.51    7.18
  10  -5  14    6.58    4.49
  10  -5  14   12.13    6.89
   6  10 -14   15.74    3.97
 -10   6 -14    0.32    6.93
 -10   6 -14    3.75    4.96
  10  -6  14    0.31    4.28
  10  -6  14    6.31    7.26
  -6 -10  14   -3.16    3.56
 -10   7 -14    1.06    7.04
   7  10 -14    3.33    5.99
   7  10 -14    4.18    4.04
 -10   7 -14    0.89    5.16
  10  -7  14  -17.27    8.30
  10  -7  14   -3.69    4.89
  -7 -10  14    2.46    3.40
   8  10 -14   -3.07    6.05
   8  10 -14    0.71    4.27
  -8 -10  14   -1.07    3.66
   9  10 -14    7.34    5.10
   9  10 -14   -3.59    6.64
  -9 -10  14    5.35    3.80
  10  10 -14   -2.48    5.29
 -10 -10  14    2.56    3.96
  11  10 -14    0.18    5.81
 -11 -10  14   -4.37    4.07
 -11 -10  14   -9.80    4.30
  11   9 -14    6.56    5.93
  11   9 -14   10.61    6.89
 -11  -9  14    1.57    3.78
 -11  -9  14   -0.40    3.70
  11   8 -14    6.58    5.79
  11   8 -14    3.78    6.20
 -11  -8  14    7.09    3.56
 -11  -8  14    2.47    3.36
  11   7 -14    2.05    5.96
  11   7 -14   -6.33    5.70
 -11  -7  14   -0.80    3.04
 -11  -7  14    5.08    3.32
  11   6 -14   -5.27    5.71
 -11  -6  14   -1.34    3.02
  11   4 -14    1.17    5.20
  11   4 -14   16.00    4.63
 -11  -4  14    1.58    2.78
 -11  -4  14    9.38    2.88
  11   3 -14    0.88    4.10
  11   3 -14    6.17    5.16
 -11  -3  14   -0.38    2.84
 -11  -3  14    6.23    2.50
  11   2 -14    0.18    5.13
  11   2 -14    3.08    3.61
 -11  -2  14    4.15    2.41
 -11  -1 -14  -17.97    7.99
  11   1 -14    5.58    5.76
  11   1 -14   -0.15    3.57
  11   1  14    7.26    5.01
 -11  -1  14    3.94    2.49
  11   0 -14   -0.14    3.08
 -11   0 -14   -4.76    7.21
 -11   0  14   -2.98    2.32
  11   0  14    6.17    4.84
  11   0  14    0.14    3.77
 -11   1 -14   -0.20    6.50
  11  -1 -14    0.13    3.05
  11  -1  14   -6.24    4.14
  11  -1  14    3.81    4.69
 -11   2 -14    9.33    5.60
  11  -2  14   -6.13    5.02
  11  -2  14   -0.63    4.58
 -11   3 -14    6.05    8.87
 -11   3 -14    5.42    5.46
  11  -3  14   11.76    5.61
  11  -3  14    3.13    4.79
 -11   4 -14    5.51    5.56
 -11   4 -14    0.33    8.64
  11  -4  14   -0.16    4.57
  11  -4  14   10.75    6.38
 -11   5 -14   -3.04    5.35
 -11   5 -14    1.02    7.73
  11  -5  14    5.60    4.60
 -11   6 -14    2.55    8.14
 -11   6 -14   -0.56    5.44
  11  -6  14   -8.15    8.43
 -11   7 -14    0.71    5.68
  11  -7  14    5.09    8.11
  12  10 -14   11.28    6.91
 -12 -10  14    3.74    4.69
 -12 -10  14    5.31    4.78
  12   9 -14   32.18    7.87
  12   9 -14  -20.12    6.66
 -12  -9  14    0.37    3.97
 -12  -9  14   12.95    4.34
  12   8 -14   -1.81    6.96
  12   8 -14    3.77    6.30
 -12  -8  14    0.83    3.42
 -12  -8  14    2.84    3.33
  12   7 -14    2.33    6.24
  12   7 -14   -4.96    6.27
 -12  -7  14   -0.84    3.13
 -12  -7  14    2.24    3.31
  12   6 -14    6.02    5.65
  12   6 -14    5.45    5.68
 -12  -6  14   -0.14    2.92
 -12  -6  14    0.31    2.81
  12   5 -14   -0.24    4.80
 -12  -5  14    2.34    2.91
  12   3 -14   22.39    6.79
 -12  -3  14    6.77    3.80
  12   2 -14    0.18    4.37
  12   2 -14   -2.72    5.85
 -12  -2  14   -4.76    2.61
  12   2  14    0.15    3.75
  12   1 -14   -0.22    5.96
  12   1 -14    1.30    3.60
 -12  -1  14    2.20    2.70
  12   1  14   -0.30    4.03
  12   0 -14    0.60    3.46
  12  -1 -14    0.56    3.10
  12  -5  14   -0.18    5.01
 -12   6 -14    1.24    8.61
  12  -6  14    0.76    4.95
 -12   7 -14   10.55    6.30
 -12   7 -14   -1.75    8.72
  12  -7  14   -8.96    9.09
  12  -7  14   13.67    5.09
  12  -8  14   -3.08    9.50
  13  11 -14   -8.12    7.50
  13  10 -14    4.10    7.33
 -13 -10  14   -6.24    4.67
  13   9 -14   -3.52    7.33
  13   9 -14    2.85    7.06
 -13  -9  14    3.44    3.96
 -13  -9  14    6.05    4.36
  13   8 -14    0.22    6.78
  13   8 -14    1.96    7.72
 -13  -8  14    4.73    3.58
 -13  -8  14   -0.17    3.76
  13   7 -14   -6.81    6.63
  13   7 -14   -6.79    7.36
 -13  -7  14   -3.24    3.72
 -13  -7  14   -7.38    3.64
  13   6 -14   11.56    6.21
  13   6 -14    3.77    6.08
 -13  -6  14   16.27    3.50
 -13  -6  14    0.66    3.56
  13   5 -14    0.95    6.12
  13   5 -14    2.89    5.41
 -13  -5  14    2.34    3.16
 -13  -5  14    0.13    2.86
  13   4 -14   -0.71    5.07
 -13  -4  14   -1.60    2.71
 -13  -2 -14    4.46    9.53
 -13  -2  14    2.31    2.85
  13   2  14   -1.98    4.42
  13   1 -14   -0.18    3.41
 -13  -1 -14   -5.47    9.51
  13   1 -14    3.65    6.33
  13   1  14   -3.21    4.68
  13   1  14    0.17    5.54
 -13  -1  14    2.06    2.81
 -13   0 -14   -0.91    9.26
  13   0  14   -0.70    4.81
  13   0  14    8.08    5.79
 -13   1 -14   -3.75    7.90
  13  -1  14   -6.47    5.33
  13  -1  14   -3.05    5.63
 -13   2 -14    5.47    7.47
 -13   2 -14    0.44   12.06
  13  -2  14   -3.97    5.97
  13  -2  14   -0.19    5.59
 -13   3 -14   13.45    7.29
 -13   3 -14  -10.57   12.16
  13  -3  14    8.59    7.08
  13  -3  14   11.33    6.10
 -13   4 -14    1.76   10.95
 -13   4 -14    6.36    6.83
  13  -4  14   -4.74    7.19
  13  -4  14    1.40    5.46
 -13   5 -14   17.77    6.96
 -13   5 -14    0.91   11.02
  13  -5  14    9.27    5.46
  13  -5  14   -0.59    8.49
 -13   6 -14  -15.36    6.69
 -13   6 -14    6.11   10.32
  13  -6  14   -0.21    9.01
  13  -6  14   -7.02    5.62
 -13   7 -14    0.49   10.26
 -13   7 -14    2.09    6.88
  13  -7  14    8.11    9.57
  13  -7  14    0.87    5.37
 -13   8 -14    2.29    7.04
 -13   8 -14   -1.02    9.58
  13  -8  14    1.87   10.17
  14  10 -14    9.96    8.38
 -14 -10  14   10.89    5.54
  14   9 -14   -3.68    7.58
  14   9 -14  -19.68    7.89
 -14  -9  14    2.02    4.38
 -14  -9  14   -6.06    4.59
  14   8 -14    9.64    7.53
  14   8 -14   22.23    8.11
 -14  -8  14    5.70    4.02
 -14  -8  14    0.35    3.94
  14   7 -14    0.22    6.83
  14   7 -14    0.72    6.93
 -14  -7  14    4.11    3.53
 -14  -7  14   -2.47    3.60
 -14  -6  14   -3.07    3.47
 -14  -6  14   -5.94    3.58
 -14  -5  14  -12.14    4.62
 -14  -2 -14    4.04   10.40
  14   2  14  -16.27    5.12
 -14  -1 -14    4.41   10.43
  14   1  14   11.48    5.23
  14   1  14    4.45    6.04
 -14   0 -14    6.35    9.95
  14   0  14    1.37    5.37
  14   0  14   -5.32    6.35
 -14   1 -14  -10.00    9.14
  14  -1  14   -8.46    6.13
  14  -1  14    0.21    5.90
 -14   2 -14    2.97   13.42
 -14   2 -14    7.76    8.27
  14  -2  14    1.52    6.43
  14  -2  14    0.21    5.83
 -14   3 -14    5.01    7.38
 -14   3 -14   -2.48   13.15
  14  -3  14   -6.80    6.18
  14  -3  14   -9.77    7.25
 -14   4 -14    0.51   12.60
 -14   4 -14    3.65    7.54
  14  -4  14    5.52    6.06
  14  -4  14    8.78    7.94
 -14   5 -14   -0.52   12.51
 -14   5 -14  -22.63    7.89
  14  -5  14  -14.23    7.12
  14  -5  14  -27.15    9.90
 -14   6 -14   -0.54   11.44
 -14   6 -14   -6.31    7.50
  14  -6  14   -3.44    9.67
  14  -6  14   -6.39    6.26
 -14   7 -14    0.55   11.33
 -14   7 -14   13.17    7.54
  14  -7  14    8.41    6.06
  14  -7  14    4.13   10.12
 -14   8 -14    2.92    7.77
 -14   8 -14   -2.29   10.92
  14  -8  14    9.50   10.96
 -15  -2 -14   -3.53   11.37
  15   2  14   -5.35    5.67
 -15  -1 -14   40.02   17.77
  15   1  14   49.76   12.86
  15   1  14    6.06   11.53
 -15   0 -14   27.75   15.78
  15   0  14   27.80   11.09
  15   0  14   47.24   12.08
 -15   1 -14   16.45   19.66
 -15   1 -14   39.02   16.57
  15  -1  14   28.66   12.86
 -15   2 -14   -5.26    9.31
 -15   2 -14   -6.66   15.00
 -15   3 -14   -2.27   15.00
 -15   3 -14    7.25    8.04
  15  -3  14   -0.47    6.35
  15  -3  14   -1.97    7.56
 -15   4 -14    5.74   13.46
 -15   4 -14  -10.89    8.18
  15  -4  14    8.65    8.50
  15  -4  14    2.74    6.81
 -15   5 -14    2.84    8.37
 -15   5 -14   -0.59   13.72
  15  -5  14    1.03    6.76
  15  -5  14   21.55    9.47
 -15   6 -14    2.47   13.31
 -15   6 -14   14.79    8.07
  15  -6  14   -4.48    6.75
  15  -6  14  -19.45   10.49
 -15   7 -14   -1.68    8.01
 -15   7 -14    0.63   12.71
  15  -7  14    7.66   10.75
  15  -7  14   -1.34    6.52
 -15   8 -14   11.34    8.57
 -15   8 -14   -4.50   12.02
  15  -8  14   -3.59   11.62
 -16  -2 -14   -0.48   13.03
  16   2  14    4.72    7.73
  16   2  14   12.72    6.81
 -16  -1 -14   -2.68   12.93
  16   1  14    2.11    6.43
  16   1  14   -3.13    7.24
 -16   0 -14   20.15   12.82
  16   0  14   12.97    7.35
  16   0  14    3.93    7.75
 -16   1 -14    7.26   11.06
 -16   1 -14    1.21   16.28
  16  -1  14    0.50    6.82
  16  -1  14   -7.27    7.47
 -16   2 -14   17.82   16.61
 -16   2 -14   27.04   10.81
  16  -2  14    5.21    8.35
  16  -2  14   10.84    7.57
 -16   3 -14    2.58   16.35
 -16   3 -14  -14.68    9.56
  16  -3  14   -8.57    7.20
  16  -3  14    1.97    8.49
 -16   4 -14   15.91   15.84
 -16   4 -14   17.90    9.42
  16  -4  14   -3.01    7.39
  16  -4  14    4.13    9.17
 -16   5 -14    6.20   15.71
 -16   5 -14  -10.90    9.30
  16  -5  14    6.27    7.43
  16  -5  14   -2.78   10.12
 -16   6 -14    4.22   15.78
 -16   6 -14   -6.16    9.34
 -16   7 -14  -16.47   15.77
 -16   7 -14    9.37    9.29
 -16   8 -14   -0.73   13.63
 -16   8 -14   -2.81    9.13
  16  -8  14   -7.15   12.06
  16  -9  14    7.72   12.83
 -17  -1 -14  -37.62   15.32
  17   1  14    7.92    8.23
  17   1  14  -15.21    7.73
 -17   0 -14   -9.15   13.80
 -17   0 -14   28.93   18.01
  17   0  14    4.60    8.29
  17   0  14   -8.95    7.33
 -17   1 -14   -2.01   18.14
 -17   1 -14   14.69   12.48
  17  -1  14  -12.34    8.47
  17  -1  14   -5.98    7.72
 -17   2 -14  -40.42   15.01
 -17   2 -14  -22.80   20.03
 -17   3 -14   47.46   62.43
 -17   3 -14  105.06   59.75
  17  -3  14  243.35   52.15
 -17   4 -14  -18.74   19.34
 -17   4 -14  -22.42   12.23
 -17   5 -14   -6.26   17.86
 -17   5 -14   -5.79   10.26
  17  -5  14  -12.04   10.50
  17  -5  14    1.28    8.09
 -17   6 -14    5.34    9.91
 -17   6 -14   -8.82   17.24
  17  -6  14    0.30   12.02
  17  -6  14    2.63    8.49
 -17   7 -14   20.38   16.93
 -17   7 -14   -1.29   10.30
  17  -7  14   34.36    9.05
  17  -7  14   -2.17   12.73
 -17   8 -14   16.23   10.00
 -17   8 -14    1.65   15.70
  17  -8  14   -3.88   13.41
 -17   9 -14   -6.83   10.35
  17  -9  14   23.00   13.40
 -18  -2 -14    4.73   16.16
  18   2  14    2.58    9.14
  18   2  14    1.75    8.11
 -18  -1 -14  -35.12   21.01
 -18  -1 -14   -0.56   16.69
  18   1  14   -8.79    9.21
  18   1  14  -14.56    8.68
 -18   0 -14    2.04   15.57
 -18   0 -14    9.38   20.62
  18   0  14   14.79    9.47
  18   0  14   -0.60    8.40
 -18   1 -14   20.81   19.71
 -18   1 -14    8.22   13.84
  18  -1  14  -18.45    8.36
  18  -1  14   -5.54    9.49
 -18   2 -14  -14.83   20.74
 -18   2 -14   33.57   13.17
  18  -2  14    0.92    8.36
  18  -2  14   -0.26    9.38
 -18   3 -14  -23.59   19.69
 -18   3 -14    5.45   11.86
  18  -3  14   -8.47    8.71
  18  -3  14    4.44    9.74
 -18   4 -14    6.90   20.65
 -18   4 -14   13.97   11.38
  18  -4  14   -7.60   10.42
  18  -4  14   -3.72    8.54
 -18   5 -14   -7.70   11.39
 -18   5 -14   -0.90   20.32
  18  -5  14   -1.05    9.29
  18  -5  14   -7.68   11.60
 -18   6 -14   21.02   11.05
 -18   6 -14   -0.91   19.38
  18  -6  14  -15.21   12.30
  18  -6  14   -3.27    9.20
 -18   7 -14  -18.29   10.79
 -18   7 -14    4.65   18.63
  18  -7  14   10.52   13.50
 -18   8 -14   26.52   13.68
  18  -8  14    8.99   14.90
  19  -1  14   -1.20   10.47
   0   0 -15    0.09    1.52
   0   1 -15   62.83   12.66
   0   1 -15   46.05   14.93
   1   0 -15   43.71   12.87
  -1   1 -15   -0.63    1.53
   1   1 -15   -0.92    1.60
   1   1 -15    1.64    3.30
  -1   1 -15   -0.65    3.24
   1  -1  15    0.13    1.14
  -1  -1  15    1.24    1.30
   2   1 -15    2.50    1.71
  -1   2 -15   -1.65    2.91
   2   1 -15   -2.20    3.62
  -1   2 -15   -0.25    1.81
   1  -2  15   -0.99    1.13
   1  -2  15    0.25    1.17
  -2  -1  15   -0.37    1.23
   0   2 -15   -1.56    2.99
   2   0 -15    0.81    1.69
   0   2 -15   -0.26    1.74
  -2   0  15    0.62    1.38
   0  -2  15    0.58    1.22
   1   2 -15    0.81    3.13
   1   2 -15   -1.42    1.73
  -2   1 -15   -1.00    1.58
  -1  -2  15    0.20    1.24
   2  -1  15    0.20    1.38
   2  -1  15    1.37    1.09
   2   2 -15   -0.24    3.32
   2   2 -15   -0.55    1.87
  -2   2 -15    2.65    3.03
  -2   2 -15   -0.42    1.85
  -2  -2  15    0.28    1.35
   2  -2  15    1.85    1.36
   2  -2  15    0.43    1.15
  -2   3 -15    0.10    2.97
   3   2 -15    0.49    1.93
  -2   3 -15   -0.27    1.96
   3   2 -15    0.49    3.26
   2  -3  15    1.38    1.17
  -3  -2  15    0.66    1.39
  -1   3 -15   29.94    5.25
  -1   3 -15   15.87    5.90
   3   1 -15   20.38    4.95
   3   1 -15   12.42    6.46
   1  -3  15   19.80    4.35
  -3  -1  15   13.00    4.49
   0   3 -15   -0.70    2.87
   0   3 -15   -0.10    2.04
   3   0 -15    1.11    1.79
   0  -3  15    0.25    1.19
  -3   0  15   -0.08    1.42
   1   3 -15   14.37    5.77
  -3   1 -15   17.97    5.36
   1   3 -15   19.32    4.97
  -1  -3  15   18.48    4.23
   2   3 -15   -0.56    3.08
  -3   2 -15    0.57    1.83
   2   3 -15   -1.03    2.17
  -3   2 -15    1.33    3.14
   3  -2  15    0.37    1.18
  -2  -3  15    0.21    1.32
   3  -2  15    2.70    1.60
  -3   3 -15   -1.95    1.97
   3   3 -15    0.12    3.23
  -3   3 -15   -0.28    2.91
  -3   3 -15    0.77    3.22
   3   3 -15    0.11    2.21
  -3  -3  15    0.07    1.39
   3  -3  15   -0.33    1.10
   3  -3  15   -0.51    1.62
   3  -3  15    0.79    2.22
  -3   4 -15    9.55    2.81
   4   3 -15    4.77    3.93
  -3   4 -15    6.19    3.33
  -4  -3  15    7.30    2.23
   3  -4  15    6.07    1.98
   3  -4  15    7.61    2.01
  -2   4 -15   15.48    6.15
   4   2 -15   16.29    6.50
  -2   4 -15   24.89    5.43
   2  -4  15   14.82    4.63
   2  -4  15   22.00    4.76
  -4  -2  15   17.19    4.66
  -1   4 -15    4.50    2.40
  -1   4 -15    2.93    2.88
   4   1 -15    2.47    3.98
   1  -4  15    2.50    1.44
  -4  -1  15    2.40    1.68
   0   4 -15   -1.06    2.79
   4   0 -15    0.49    4.08
  -4   0 -15   -0.45    1.58
   0   4 -15    2.02    2.29
  -4   0  15   -0.26    1.36
   4   0  15    0.86    1.75
   0  -4  15    0.27    1.30
   1   4 -15    5.27    3.11
  -4   1 -15    0.89    1.95
   1   4 -15    5.43    2.33
   4  -1  15    3.16    1.94
  -1  -4  15    5.90    1.70
  -4   2 -15   13.37    7.47
   2   4 -15   20.42    5.71
  -4   2 -15   24.97    6.21
   2   4 -15   18.75    6.47
   4  -2  15   30.12    5.88
  -2  -4  15   20.10    5.00
   4  -2  15   24.63    5.41
   3   4 -15    5.84    3.70
  -4   3 -15   11.39    3.65
   3   4 -15    7.92    3.05
  -4   3 -15    6.09    2.69
  -3  -4  15    5.79    2.18
   4  -3  15    5.65    2.03
   4   4 -15    1.30    3.51
   4   4 -15   -0.13    2.53
  -4   4 -15   -1.86    2.76
  -4   4 -15    0.47    2.11
   4  -4  15   -1.05    1.16
  -4  -4  15   -0.58    1.71
   4  -4  15    0.44    1.02
   5   4 -15   11.86    3.69
  -4   5 -15    6.73    3.72
   5   4 -15    9.73    4.59
  -4   5 -15    9.39    3.53
   4  -5  15    6.43    2.54
  -5  -4  15   10.60    2.80
   4  -5  15   11.18    2.50
   5   3 -15    3.08    3.84
   5   3 -15    2.24    2.61
  -3   5 -15    1.44    2.86
  -3   5 -15    3.64    2.68
  -5  -3  15    4.85    1.96
   3  -5  15    2.20    1.58
   3  -5  15    4.33    1.53
   5   2 -15    5.42    4.09
  -2   5 -15    5.73    3.27
  -2   5 -15    6.51    2.99
   5   2 -15    8.08    2.80
   2  -5  15    5.82    2.16
  -5  -2  15    8.34    2.18
   2  -5  15    6.99    2.03
  -1   5 -15   11.99    4.17
  -1   5 -15    8.67    3.73
   5   1 -15   13.03    3.41
   5   1 -15   10.05    5.16
  -5  -1  15   11.12    3.07
   1  -5  15   14.11    3.05
   1  -5  15   10.22    2.93
  -5   0 -15   -0.22    1.89
   0   5 -15    5.48    2.93
   0   5 -15    2.85    2.80
   5   0 -15    2.92    4.31
   5   0 -15    4.51    2.00
   5   0  15    2.97    1.99
   0  -5  15    5.28    1.63
  -5   0  15    3.75    1.77
   0  -5  15    4.44    1.76
   1   5 -15   12.67    3.68
   1   5 -15    8.81    4.10
  -5   1 -15    9.92    3.70
   5  -1  15   12.47    3.39
  -1  -5  15    8.10    2.96
  -1  -5  15   10.89    2.91
   2   5 -15    7.31    3.42
  -5   2 -15    2.02    4.41
  -5   2 -15    7.45    2.71
   2   5 -15    6.31    3.24
   5  -2  15    6.27    3.32
   5  -2  15    6.36    2.79
  -2  -5  15    5.80    2.18
  -2  -5  15    5.82    2.24
   3   5 -15    4.05    3.06
   3   5 -15    4.02    3.46
  -5   3 -15    4.45    2.28
  -5   3 -15    1.34    3.32
  -3  -5  15    3.20    1.96
  -3  -5  15    1.13    2.06
   5  -3  15    3.73    2.49
   5  -3  15    0.06    2.82
   5  -3  15    9.32    1.57
  -5   4 -15    6.53    4.24
  -5   4 -15    9.20    3.19
   4   5 -15    6.33    4.40
  -5   4 -15    5.90    3.90
   4   5 -15   10.02    3.76
  -5   4 -15   10.80    3.49
  -4  -5  15   11.07    2.91
   5  -4  15   11.86    3.37
   5  -4  15   11.87    3.77
  -4  -5  15    7.42    2.90
  -5   5 -15    0.58    2.56
  -5   5 -15   -2.06    2.67
   5   5 -15   -0.25    3.71
  -5  -5  15    0.28    1.88
   6   5 -15   10.15    4.74
   6   5 -15   18.01    5.51
  -6  -5  15   13.93    4.01
  -6  -5  15   14.68    3.84
  -4   6 -15   20.98    5.72
  -4   6 -15   20.40    6.11
   6   4 -15   16.55    5.65
   6   4 -15   16.10    6.56
   4  -6  15   20.80    4.59
  -6  -4  15   25.56    4.82
   4  -6  15   14.86    4.93
   6   3 -15   10.10    4.92
  -3   6 -15    8.68    3.98
   6   3 -15   11.88    3.69
  -3   6 -15   12.16    4.08
   3  -6  15    9.19    2.70
  -6  -3  15    9.37    2.87
   3  -6  15    8.95    2.92
  -2   6 -15   22.64    6.63
  -2   6 -15   26.25    7.43
   6   2 -15   15.18    6.37
   6   2 -15   27.32    7.89
   2  -6  15   29.26    6.09
   2  -6  15   20.67    5.73
  -6  -2  15   27.80    5.87
  -1   6 -15    8.39    3.37
   6   1 -15    2.78    4.73
   6   1 -15    5.95    2.75
  -1   6 -15   10.30    3.61
  -6  -1  15    5.96    2.38
   1  -6  15    5.49    2.26
   1  -6  15    9.17    2.47
   0   6 -15   -0.78    2.99
   6   0 -15    1.44    4.31
   0   6 -15   -0.37    2.75
   6   0 -15   -0.52    1.98
  -6   0  15   -0.78    1.62
   0  -6  15    0.17    1.52
   6   0  15    1.22    2.15
   0  -6  15    1.28    1.78
   1   6 -15   11.92    3.60
   1   6 -15    6.36    3.59
  -6   1 -15    1.28    4.99
  -1  -6  15    6.57    2.34
  -1  -6  15    9.94    2.58
   6  -1  15    5.74    2.94
   2   6 -15   27.25    6.65
  -6   2 -15   16.47    7.90
   2   6 -15   30.80    7.38
  -2  -6  15   24.43    6.07
   6  -2  15   23.22    6.78
   6  -2  15   22.30    7.00
  -2  -6  15   21.42    5.91
  -6   3 -15   12.47    4.25
   3   6 -15   13.46    4.27
   3   6 -15    7.41    4.41
   6  -3  15   10.51    3.93
  -3  -6  15   10.35    3.24
  -3  -6  15   12.26    3.16
   6  -3  15    9.31    3.92
  -6   4 -15   19.07    6.27
  -6   4 -15   21.09    5.62
   4   6 -15   18.96    6.22
   4   6 -15   13.98    5.51
  -4  -6  15   19.61    4.81
   6  -4  15   16.41    5.55
  -4  -6  15   15.90    4.78
   6  -4  15   15.50    5.80
   5   6 -15   20.54    5.24
   6  -5  15   10.73    4.32
  -5  -6  15    9.17    3.73
   6   6 -15   -2.66    4.22
   6   6 -15   -8.35    5.01
  -6  -6  15   -4.07    2.89
  -6  -6  15   -2.29    2.50
   7   6 -15    8.38    4.76
   7   6 -15   10.18    5.19
  -7  -6  15   11.59    3.34
  -7  -6  15   10.50    3.47
   7   5 -15   -2.42    4.91
   7   5 -15   -1.67    3.87
  -7  -5  15   -5.20    2.56
  -7  -5  15   -0.23    2.32
   7   4 -15   12.87    4.07
  -4   7 -15   11.12    4.05
   7   4 -15    6.34    5.14
  -4   7 -15   13.51    4.47
   4  -7  15    8.79    2.91
  -7  -4  15    9.85    3.04
  -3   7 -15    9.36    4.14
   7   3 -15    4.36    4.64
   7   3 -15    9.35    3.33
  -3   7 -15    7.01    3.54
   3  -7  15    6.52    2.41
  -7  -3  15    8.62    2.54
   7   2 -15   30.00    7.43
   7   2 -15   34.85    9.03
  -2   7 -15   28.74    8.48
  -2   7 -15   25.18    7.98
  -7  -2  15   27.40    6.79
   2  -7  15   22.98    6.60
   7   1 -15    2.38    2.33
  -1   7 -15    3.10    2.68
   7   1 -15    3.79    4.86
  -1   7 -15    3.55    3.51
   7   1  15    1.44    2.38
   1  -7  15    3.86    1.73
  -7  -1  15    0.60    1.85
   0   7 -15   17.79    5.36
   0   7 -15   19.72    5.18
   7   0 -15   15.64    4.56
   7   0 -15   11.57    6.96
   7   0  15   18.77    4.47
   0  -7  15   13.63    3.96
  -7   0  15   11.38    4.18
   1   7 -15    2.30    3.57
  -7   1 -15    1.69    5.08
   1   7 -15    2.97    3.01
  -1  -7  15    4.82    1.96
   7  -1  15    3.13    3.54
   7  -1  15    1.92    2.64
   2   7 -15   33.97    8.28
  -7   2 -15   13.56    8.93
   2   7 -15   38.43    7.76
   7  -2  15   23.09    8.17
  -2  -7  15   30.81    6.84
   7  -2  15   26.48    7.83
  -7   3 -15    3.47    4.03
   3   7 -15   10.27    4.45
   3   7 -15    9.13    3.88
  -3  -7  15    9.80    2.82
   7  -3  15    7.38    3.82
   7  -3  15    9.10    3.88
  -3  -7  15    7.06    2.86
  -7   4 -15   10.05    5.51
   4   7 -15    0.56    5.03
  -7   4 -15    8.63    4.13
   4   7 -15    2.87    5.44
  -4  -7  15   11.33    3.25
  -4  -7  15   15.49    3.25
   7  -4  15    7.90    4.54
   7  -4  15   11.32    3.90
  -7   5 -15   -2.55    4.86
   7  -5  15   -2.12    3.07
  -5  -7  15   -3.10    2.71
   7  -5  15   -6.89    4.77
   6   7 -15    9.24    4.89
   6   7 -15    4.43    4.90
  -6  -7  15    6.03    3.34
  -6  -7  15   13.69    3.33
   7   7 -15    2.93    4.39
   7   7 -15   13.90    4.41
  -7  -7  15   -0.13    2.24
  -7  -7  15    2.02    2.85
   8   6 -15   11.13    4.47
   8   6 -15   -1.52    5.17
  -8  -6  15    1.44    2.82
  -8  -6  15   15.01    2.83
   8   5 -15   22.19    7.12
   8   5 -15   22.55    6.20
  -8  -5  15   17.01    5.10
  -8  -5  15   22.06    5.43
   8   4 -15    5.85    3.60
  -4   8 -15    1.61    3.12
   8   4 -15    3.64    4.68
  -8  -4  15    4.28    2.36
  -8  -4  15    4.65    2.54
   8   3 -15   20.82    9.81
  -3   8 -15   24.60    9.77
   8   3 -15   43.44    8.72
  -8  -3  15   40.04    7.77
   3  -8  15   36.47    7.91
   8   2 -15   10.32    3.46
   8   2 -15    9.64    5.12
  -2   8 -15    3.88    4.44
  -2   8 -15    5.37    3.57
  -8  -2  15    8.75    2.69
   2  -8  15    8.07    2.63
  -1   8 -15   24.63    7.45
  -1   8 -15   22.23    7.47
   8   1 -15   26.02    6.65
   8   1 -15   24.54    8.71
   1  -8  15   20.37    5.86
  -8  -1  15   24.27    6.19
   8   1  15   24.33    6.18
   8   0 -15   -0.47    2.62
   8   0 -15    5.59    4.94
   0   8 -15   -2.11    4.16
  -8   0 -15   -1.85    5.85
   0   8 -15   -3.04    3.19
   0  -8  15   -1.84    2.03
  -8   0  15    0.11    2.00
   8   0  15   -1.12    2.82
  -8   1 -15    8.41    8.64
   1   8 -15   21.48    7.22
   1   8 -15   26.16    7.06
  -1  -8  15   33.32    5.75
   8  -1  15   19.22    6.81
   8  -1  15   17.32    6.89
   2   8 -15    8.82    3.67
   2   8 -15    8.51    4.79
  -8   2 -15    4.07    4.92
   8  -2  15    3.61    3.71
   8  -2  15    3.68    4.03
  -2  -8  15    4.29    2.59
  -8   3 -15   37.27   10.76
   3   8 -15   41.49    8.66
   3   8 -15   35.39    8.60
  -8   3 -15   24.50    8.99
  -3  -8  15   24.09    7.22
   8  -3  15   26.61    9.13
   8  -3  15   18.81    8.65
  -8   4 -15    3.87    5.71
   4   8 -15    4.60    3.69
  -8   4 -15    4.31    3.89
   4   8 -15    8.16    4.84
  -4  -8  15    5.62    2.60
   8  -4  15    6.85    3.56
   8  -4  15    9.20    4.56
   5   8 -15   19.70    5.96
  -8   5 -15   18.30    6.17
  -8   5 -15   16.90    7.13
   8  -5  15   12.95    5.83
   8  -5  15   12.50    7.15
   6   8 -15   -0.13    4.03
  -6  -8  15    0.89    2.71
   8   8 -15    2.24    5.64
   8   8 -15   -0.15    4.45
  -8  -8  15    0.47    3.27
   9   8 -15    9.73    6.00
   9   8 -15   -1.31    5.10
  -9  -8  15    0.30    3.45
  -9  -8  15   -0.99    3.31
   9   7 -15    2.30    5.08
  -9  -7  15    3.95    2.97
   9   5 -15   10.23    5.51
   9   5 -15    9.70    4.21
  -9  -5  15    9.05    2.99
  -9  -5  15    2.40    2.80
   9   4 -15   26.68    8.47
  -4   9 -15   23.27    8.24
   9   4 -15   38.34    7.54
  -9  -4  15   33.86    7.01
  -9  -4  15   25.15    6.54
   9   3 -15    0.77    3.35
   9   3 -15   -0.81    5.14
  -3   9 -15    0.79    3.23
  -9  -3  15   -0.42    2.06
  -2   9 -15   32.17    9.64
   9   2 -15   33.89   10.16
   9   2 -15   32.77    8.63
  -9  -2  15   33.51    7.89
   9   1 -15    0.77    5.25
  -1   9 -15   -0.20    3.35
   9   1 -15   -1.85    2.78
  -9  -1  15    0.70    2.31
   1  -9  15   -1.91    2.34
   9   1  15    4.58    3.07
   0   9 -15    3.23    3.17
   9   0 -15    7.53    2.92
  -9   0 -15   -2.40    6.40
   0   9 -15    2.55    4.47
   0  -9  15    1.97    2.42
  -9   0  15    1.21    2.17
   9   0  15    5.24    3.09
   9   0  15   -3.59    4.32
  -9   1 -15   -0.20    5.83
   1   9 -15    0.11    2.99
   1   9 -15   -1.70    4.69
   9  -1  15   -0.36    3.51
  -1  -9  15   -0.14    2.32
   9  -1  15    4.28    4.05
   2   9 -15   35.81    8.44
  -9   2 -15   24.93    9.59
   2   9 -15   20.55    8.95
  -2  -9  15   26.36    7.15
   9  -2  15   32.46    8.90
   9  -2  15   23.56    8.52
  -9   3 -15    0.27    7.22
   3   9 -15   -1.45    5.10
  -9   3 -15    1.75    4.35
   3   9 -15    3.39    3.37
  -3  -9  15    0.15    2.55
   9  -3  15   -0.13    3.84
   9  -3  15    1.41    4.22
  -9   4 -15   20.84    9.20
  -9   4 -15   25.11    7.82
   4   9 -15   -0.30    7.59
   4   9 -15   37.03    7.21
   9  -4  15   34.84    8.18
   9  -4  15   21.62    7.53
  -9   5 -15   -1.30    6.21
  -9   5 -15    3.05    4.32
   9  -5  15    1.93    3.64
   9  -5  15    1.30    5.79
   6   9 -15    7.60    5.89
  -6  -9  15   -1.60    2.88
   9  -6  15    3.98    3.72
   9  -6  15    1.41    6.25
   7   9 -15    6.12    4.34
   7   9 -15    3.52    5.68
  -7  -9  15    1.17    3.10
   8   9 -15   -0.34    6.10
   8   9 -15    1.35    4.65
  -8  -9  15    0.52    3.43
  -8  -9  15   -1.05    3.22
   9   9 -15    0.82    5.02
   9   9 -15   -1.79    6.43
  -9  -9  15    0.55    3.56
  -9  -9  15    1.11    3.30
  10   9 -15   -4.77    5.82
  10   9 -15    9.38    7.06
 -10  -9  15   -3.38    3.46
 -10  -9  15   -0.57    3.48
  10   8 -15   -3.22    5.83
  10   8 -15    8.67    6.39
 -10  -8  15   -0.31    3.66
 -10  -8  15   -3.63    3.18
  10   7 -15   -5.13    5.45
  10   7 -15    0.18    5.77
 -10  -7  15   -0.86    3.23
 -10  -7  15   -0.47    3.09
  10   6 -15    3.87    4.86
 -10  -6  15   -0.15    2.80
  10   4 -15   14.50    4.40
  10   4 -15   -1.52    5.35
  -4  10 -15    0.84    3.50
 -10  -4  15   12.64    2.90
 -10  -4  15    3.62    2.73
  10   3 -15   27.25    7.52
  10   3 -15   35.22    8.35
  -3  10 -15   17.09    7.85
 -10  -3  15   30.13    6.40
  10   2 -15    5.99    5.25
  -2  10 -15    0.54    3.49
  10   2 -15    3.97    3.72
 -10  -2  15    1.94    2.38
 -10  -1 -15   -0.87    7.08
  10   1 -15    4.90    3.31
  10   1 -15   -1.86    5.64
  -1  10 -15    6.58    3.56
 -10  -1  15    3.73    2.59
  10   1  15    1.27    3.35
   0  10 -15   -0.67    3.37
 -10   0 -15    4.37    7.09
  10   0 -15   -1.34    2.94
 -10   0  15   -0.78    2.24
  10   0  15   -4.24    4.45
  10   0  15   -1.01    3.38
 -10   1 -15   -1.45    6.38
   1  10 -15    3.26    3.53
  10  -1  15    9.15    4.04
  10  -1  15    5.62    4.61
 -10   2 -15    0.17    5.44
   2  10 -15   -2.63    3.37
  10  -2  15    3.00    4.14
  -2 -10  15   11.11    3.23
  10  -2  15   -0.33    4.27
 -10   3 -15   12.21   10.24
 -10   3 -15   20.11    7.59
  10  -3  15   18.21    7.25
  10  -3  15   21.62    7.29
 -10   4 -15   -1.19    7.41
 -10   4 -15   -0.78    4.72
  10  -4  15   -2.25    4.06
  10  -4  15   -9.39    5.36
 -10   5 -15    3.76    5.15
   5  10 -15    4.60    5.87
 -10   5 -15    6.30    7.44
  -5 -10  15   -1.46    3.40
  10  -5  15    4.81    4.40
  10  -5  15    6.36    6.42
   6  10 -15    2.19    5.96
   6  10 -15   -7.99    4.12
 -10   6 -15   -0.97    7.12
 -10   6 -15    2.74    5.02
  10  -6  15    4.32    4.07
  10  -6  15  -15.83    7.34
   7  10 -15   -0.98    4.30
   7  10 -15   -2.64    6.17
  -7 -10  15   -1.58    3.43
   8  10 -15   -5.37    4.38
   8  10 -15   -5.49    6.33
  -8 -10  15    1.65    3.77
   9  10 -15  -10.21    6.80
   9  10 -15    1.12    4.87
  -9 -10  15   -2.15    3.79
  10  10 -15   -3.92    5.54
  10  10 -15    0.43    7.37
 -10 -10  15   -7.89    3.96
 -10 -10  15   -8.39    4.12
  11  10 -15    0.99    6.11
  11  10 -15    4.90    7.77
 -11 -10  15    1.49    4.33
 -11 -10  15    5.89    4.43
  11   9 -15   -5.92    6.82
  11   9 -15   -8.39    6.24
 -11  -9  15    2.14    3.91
 -11  -9  15    5.38    3.80
  11   8 -15    7.49    6.64
  11   8 -15   10.51    6.29
 -11  -8  15   -7.18    3.88
 -11  -8  15   -6.33    3.37
  11   7 -15   -4.06    6.30
  11   7 -15   -3.24    5.95
 -11  -7  15   -0.82    2.99
 -11  -7  15    2.51    3.28
  11   6 -15    8.59    6.15
  11   6 -15   -3.42    5.75
 -11  -6  15    2.84    2.98
 -11  -6  15    5.74    3.20
  11   5 -15   -0.91    5.16
 -11  -5  15    1.01    2.99
  11   3 -15   -1.81    5.39
 -11  -3  15    2.96    2.57
  11   2 -15   -1.34    3.68
  11   2 -15    3.92    5.96
 -11  -2  15   -0.49    2.44
  11   1 -15    1.73    3.52
  11   1 -15   11.13    6.24
 -11  -1 -15    9.87    7.82
 -11  -1  15   -0.27    2.54
  11   0 -15    6.97    4.27
 -11   0 -15  -14.19    8.64
  11   0  15    1.26    5.36
  11  -1 -15    0.42    3.02
 -11   1 -15   -4.54    6.99
  11  -1  15    4.06    4.45
  11  -1  15    1.59    4.95
 -11   2 -15    4.81    6.18
  11  -2  15   -3.69    4.87
  11  -2  15    6.30    4.82
 -11   3 -15    7.17    5.67
 -11   3 -15    1.05    9.41
  11  -3  15    9.35    5.44
  11  -3  15    4.52    4.86
 -11   4 -15   -2.06    5.71
 -11   4 -15   -0.34    8.83
  11  -4  15  -15.57    5.30
 -11   5 -15    4.80    5.69
 -11   5 -15   -2.07    8.23
  11  -5  15   11.09    5.11
 -11   6 -15    6.59    8.13
 -11   6 -15    0.84    5.76
  11  -6  15   20.42    7.77
   8  11 -15   -1.86    4.78
   9  11 -15   -6.12    5.19
  10  11 -15    5.18    5.55
  11  11 -15    8.57    6.35
 -11 -11  15    1.01    5.01
  12  11 -15    4.21    6.90
 -12 -11  15   -0.65    4.82
  12  10 -15    0.47    7.90
  12  10 -15    8.12    6.96
 -12 -10  15    4.84    4.85
 -12 -10  15    6.25    4.85
  12   9 -15   15.67    7.69
  12   9 -15    4.71    6.91
 -12  -9  15    0.86    3.83
 -12  -9  15   -4.99    4.19
  12   8 -15    0.72    6.84
  12   8 -15    5.32    6.94
 -12  -8  15   -3.28    3.71
 -12  -8  15   -5.95    3.86
  12   7 -15  -10.91    6.28
  12   7 -15    1.25    6.02
 -12  -7  15   -2.12    3.25
 -12  -7  15    1.84    3.34
  12   6 -15   -0.83    5.90
  12   6 -15    0.20    6.15
 -12  -6  15   -1.14    3.10
 -12  -6  15   -2.26    3.05
  12   5 -15   -3.79    5.32
  12   5 -15   -0.38    5.72
 -12  -5  15    1.84    2.75
 -12  -5  15   -1.21    3.03
  12   4 -15    0.22    4.75
 -12  -4  15   -0.58    2.95
 -12  -2  15   -0.13    2.89
  12   2  15    0.62    4.06
 -12  -1 -15   43.85    9.40
  12   1 -15   -3.21    7.13
 -12  -1  15    4.15    3.44
  12   0 -15   10.72    3.77
  12   0  15   -9.34    4.62
  12  -1 -15    4.73    3.87
  12  -1  15  -11.85    5.57
  12  -4  15    6.64    5.53
 -12   5 -15    7.96    9.57
  12  -5  15   -6.98    5.00
 -12   6 -15    2.09    9.11
  12  -6  15  -11.06    5.31
  12  -7  15   -5.12    4.83
  12  -7  15    2.41    8.33
  13  11 -15   10.38    8.51
 -13 -11  15   12.80    5.82
  13  10 -15   11.10    7.77
 -13 -10  15   -4.62    4.57
 -13 -10  15    1.49    4.75
  13   9 -15   -7.13    7.90
  13   9 -15    0.23    7.49
 -13  -9  15    0.45    3.73
 -13  -9  15   -0.19    4.29
  13   8 -15    5.12    7.42
  13   8 -15   -4.35    7.36
 -13  -8  15    0.17    3.72
 -13  -8  15   -2.41    3.72
  13   7 -15   -1.70    7.52
 -13  -7  15    4.45    4.01
 -13  -7  15    3.12    3.75
  13   6 -15    1.86    6.74
  13   6 -15   12.10    6.40
 -13  -6  15    0.68    3.26
 -13  -6  15    3.52    3.28
  13   5 -15   -9.38    6.20
  13   5 -15    3.59    5.91
 -13  -5  15   -0.81    3.11
 -13  -5  15   -2.07    3.01
  13   4 -15    1.20    5.05
  13   4 -15   -2.55    5.94
 -13  -4  15    2.15    3.06
 -13  -4  15   -0.80    2.65
  13   3 -15   -2.63    5.51
 -13  -3  15   15.73    3.33
  13   2  15    0.17    4.49
 -13  -1 -15    4.60    9.89
  13   1  15    4.82    5.99
  13   1  15   10.42    5.01
 -13   0 -15   -0.94    9.02
  13   0  15   -4.30    5.02
  13   0  15    5.45    5.69
 -13   1 -15   12.70    8.16
  13  -1  15   -1.90    5.82
  13  -1  15  -12.70    5.28
 -13   2 -15    3.23   12.95
 -13   2 -15    8.76    7.79
  13  -2  15   -7.33    5.95
  13  -2  15   -2.80    5.64
 -13   3 -15    3.61   11.93
 -13   3 -15   -4.59    7.12
  13  -3  15   -0.32    6.57
  13  -3  15    4.35    5.58
 -13   4 -15    5.91   11.03
 -13   4 -15    7.80    6.69
  13  -4  15    3.04    6.89
  13  -4  15    3.48    5.53
 -13   5 -15   -4.85    6.79
 -13   5 -15    1.83   10.75
  13  -5  15    1.31    7.70
  13  -5  15    6.75    5.59
 -13   6 -15    4.29   10.52
 -13   6 -15   10.29    6.78
  13  -6  15    3.54    8.66
  13  -6  15    0.22    5.87
 -13   7 -15    3.92   10.24
 -13   7 -15    0.35    6.96
  13  -7  15    3.94    5.49
  13  -7  15   -7.50    9.79
  14  11 -15    2.18    8.53
 -14 -11  15    0.72    5.41
  14  10 -15  -17.66    8.41
 -14 -10  15   -2.36    5.09
 -14 -10  15    0.22    4.85
  14   9 -15    7.61    8.36
  14   9 -15    7.01    8.83
 -14  -9  15    5.17    4.60
 -14  -9  15    5.44    4.66
  14   8 -15    8.53    8.12
  14   8 -15    0.24    7.74
 -14  -8  15    4.93    4.08
 -14  -8  15    0.36    3.89
  14   7 -15    8.86    7.16
  14   7 -15   -6.33    7.64
 -14  -7  15   -8.72    3.81
 -14  -7  15    1.97    3.64
  14   6 -15   -0.64    6.63
  14   6 -15    5.21    6.81
 -14  -6  15   -1.99    3.61
 -14  -6  15    2.88    3.24
 -14  -5  15  -11.92    4.17
 -14  -4  15   -9.32    3.96
 -14  -4  15  -10.20    3.73
 -14  -2 -15    9.19   10.43
  14   2  15    1.52    5.03
 -14  -1 -15    2.32   10.73
  14   1  15   -1.94    6.22
  14   1  15   -0.19    5.20
 -14   0 -15   -4.48   10.13
  14   0  15   -1.45    6.31
  14   0  15   -4.81    5.49
 -14   1 -15   -4.31    8.95
  14  -1  15   10.18    6.44
  14  -1  15   -5.93    5.76
 -14   2 -15   11.84    8.55
 -14   2 -15    8.25   13.97
  14  -2  15    5.68    6.34
  14  -2  15   -0.68    6.42
 -14   3 -15   -8.05    7.72
 -14   3 -15   12.36   13.54
  14  -3  15   -5.46    6.11
  14  -3  15   -5.72    6.95
 -14   4 -15   -2.06   12.93
 -14   4 -15   -1.24    7.79
  14  -4  15  -19.32    8.72
  14  -4  15    1.13    7.05
 -14   5 -15   -8.54   12.37
 -14   5 -15    4.19    7.31
  14  -5  15    3.28    6.21
 -14   6 -15   13.64   11.97
 -14   6 -15   13.52    7.34
  14  -6  15   -8.83    9.11
  14  -6  15   -5.56    6.18
 -14   7 -15   -4.60    7.49
 -14   7 -15   -0.56   11.56
  14  -7  15  -20.14   10.18
  14  -7  15    3.41    6.10
 -15  -2 -15  -12.73   11.30
  15   2  15    0.21    5.69
 -15  -1 -15    1.27   11.72
  15   1  15    1.92    5.80
  15   1  15   -7.02    6.96
 -15   0 -15   -4.57   11.46
  15   0  15    2.41    6.84
  15   0  15    1.79    6.24
 -15   1 -15    0.57   15.79
 -15   1 -15  -15.05   10.47
  15  -1  15    1.64    6.43
  15  -1  15    0.97    7.11
 -15   2 -15   -1.44    9.15
 -15   2 -15    0.57   15.47
  15  -2  15   -2.36    6.52
  15  -2  15   11.82    7.24
 -15   3 -15    7.06   15.28
 -15   3 -15    8.25    8.59
  15  -3  15    9.11    6.81
  15  -3  15   -3.46    7.62
 -15   4 -15   -4.15   14.94
 -15   4 -15    5.30    8.16
  15  -4  15    0.51    6.98
  15  -4  15   -2.08    8.16
 -15   5 -15    7.27    8.74
 -15   5 -15   12.83   14.86
  15  -5  15   10.54    9.36
  15  -5  15   16.15    7.53
 -15   6 -15   -9.31    7.96
 -15   6 -15   12.48   13.61
  15  -6  15   -3.16   10.09
  15  -6  15   11.55    6.83
 -15   7 -15    0.64    8.25
 -15   7 -15   10.20   12.98
  15  -7  15    3.53    6.89
  15  -7  15    4.85   10.45
 -16  -2 -15    9.96   12.85
  16   2  15    4.21    6.22
 -16  -1 -15    6.55   12.70
  16   1  15   13.56    7.55
  16   1  15  -11.95    6.63
 -16   0 -15   11.41   12.77
  16   0  15  -11.74    7.78
  16   0  15  -16.49    7.26
 -16   1 -15   21.33   11.89
 -16   1 -15   12.52   16.58
  16  -1  15    1.99    7.72
  16  -1  15   -2.06    7.11
 -16   2 -15   -3.85   10.33
 -16   2 -15   -7.65   17.27
  16  -2  15   -7.76    7.02
  16  -2  15   -4.87    7.52
 -16   3 -15   -0.66   17.25
 -16   3 -15   -4.47    9.51
  16  -3  15   -7.45    7.41
  16  -3  15   14.29    7.98
 -16   4 -15    2.86    9.40
 -16   4 -15  -15.44   16.74
  16  -4  15   -1.78    8.85
  16  -4  15  -10.39    7.62
 -16   5 -15    2.09   17.69
 -16   5 -15  -33.21   11.24
 -16   6 -15  -27.06   10.70
 -16   6 -15   38.15   18.06
 -16   7 -15    2.91   14.74
 -16   7 -15  -17.44    9.30
  16  -7  15    5.43    7.63
  16  -7  15  -19.04   11.57
  16  -8  15   23.08   14.07
 -17  -1 -15  100.94   35.53
  17   1  15   39.85   26.84
  17   1  15  179.49   28.93
 -17   0 -15   27.86   30.82
 -17   0 -15  115.65   30.86
  17   0  15   95.29   23.17
 -17   1 -15   54.45   30.12
 -17   1 -15   35.31   31.71
  17  -1  15   24.46   22.58
 -17   2 -15   16.47   19.67
 -17   2 -15  -31.52   14.24
 -17   3 -15   -0.98   11.30
 -17   3 -15  -20.86   19.79
  17  -3  15  -21.82    8.90
 -17   4 -15   -5.42   18.60
 -17   4 -15    4.65   10.09
  17  -4  15   -5.36    8.63
  17  -4  15   -3.19    9.46
 -17   5 -15    2.25   10.64
 -17   5 -15  -17.74   19.02
  17  -5  15   -2.31   10.24
  17  -5  15  -12.43    8.61
 -17   6 -15   -3.78   10.21
 -17   6 -15   -4.11   17.97
  17  -6  15  -37.34   11.97
  17  -6  15   19.86    9.17
 -17   7 -15    5.54    9.77
 -17   7 -15   -0.83   17.29
  17  -7  15   -4.45   12.04
  17  -7  15    1.68    8.33
  17  -8  15   11.20   13.25
 -18  -2 -15  -16.99   16.45
  18   2  15    1.78    8.04
 -18  -1 -15  -14.95   17.18
  18   1  15   22.76    9.19
  18   1  15   25.18   10.13
 -18   0 -15   -6.00   16.46
 -18   0 -15   26.85   20.32
  18   0  15    1.52    8.36
  18   0  15    1.94    9.47
 -18   1 -15   37.54   16.21
 -18   1 -15   35.35   22.13
 -18   2 -15    7.26   13.64
 -18   2 -15    8.88   20.60
  18  -2  15    0.27    9.49
  18  -2  15    4.70    8.74
 -18   3 -15   29.47   21.59
 -18   3 -15  -25.51   12.82
  18  -3  15    1.96    8.69
  18  -3  15   20.80    9.86
 -18   4 -15   17.47   20.63
 -18   4 -15   14.51   11.68
  18  -4  15   -3.46    8.85
  18  -4  15   -6.86   10.28
 -18   5 -15   -7.32   20.92
 -18   5 -15   10.90   11.07
  18  -5  15    6.11    9.41
  18  -5  15   -5.66   11.10
 -18   6 -15   21.56   21.03
 -18   6 -15    9.80   11.66
  18  -6  15   12.14   12.10
  18  -6  15   17.84   10.22
 -18   7 -15    7.60   18.56
 -18   7 -15  -18.13   11.61
  18  -7  15   -3.73   12.75
   0   1 -16   -2.88    3.64
   0   1 -16   -1.15    1.73
   0  -1  16    0.08    1.32
  -1   1 -16   34.28    9.47
  -1   1 -16   20.72   11.43
   1   1 -16   34.51   11.11
   1   1 -16   38.50    9.12
  -1  -1  16   34.56    8.27
   1  -1  16   44.48    8.42
  -1   2 -16    3.06    2.19
   2   1 -16    2.13    3.88
  -1   2 -16    1.74    3.40
   2   1 -16    3.90    2.03
  -2  -1  16    2.05    1.69
   1  -2  16    3.86    1.46
   2   0 -16    3.58    2.29
   0   2 -16    6.24    2.35
   0   2 -16    4.71    3.63
   0  -2  16    5.33    1.78
  -2   1 -16    0.17    1.87
   1   2 -16    1.53    3.70
   1   2 -16    4.93    2.12
  -1  -2  16    1.53    1.46
   2  -1  16    2.56    1.32
   2  -1  16    3.95    1.64
  -2   2 -16    9.10    4.40
   2   2 -16    6.12    4.32
  -2   2 -16   12.37    3.10
   2   2 -16    7.74    2.97
   2  -2  16    8.06    2.41
  -2  -2  16    7.79    2.45
  -2   3 -16   42.25    7.96
   3   2 -16   25.48    8.70
  -2   3 -16   19.69    8.84
   3   2 -16   44.31    7.46
  -3  -2  16   23.89    6.77
   2  -3  16   26.15    6.86
   3   1 -16    1.85    4.13
  -1   3 -16    1.57    2.35
  -1   3 -16    3.70    3.16
   3   1 -16    3.44    2.07
   1  -3  16    1.38    1.36
  -3  -1  16    1.29    1.56
   0   3 -16   -1.00    3.28
   3   0 -16   -0.10    1.91
   0   3 -16   -1.05    2.14
   0  -3  16   -0.55    1.35
  -3   0  16   -0.61    1.42
  -3   1 -16    2.99    1.94
   1   3 -16    4.11    2.36
   1   3 -16    1.63    3.43
  -1  -3  16    2.29    1.53
   2   3 -16   21.14    8.30
   2   3 -16   29.21    7.19
  -3   2 -16   39.66    7.98
  -3   2 -16   18.02    9.39
  -2  -3  16   26.58    6.31
   3  -2  16   25.21    6.88
   3   3 -16    8.45    4.12
   3   3 -16    8.71    2.83
  -3   3 -16    6.01    3.69
  -3   3 -16    6.62    2.81
  -3  -3  16    6.17    2.15
   3  -3  16    5.05    1.96
  -3   4 -16    2.86    2.99
   4   3 -16   -0.24    2.45
  -3   4 -16    0.11    2.38
   4   3 -16   -0.40    3.86
   3  -4  16    0.72    1.29
  -4  -3  16    0.08    1.73
   3  -4  16   -0.72    1.25
  -2   4 -16    1.01    2.37
  -2   4 -16    0.79    3.16
   4   2 -16   -0.42    3.93
   2  -4  16   -0.06    1.33
  -4  -2  16    2.25    1.66
   4   1 -16   12.35    6.18
  -1   4 -16   18.95    5.20
  -1   4 -16   15.88    4.68
   1  -4  16   15.59    3.72
  -4  -1  16   11.43    3.85
   0   4 -16    4.25    3.17
   0   4 -16    0.59    2.60
  -4   0  16    2.49    1.65
   0  -4  16    3.46    1.61
   1   4 -16   18.57    5.52
   1   4 -16   20.24    4.83
  -4   1 -16   11.59    5.11
   4  -1  16   21.26    4.57
  -1  -4  16   16.46    4.07
  -4   2 -16   -1.09    3.49
   2   4 -16    1.39    2.60
  -4   2 -16    0.54    2.15
   2   4 -16    0.71    3.41
   4  -2  16    0.39    1.24
   4  -2  16    1.28    2.00
  -2  -4  16    0.71    1.60
   3   4 -16    0.74    3.38
   3   4 -16    3.01    2.72
  -4   3 -16    0.52    3.26
  -4   3 -16   -1.33    2.32
  -3  -4  16    0.83    1.68
   4  -3  16   -0.73    1.24
   4   4 -16    2.72    4.03
   4   4 -16    2.03    2.92
  -4   4 -16    3.75    2.50
  -4   4 -16    2.98    3.34
  -4  -4  16    5.05    2.03
   4  -4  16    4.94    1.48
   4  -4  16    1.80    1.50
  -4   5 -16    5.03    2.85
  -4   5 -16    2.67    3.06
   5   4 -16    0.81    4.12
  -5  -4  16    3.03    2.04
   4  -5  16    2.63    1.43
   4  -5  16    0.33    1.35
  -3   5 -16    1.34    2.95
   5   3 -16   -0.13    2.57
  -3   5 -16    0.78    2.87
   5   3 -16   -0.28    4.24
   3  -5  16   -0.14    1.27
  -5  -3  16    0.44    1.66
   3  -5  16    0.32    1.39
  -2   5 -16   35.05    8.65
   5   2 -16   40.00    8.57
  -2   5 -16   32.40    9.80
   5   2 -16   33.05    9.92
   2  -5  16   36.99    7.90
  -5  -2  16   31.62    7.85
   2  -5  16   31.56    7.85
  -1   5 -16   -1.29    3.18
   5   1 -16    0.17    4.41
  -1   5 -16   -0.13    2.85
   5   1 -16    1.29    2.24
   1  -5  16   -0.15    1.49
  -5  -1  16    0.28    1.65
   1  -5  16   -0.47    1.42
   0   5 -16    0.42    3.10
  -5   0 -16   -1.65    1.67
   5   0 -16   -0.74    2.08
   0   5 -16    1.07    2.74
   5   0  16   -0.94    2.05
   0  -5  16    0.75    1.45
  -5   0  16   -0.10    1.56
   0  -5  16    0.31    1.70
   1   5 -16    0.97    2.84
   1   5 -16    1.54    3.31
  -5   1 -16   -0.08    1.93
  -1  -5  16    1.23    1.66
  -1  -5  16   -0.24    1.69
   5  -1  16    0.07    2.13
   2   5 -16   30.81    8.15
  -5   2 -16   34.05    9.62
  -5   2 -16    1.31   10.04
   2   5 -16   41.51    9.49
   5  -2  16   28.43    8.89
  -2  -5  16   36.09    7.45
  -2  -5  16   34.26    7.67
  -5   3 -16    0.63    2.23
   3   5 -16    2.67    3.71
  -5   3 -16   -0.22    3.42
   3   5 -16    1.74    3.01
   5  -3  16    0.44    2.36
  -3  -5  16   -1.08    1.85
   5  -3  16    0.54    2.89
  -3  -5  16    0.29    1.82
   4   5 -16    3.31    3.21
   4   5 -16    1.14    3.87
  -4  -5  16    3.29    2.01
  -4  -5  16    3.58    2.05
   5   5 -16   -0.68    4.06
  -5  -5  16   -0.20    2.05
   6   5 -16   15.18    4.93
   6   5 -16   10.27    5.89
  -6  -5  16   12.07    3.64
  -6  -5  16   10.96    3.81
   6   4 -16    6.76    3.25
  -4   6 -16   -1.24    3.15
   6   4 -16    1.70    4.23
  -4   6 -16    0.92    2.84
   4  -6  16    2.51    1.53
   4  -6  16    1.55    1.62
  -6  -4  16    2.32    2.15
   6   3 -16   15.73    5.81
  -3   6 -16   10.38    4.89
  -3   6 -16   11.25    4.71
   6   3 -16   12.89    4.44
   3  -6  16   12.80    3.74
   3  -6  16   14.28    3.54
  -6  -3  16   20.77    3.77
   6   2 -16    6.53    2.88
  -2   6 -16    7.11    3.19
  -2   6 -16    4.64    3.35
   6   2 -16    1.40    4.51
   2  -6  16    3.01    2.08
  -6  -2  16    5.15    2.17
   2  -6  16    3.74    1.86
   6   1 -16    9.82    5.90
   6   1 -16   11.16    3.85
  -1   6 -16    7.65    4.66
  -1   6 -16   15.16    4.44
  -6  -1  16    7.84    3.36
   1  -6  16   18.25    3.43
   1  -6  16   11.97    3.30
   0   6 -16    9.90    3.55
   6   0 -16    2.54    2.35
   0   6 -16    4.65    3.27
   6   0  16    2.39    2.50
   0  -6  16    6.29    2.14
   0  -6  16    3.33    1.95
  -6   0  16    3.53    2.01
   1   6 -16   23.58    4.93
   1   6 -16   15.06    4.61
   6  -1  16   11.41    4.16
  -1  -6  16   11.80    3.54
  -1  -6  16    9.39    3.65
  -6   2 -16    2.75    4.61
   2   6 -16    5.26    3.59
   2   6 -16    5.88    3.75
  -2  -6  16    3.60    2.27
   6  -2  16    3.87    2.97
   6  -2  16    3.53    3.29
  -2  -6  16    6.91    2.20
   3   6 -16    9.22    5.17
   3   6 -16   17.54    4.83
  -6   3 -16   11.99    5.22
   6  -3  16   13.03    4.61
   6  -3  16   13.10    4.48
  -3  -6  16   13.62    3.71
  -3  -6  16   11.13    3.71
   4   6 -16    0.18    3.78
   4   6 -16    2.28    4.13
  -4  -6  16    0.54    2.05
  -4  -6  16    0.84    2.18
   5   6 -16    7.18    5.77
  -5  -6  16    3.50    3.36
   6   6 -16    8.93    4.91
   6   6 -16    5.94    4.25
  -6  -6  16    7.28    2.88
  -6  -6  16    4.72    2.75
   7   6 -16   14.83    4.58
   7   6 -16   -2.73    5.10
  -7  -6  16    2.48    2.90
  -7  -6  16   11.72    2.79
   7   5 -16    5.27    4.08
   7   5 -16    6.43    4.99
  -7  -5  16    3.72    2.62
  -7  -5  16    4.23    2.49
  -4   7 -16   16.17    4.68
   7   4 -16   13.97    4.48
   7   4 -16   12.36    5.75
  -4   7 -16   10.08    4.56
   4  -7  16   11.82    3.27
  -7  -4  16   11.53    3.47
   4  -7  16   11.95    3.50
   7   3 -16    8.20    4.32
  -3   7 -16    9.57    4.68
   7   3 -16   13.85    5.93
  -3   7 -16    8.90    4.58
   3  -7  16    7.51    3.13
  -7  -3  16   18.30    3.69
   3  -7  16   13.95    3.55
   7   2 -16   24.20    5.26
   7   2 -16   13.19    6.85
  -2   7 -16   13.26    6.09
  -2   7 -16   17.64    5.73
  -7  -2  16   24.33    4.68
   2  -7  16   18.10    4.92
   2  -7  16   12.88    4.47
  -1   7 -16    8.61    4.12
  -1   7 -16    9.89    3.92
   7   1 -16    5.32    3.38
   7   1 -16    4.23    5.69
   1  -7  16    9.56    3.01
  -7  -1  16   10.32    2.85
   1  -7  16    9.07    2.67
   0   7 -16    0.77    3.53
   0   7 -16   -0.21    3.15
   7   0 -16   -1.77    2.47
  -7   0  16   -0.55    1.86
   7   0  16   -0.94    2.56
   0  -7  16   -1.00    1.83
   0  -7  16   -0.49    2.02
   1   7 -16   14.51    4.20
  -7   1 -16    1.65    5.89
   1   7 -16    6.37    4.23
  -1  -7  16    9.68    2.98
   7  -1  16    2.38    3.47
  -1  -7  16   11.39    2.82
   2   7 -16   23.88    6.01
  -7   2 -16   10.47    7.05
   2   7 -16   21.17    5.95
   7  -2  16   19.24    5.91
  -2  -7  16   20.27    4.69
   7  -2  16   17.40    5.72
  -2  -7  16   14.19    4.97
  -7   3 -16    6.20    5.30
   3   7 -16   11.21    5.30
   3   7 -16   18.54    5.32
  -3  -7  16   13.26    3.88
   7  -3  16   12.14    4.92
  -3  -7  16   22.89    4.25
   7  -3  16   10.50    4.75
   4   7 -16    9.34    5.40
   4   7 -16   15.42    5.13
   7  -4  16   11.67    4.35
  -4  -7  16   13.10    3.58
  -4  -7  16   10.22    3.65
   7  -4  16    9.30    4.64
   5   7 -16    2.52    4.29
  -5  -7  16    1.79    2.64
   6   7 -16   18.61    4.76
   6   7 -16    0.85    4.73
  -6  -7  16    3.62    2.93
  -6  -7  16   -0.13    2.43
   8   7 -16    0.24    4.95
  -8  -7  16   -1.18    2.73
   8   5 -16   -4.66    5.10
   8   5 -16    6.65    3.91
  -8  -5  16    6.22    2.43
  -8  -5  16   -3.19    2.47
  -4   8 -16    7.88    4.37
   8   4 -16   15.51    4.61
   8   4 -16   10.99    5.70
   4  -8  16    9.42    3.47
  -8  -4  16   12.14    3.37
  -3   8 -16    8.00    4.27
   8   3 -16    5.75    5.23
  -3   8 -16    4.58    3.31
   8   3 -16    3.74    3.34
   3  -8  16    4.48    2.27
  -8  -3  16    5.24    2.37
   8   2 -16   22.17    5.46
   8   2 -16    8.19    6.96
  -2   8 -16   13.31    6.26
  -2   8 -16   16.02    6.01
  -8  -2  16   21.36    4.79
   2  -8  16   19.82    4.64
  -1   8 -16   -0.10    3.33
   8   1 -16    2.86    2.90
   8   1 -16    0.20    5.52
  -1   8 -16    1.18    4.20
   1  -8  16    2.62    1.99
  -8  -1  16    0.80    2.17
   8   1  16    0.54    2.87
   0   8 -16    3.21    3.24
   0   8 -16    4.07    4.39
   8   0 -16    2.89    2.72
  -8   0  16    4.62    2.21
   0  -8  16    0.69    2.18
   8   0  16    1.91    2.91
  -8   1 -16   -1.06    5.87
   1   8 -16    4.49    4.35
   1   8 -16    1.61    3.09
   8  -1  16    2.53    4.16
  -1  -8  16   -0.12    2.05
   8  -1  16    0.43    3.07
   2   8 -16   22.25    5.95
   2   8 -16   17.74    5.97
  -8   2 -16    8.79    7.06
   8  -2  16   14.39    5.74
  -2  -8  16   19.18    4.69
   8  -2  16   17.58    5.99
   3   8 -16    4.59    3.72
  -8   3 -16    3.30    4.20
   3   8 -16    5.03    4.74
  -8   3 -16    4.34    6.82
  -3  -8  16    3.79    2.48
   8  -3  16    6.15    3.82
   8  -3  16    4.01    3.83
  -8   4 -16   12.83    6.58
   4   8 -16   16.66    4.90
  -8   4 -16    9.18    4.85
   4   8 -16   20.00    5.56
   8  -4  16    5.02    4.98
  -4  -8  16   14.43    3.56
   8  -4  16    7.91    4.50
  -4  -8  16    8.30    3.64
   5   8 -16    1.29    4.09
  -5  -8  16   -1.78    2.69
   7   8 -16   -0.15    3.86
   7   8 -16   -1.61    5.05
  -7  -8  16    1.83    2.84
  -7  -8  16   -0.14    2.70
   8   8 -16   -1.45    5.06
   8   8 -16   -0.29    5.78
  -8  -8  16    2.79    3.18
  -8  -8  16   -0.16    3.12
   9   8 -16    7.27    6.09
   9   8 -16    3.86    5.87
  -9  -8  16    4.01    3.51
  -9  -8  16    8.03    3.52
   9   7 -16   -1.77    5.63
   9   7 -16    2.57    5.36
  -9  -7  16    5.92    3.37
  -9  -7  16    5.89    3.25
   9   6 -16    0.69    4.78
  -9  -6  16    3.12    2.87
  -4   9 -16    1.98    3.79
   9   4 -16    6.32    5.57
   9   4 -16   19.94    4.22
  -9  -4  16    1.81    2.85
   9   3 -16   21.16    6.98
  -3   9 -16   27.42    7.73
   9   3 -16   16.74    8.15
  -9  -3  16   30.89    6.00
   9   2 -16   -0.74    3.55
   9   2 -16    5.15    5.36
  -2   9 -16    6.99    3.45
  -9  -2  16    3.06    2.57
   2  -9  16    4.89    2.87
   9   1 -16    3.85    3.12
   9   1 -16   -3.96    5.65
  -1   9 -16    0.22    3.29
  -1   9 -16    0.57    4.70
   1  -9  16    0.42    2.29
  -9  -1  16    0.61    2.40
   9   1  16    6.17    3.10
   0   9 -16   -0.85    4.94
   0   9 -16    2.77    3.45
  -9   0 -16    0.26    6.83
   9   0 -16   -0.93    2.81
   0  -9  16    1.14    2.38
   9   0  16   -1.77    3.22
  -9   0  16   -0.13    2.18
  -9   1 -16    0.67    6.32
   1   9 -16    1.69    3.39
   1   9 -16    6.65    4.92
  -1  -9  16    1.12    2.35
   9  -1  16    2.77    4.13
   9  -1  16    1.73    3.68
  -9   2 -16    3.88    5.26
   2   9 -16    7.23    5.04
   2   9 -16    0.35    3.59
   9  -2  16    4.28    4.07
  -2  -9  16    4.48    2.59
   9  -2  16    5.70    3.93
  -9   3 -16   29.65    8.47
  -9   3 -16   35.89   10.78
   3   9 -16   35.85    7.81
   9  -3  16   28.14    7.88
   9  -3  16   26.14    8.23
  -9   4 -16    2.07    7.17
  -9   4 -16    2.34    4.35
   9  -4  16    0.13    4.00
   9  -4  16    0.21    4.66
   5   9 -16   15.24    5.76
  -5  -9  16    6.48    3.19
   9  -5  16    2.84    5.48
   9  -5  16    6.42    4.24
   6   9 -16   -0.14    4.17
   7   9 -16    0.65    5.95
   7   9 -16    2.07    4.50
  -7  -9  16    0.15    3.21
  -7  -9  16    4.55    3.29
   8   9 -16    1.70    6.43
   8   9 -16    7.59    5.29
  -8  -9  16    8.82    3.87
  -8  -9  16    8.07    3.65
   9   9 -16   -4.26    5.69
   9   9 -16   13.20    6.62
  -9  -9  16    6.24    3.61
  -9  -9  16    0.92    3.54
  10   9 -16    1.14    6.05
  10   9 -16    1.50    7.12
 -10  -9  16    8.75    4.04
 -10  -9  16    0.17    3.73
  10   8 -16    0.19    5.90
  10   8 -16    4.47    6.38
 -10  -8  16    0.64    3.45
  10   7 -16   -6.12    5.93
  10   7 -16   -0.28    5.45
 -10  -7  16   -2.27    3.14
 -10  -7  16    1.31    3.31
  10   6 -16   -4.90    5.67
  10   6 -16  -17.56    6.25
 -10  -6  16   -7.80    3.54
 -10  -6  16   -4.71    3.43
  10   5 -16    0.65    4.59
 -10  -5  16    0.71    2.80
  10   3 -16    5.52    5.82
  -3  10 -16    4.62    3.71
 -10  -3  16    1.65    2.49
  10   2 -16    4.57    6.13
  -2  10 -16   15.36    4.51
  10   2 -16    6.27    4.30
 -10  -2  16    6.25    3.13
  -1  10 -16    5.46    3.64
  10   1 -16   -1.19    3.50
  10   1 -16   -2.41    5.93
 -10  -1  16    0.66    2.32
  10   1  16   -4.17    3.43
 -10   0 -16   -0.55    7.23
   0  10 -16   -0.82    3.59
  10   0 -16    0.14    3.23
  10   0  16    0.96    4.70
  10   0  16   -2.99    3.60
   1  10 -16   -3.09    3.51
 -10   1 -16    1.85    6.77
  10  -1  16   -5.00    4.04
  -1 -10  16   10.13    2.89
  10  -1  16   -4.20    4.49
 -10   2 -16    4.83    6.46
  10  -2  16   11.06    4.94
  10  -2  16    9.74    4.85
 -10   3 -16   -1.84    5.30
 -10   3 -16    8.61    9.04
  10  -3  16    3.10    4.54
  10  -3  16    3.33    4.62
 -10   4 -16   15.94    9.18
 -10   4 -16    9.57    6.68
   4  10 -16    4.83    6.73
  10  -4  16   14.19    6.25
  -4 -10  16   10.27    4.78
  10  -4  16   18.03    6.71
   5  10 -16   -0.35    5.85
 -10   5 -16    4.79    7.46
   5  10 -16    5.45    3.97
 -10   5 -16    3.22    4.98
  10  -5  16    1.79    4.50
  -5 -10  16   -0.37    3.37
  10  -5  16   -8.86    6.17
   6  10 -16    0.42    4.31
   7  10 -16    2.65    6.53
   7  10 -16   -1.48    4.49
  -7 -10  16   -0.19    3.24
   8  10 -16   -0.39    6.83
   8  10 -16    6.26    4.70
  -8 -10  16    1.81    3.73
   9  10 -16    3.29    5.56
   9  10 -16    1.23    7.07
  -9 -10  16    6.75    3.93
  -9 -10  16    1.89    3.61
  10  10 -16    0.19    5.85
  10  10 -16   -9.86    7.78
 -10 -10  16   -2.57    4.15
 -10 -10  16  -11.56    4.25
  11  10 -16   -4.23    6.36
  11  10 -16   -3.59    7.63
 -11 -10  16    0.24    4.12
 -11 -10  16    4.10    4.42
  11   9 -16  -10.13    7.88
  11   9 -16    0.21    6.75
 -11  -9  16    0.21    4.09
 -11  -9  16    1.08    3.99
  11   8 -16   -6.08    6.73
  11   8 -16    9.40    6.72
 -11  -8  16    0.17    3.60
 -11  -8  16   -0.19    3.59
  11   7 -16   -3.55    5.93
  11   7 -16    1.21    6.23
 -11  -7  16    4.26    3.41
 -11  -7  16    4.00    3.39
  11   6 -16   17.84    6.37
  11   6 -16   -2.94    5.76
 -11  -6  16    2.26    3.09
 -11  -6  16    0.64    3.11
  11   5 -16    5.37    6.20
  11   5 -16   -4.07    5.43
 -11  -5  16    1.97    2.99
 -11  -5  16    3.43    2.88
  11   4 -16    2.28    4.79
 -11  -4  16    2.32    3.04
  11   1 -16   -6.91    6.36
 -11  -1  16    2.52    2.61
 -11   0 -16    0.29    7.89
  11   0 -16   -0.15    2.89
  11   0  16   -9.18    5.20
 -11   1 -16   -8.83    7.77
  11  -1  16   -0.15    3.64
  11  -1  16    0.41    4.91
 -11   2 -16   12.34    7.58
  11  -2  16   -7.75    6.02
  11  -2  16   33.64    5.86
 -11   3 -16   -0.37   10.91
 -11   3 -16    7.89    7.65
  11  -3  16   27.24    6.78
  11  -3  16   14.15    6.95
   4  11 -16   -1.77    4.11
 -11   4 -16    0.75    5.73
 -11   4 -16   -5.30    9.51
  11  -4  16   13.18    4.96
 -11   5 -16   11.64    8.41
   5  11 -16    2.24    4.39
 -11   5 -16    0.15    5.58
  11  -5  16   22.19    4.62
  11  -5  16   12.52    6.67
  -5 -11  16   -2.06    3.77
   6  11 -16   -8.89    4.37
   7  11 -16   -4.27    4.65
  -7 -11  16   -1.18    3.90
   8  11 -16   -0.16    4.92
  -8 -11  16   -9.08    4.14
   9  11 -16    0.52    5.28
  -9 -11  16    4.86    4.56
  10  11 -16    0.19    5.76
 -10 -11  16    0.19    4.08
 -10 -11  16    2.52    4.54
  11  11 -16    0.21    6.62
 -11 -11  16   -8.17    4.91
 -11 -11  16   -4.76    4.54
  12  11 -16  -11.86    7.93
 -12 -11  16  -10.59    5.32
  12  10 -16    5.59    7.34
  12  10 -16   -4.79    8.46
 -12 -10  16    2.03    4.51
 -12 -10  16   -0.21    4.30
  12   9 -16    5.12    7.76
  12   9 -16  -19.77    7.42
 -12  -9  16    1.52    4.32
 -12  -9  16   -0.22    3.90
  12   8 -16   13.68    7.65
  12   8 -16   17.43    7.88
 -12  -8  16    1.99    4.06
 -12  -8  16   -2.94    4.18
  12   7 -16   11.18    6.92
  12   7 -16    2.27    6.53
 -12  -7  16    3.81    3.35
 -12  -7  16   -0.16    3.42
  12   6 -16   -2.33    6.63
  12   6 -16   -2.93    6.83
 -12  -6  16   -0.15    3.24
 -12  -6  16    0.52    3.42
  12   5 -16    0.76    5.60
  12   5 -16    0.41    6.27
 -12  -5  16   -3.37    3.14
 -12  -5  16    3.45    2.85
  12   4 -16    5.42    6.28
  12   4 -16   -2.49    5.38
 -12  -4  16    0.15    2.85
 -12  -4  16    0.80    2.80
  12   3 -16   -4.55    4.91
 -12  -3  16   -0.15    3.50
 -12  -3  16   11.28    3.04
  12   2 -16    4.22    4.45
 -12  -1 -16  -16.91    9.30
  12   1  16    0.47    4.21
 -12   0 -16   60.78   16.95
  12   0  16   68.14   14.33
  12  -1  16    0.17    5.21
 -12   2 -16   -6.52   12.17
  12  -2  16    5.21    5.19
 -12   3 -16    2.48   11.32
  12  -3  16    1.84    5.51
 -12   4 -16   -2.84   10.62
  12  -4  16    6.83    5.35
 -12   5 -16   -5.29    9.96
  12  -5  16   12.54    5.56
  13  11 -16    1.83    8.08
 -13 -11  16    3.04    5.03
  13  10 -16    2.01    9.03
  13  10 -16    0.26    7.93
 -13 -10  16    4.08    4.68
 -13 -10  16   -4.77    5.15
  13   9 -16    1.35    8.08
  13   9 -16  -16.18    8.14
 -13  -9  16   -3.29    4.43
 -13  -9  16    3.76    4.25
  13   8 -16    1.94    7.64
  13   8 -16  -13.37    7.70
 -13  -8  16   -4.22    4.02
 -13  -8  16    1.62    3.90
  13   7 -16   -3.44    7.24
  13   7 -16   -1.37    7.07
 -13  -7  16   -4.63    3.67
 -13  -7  16   -2.92    3.84
  13   6 -16   47.90   12.01
 -13  -6  16   10.41    9.99
 -13  -6  16   39.60    9.20
  13   5 -16    0.22    6.53
  13   5 -16    1.40    6.08
 -13  -5  16   -2.75    3.24
 -13  -5  16    2.19    3.37
  13   4 -16   -5.78    5.46
  13   4 -16   -7.64    6.30
 -13  -4  16    3.23    3.42
 -13  -4  16    4.92    3.09
  13   3 -16   -0.90    4.99
  13   3 -16   -6.74    6.48
 -13  -3  16    1.01    2.97
 -13  -3  16   -3.43    3.24
  13   2 -16   -9.35    6.76
  13   2 -16   -8.66    5.12
  13   2  16    0.18    4.46
 -13  -2  16    3.36    3.05
  13   1 -16   29.60    7.38
  13   1 -16    3.12    5.47
 -13  -1 -16    8.58   10.54
 -13  -1  16   19.43    4.31
  13   1  16   12.66    5.71
  13   0 -16    3.61    4.35
 -13   0 -16  -11.48    9.83
  13   0  16   -5.33    5.27
  13   0  16   -8.91    6.06
 -13   1 -16   11.50    8.97
  13  -1  16   -4.09    5.84
  13  -1  16   -8.35    6.32
 -13   2 -16   -0.48   13.40
 -13   2 -16   -1.43    7.63
  13  -2  16    2.18    5.73
  13  -2  16   -5.73    5.95
 -13   3 -16   -0.94   12.62
 -13   3 -16  -15.48    7.72
  13  -3  16  -12.21    6.27
  13  -3  16    7.14    5.66
 -13   4 -16    2.82   11.53
 -13   4 -16   -3.45    6.72
  13  -4  16    3.60    6.61
  13  -4  16   -0.21    5.65
 -13   5 -16   -1.41   11.39
 -13   5 -16   14.18    7.15
  13  -5  16    9.07    5.80
  13  -5  16   -3.05    7.46
  13  -6  16   42.28   13.57
  13  -6  16   65.66   15.73
  14  11 -16    0.87    9.21
 -14 -11  16    0.24    5.23
  14  10 -16   -4.22    8.68
 -14 -10  16    2.34    4.90
 -14 -10  16    0.67    4.89
  14   9 -16  -16.65    9.08
  14   9 -16   -3.87    9.69
 -14  -9  16   11.48    4.72
 -14  -9  16    8.34    4.64
  14   8 -16    6.45    8.02
  14   8 -16   -0.26    8.05
 -14  -8  16    0.56    4.01
 -14  -8  16    1.75    3.85
  14   7 -16    0.24    7.51
  14   7 -16    8.98    7.63
 -14  -7  16    2.82    3.94
 -14  -7  16   -0.17    3.83
  14   6 -16    2.33    7.31
  14   6 -16   -9.70    7.08
 -14  -6  16   -3.01    3.55
 -14  -6  16    6.35    3.25
  14   5 -16    5.64    7.18
  14   5 -16    8.89    6.53
 -14  -5  16    1.97    3.83
 -14  -5  16    3.18    3.38
  14   4 -16   -5.01    6.88
  14   4 -16    0.22    7.04
 -14  -4  16   -6.30    3.87
 -14  -4  16   -6.82    3.75
 -14  -3  16   32.49   10.70
 -14  -3  16   34.98   11.73
  14   2  16    0.78    5.25
 -14  -1 -16   -2.84   10.77
  14   1  16   -9.81    6.74
  14   1  16    0.20    5.47
 -14   0 -16    0.74   10.60
  14   0  16    4.89    6.57
  14   0  16    3.69    5.61
 -14   1 -16  -14.64   10.21
  14  -1  16   -3.26    6.81
  14  -1  16   -0.22    6.14
 -14   2 -16  -29.74   10.14
 -14   2 -16   -4.27   14.81
 -14   3 -16   52.71   16.34
 -14   3 -16   17.13   20.30
  14  -3  16   64.37   14.76
 -14   4 -16  -16.30    8.08
 -14   4 -16   -4.28   13.47
  14  -4  16  -24.16    8.07
  14  -4  16   -4.19    6.66
 -14   5 -16   12.38   13.13
 -14   5 -16   19.09    7.97
  14  -5  16    9.14    6.76
  14  -5  16   11.14    8.48
 -14   6 -16   -1.11   12.15
 -14   6 -16    1.82    7.57
  14  -6  16   -1.05    8.73
  14  -6  16    3.70    6.45
 -15 -11  16  -14.42    6.10
 -15 -10  16    6.36    5.48
  15   2  16    0.22    5.98
 -15  -1 -16   24.04   12.24
  15   1  16   -0.22    5.88
  15   1  16   -0.22    7.13
 -15   0 -16  -20.05   12.10
  15   0  16    7.79    6.22
  15   0  16   -1.24    7.00
 -15   1 -16   -2.47   10.48
 -15   1 -16    5.33   16.70
  15  -1  16    3.01    6.92
  15  -1  16   -0.24    6.64
 -15   2 -16    0.63   10.19
 -15   2 -16   -2.38   16.30
  15  -2  16   -3.35    7.07
  15  -2  16    2.43    6.59
 -15   3 -16   14.99   15.26
 -15   3 -16   -6.17    9.48
  15  -3  16   -2.88    7.33
  15  -3  16   12.30    6.67
 -15   4 -16   11.73    9.07
 -15   4 -16    9.82   15.82
  15  -4  16   14.28    8.71
  15  -4  16   13.35    7.77
 -15   5 -16  -14.61    8.91
 -15   5 -16   -0.63   14.55
  15  -5  16  -23.86    8.98
  15  -5  16    4.07    7.26
 -15   6 -16   13.38   14.28
 -15   6 -16    4.02    8.33
  15  -6  16   -8.23    7.26
  15  -6  16   -9.52    9.50
  16   2  16    1.92    6.51
 -16  -1 -16   21.55   13.32
  16   1  16  -12.21    7.82
  16   1  16  -10.51    6.84
 -16   0 -16    2.26   12.73
  16   0  16  -15.59    7.25
  16   0  16    7.55    7.66
 -16   1 -16  -18.19   17.33
 -16   1 -16    8.78   12.95
  16  -1  16   -4.22    7.96
  16  -1  16   18.46    7.43
 -16   2 -16    1.99   17.50
 -16   2 -16   -7.03   11.80
  16  -2  16    5.26    7.90
  16  -2  16   11.93    7.45
 -16   3 -16   -8.41   10.42
 -16   3 -16   17.74   17.26
  16  -3  16   10.65    8.33
  16  -3  16   -6.55    7.55
 -16   4 -16   -7.64   18.62
 -16   5 -16   61.62   22.47
 -16   6 -16    4.05    9.47
 -16   6 -16   -9.48   15.87
  16  -6  16   -4.16    9.60
  16  -6  16    0.31    7.80
  16  -7  16   -4.61    7.59
  17   2  16   -8.25    7.14
 -17  -1 -16    7.57   15.27
  17   1  16   -0.82    7.42
  17   1  16   -9.50    8.64
 -17   0 -16   13.57   15.17
 -17   0 -16   -4.93   20.01
  17   0  16  -19.49    9.08
  17   0  16   -3.96    7.89
 -17   1 -16   -2.87   18.98
 -17   1 -16    8.83   14.36
  17  -1  16   -0.28    7.90
  17  -1  16   -7.93    8.93
 -17   2 -16   -8.91   19.56
 -17   2 -16    8.64   13.31
  17  -2  16    5.58    8.94
  17  -2  16  -25.22    8.23
 -17   3 -16    4.96   12.66
 -17   3 -16    6.18   20.10
  17  -3  16    9.55    8.35
  17  -3  16   19.79    9.46
 -17   4 -16   14.40   19.16
 -17   4 -16   -8.98   10.91
  17  -4  16    1.26    8.31
  17  -4  16   -1.20    9.16
 -17   5 -16    6.36   10.19
 -17   5 -16    7.47   19.62
  17  -5  16  -10.55    8.81
  17  -5  16   -3.22    9.57
 -17   6 -16   -1.69   18.42
 -17   6 -16    5.32   10.27
  17  -6  16  -20.67   11.04
  17  -6  16  -14.53    8.99
  17  -7  16  -23.69   11.64
  17  -7  16    3.76    8.59
  18   2  16    3.34    8.40
 -18  -1 -16   15.00   16.69
  18   1  16   -7.04    8.39
  18   1  16    9.06    9.74
 -18   0 -16   -9.25   21.33
 -18   0 -16   44.71   16.57
  18   0  16  -21.47    8.78
  18   0  16   -0.28    9.35
 -18   1 -16    1.04   16.21
 -18   1 -16   -9.55   21.63
  18  -1  16   -1.93    9.38
  18  -1  16    6.53    8.49
 -18   2 -16   -4.18   21.42
 -18   2 -16   -2.20   13.52
  18  -2  16   11.68    8.83
  18  -2  16  -13.17    9.93
 -18   3 -16    9.11   13.16
 -18   3 -16  -14.61   21.36
  18  -3  16   24.76   10.38
  18  -3  16   -4.34    9.46
 -18   4 -16  -10.84   21.83
 -18   4 -16   -5.06   12.09
  18  -4  16   -4.24    9.44
  18  -4  16   15.06   10.14
 -18   5 -16    4.72   21.93
 -18   5 -16    4.19   11.22
  18  -5  16   11.99   10.73
  18  -5  16   -2.57    9.95
 -18   6 -16   16.36   20.67
 -18   6 -16   -5.61   11.04
  18  -6  16   -1.14   11.19
 -18   7 -16   -1.23   11.22
 -18   7 -16    0.97   15.87
  18  -7  16    9.29   12.47
   0   1 -17   66.98   21.89
   0   1 -17   78.69   18.68
   0  -1  17   73.18   16.83
   1   1 -17   -0.69    1.99
   1   1 -17    0.16    4.06
  -1   1 -17    0.09    1.86
   1  -1  17    0.16    1.32
  -1  -1  17   -0.34    1.44
   2   1 -17    1.33    2.04
  -1   2 -17   -0.14    3.80
  -1   2 -17    0.40    2.11
   2   1 -17   -0.16    4.07
   1  -2  17    0.61    1.41
  -2  -1  17    0.71    1.57
   0   2 -17   -0.10    2.19
   0   2 -17    1.39    3.75
   0  -2  17    0.23    1.46
   1   2 -17   -0.70    3.82
  -2   1 -17    2.30    1.99
   1   2 -17    0.42    2.20
  -1  -2  17   -0.16    1.50
  -2   2 -17   -0.14    3.84
  -2   2 -17   -0.30    2.07
   2   2 -17    0.43    2.15
   2   2 -17   -0.14    4.06
  -2  -2  17   -0.08    1.62
   2  -2  17   -0.45    1.41
   3   2 -17   28.60    6.01
  -2   3 -17   14.49    7.31
   3   2 -17   13.09    7.44
  -2   3 -17   30.10    6.58
  -3  -2  17   22.65    5.38
   2  -3  17   22.56    5.47
   3   1 -17    4.59    4.79
  -1   3 -17   10.78    3.23
   3   1 -17   11.51    2.99
  -1   3 -17    6.99    4.24
  -3  -1  17    6.42    2.48
   1  -3  17    9.20    2.36
   0   3 -17    6.77    2.76
   0   3 -17    7.70    3.81
   0  -3  17    3.77    1.87
   1   3 -17   12.18    3.11
  -3   1 -17    4.26    2.77
   1   3 -17    7.02    4.15
  -1  -3  17    5.18    2.30
  -3   2 -17   11.90    8.09
   2   3 -17   22.26    7.23
  -3   2 -17   34.02    6.80
   2   3 -17   24.44    6.20
   3  -2  17   21.90    5.75
  -2  -3  17   22.02    5.34
  -3   3 -17   -1.94    2.56
   3   3 -17    0.14    3.85
   3   3 -17   -0.12    2.60
  -3   3 -17   -0.24    3.53
  -3  -3  17   -0.59    1.59
   3  -3  17   -0.27    1.35
   4   3 -17   11.07    5.33
  -3   4 -17   13.03    4.00
   4   3 -17   10.92    3.88
  -3   4 -17   12.92    4.64
  -4  -3  17   12.53    3.18
   3  -4  17   10.92    3.10
   3  -4  17   13.70    3.03
   4   2 -17   40.55   11.62
  -2   4 -17   37.42   11.56
   4   2 -17   46.12    9.89
  -2   4 -17   43.91   10.57
   2  -4  17   34.63    9.07
  -4  -2  17   30.75    9.05
   4   1 -17   -0.11    2.86
   4   1 -17    6.16    5.11
  -1   4 -17   12.00    3.42
  -1   4 -17   11.15    4.07
   1  -4  17    6.67    2.23
  -4  -1  17    6.74    2.40
   0   4 -17    0.65    2.54
   0   4 -17    2.68    3.50
  -4   0  17   -0.10    1.65
   0  -4  17   -1.06    1.52
   1   4 -17    3.91    4.16
   1   4 -17    8.23    3.44
  -4   1 -17    8.29    3.22
   4  -1  17    9.57    2.91
  -1  -4  17   12.54    2.51
   2   4 -17   39.46   10.65
  -4   2 -17   56.94   12.14
   2   4 -17   41.56   11.77
   4  -2  17   41.93   10.44
  -2  -4  17   41.64    9.48
  -4   3 -17   12.38    3.83
   3   4 -17   12.23    4.93
  -4   3 -17    3.93    4.85
   3   4 -17    8.28    3.91
   4  -3  17    5.84    2.96
  -3  -4  17   14.12    2.97
  -4   4 -17   -1.35    2.72
   4   4 -17    0.56    2.86
   4   4 -17   -4.64    4.36
  -4   4 -17   -1.24    3.46
  -4  -4  17    2.86    1.92
   4  -4  17   -0.72    1.28
   4  -4  17    0.13    1.36
  -4   5 -17    5.66    3.01
   5   4 -17    0.74    4.47
  -4   5 -17    3.13    3.25
   4  -5  17    1.09    1.42
   4  -5  17    3.08    1.51
  -5  -4  17    0.10    2.09
  -3   5 -17   20.51    7.63
  -3   5 -17   28.48    6.74
   5   3 -17   31.67    7.95
   3  -5  17   18.42    5.78
  -5  -3  17   26.59    5.78
   3  -5  17   21.58    5.71
   5   2 -17    3.55    4.69
  -2   5 -17    6.34    3.06
  -2   5 -17    2.81    3.53
  -5  -2  17    5.89    2.08
   2  -5  17    2.53    1.79
   2  -5  17    2.88    1.75
   5   1 -17   17.03    5.24
   5   1 -17    9.89    7.04
  -1   5 -17   30.08    5.71
  -1   5 -17   26.24    6.21
   1  -5  17   20.78    4.76
   1  -5  17   21.31    4.70
  -5  -1  17   17.74    4.82
   0   5 -17   -2.15    3.62
   0   5 -17    1.26    2.92
   5   0 -17   -0.79    2.15
   0  -5  17   -0.90    1.62
  -5   0  17   -0.10    1.75
   0  -5  17   -0.97    1.78
   5   0  17   -0.08    2.13
   1   5 -17   19.43    5.96
  -5   1 -17   11.56    5.76
   1   5 -17   22.69    5.24
  -1  -5  17   15.06    4.32
   5  -1  17   19.61    4.99
  -1  -5  17   13.68    4.50
   2   5 -17    4.75    4.09
   2   5 -17    4.51    3.45
  -5   2 -17    4.48    2.58
   5  -2  17    6.16    2.62
  -2  -5  17    2.41    2.02
  -2  -5  17    2.49    2.08
   3   5 -17   19.24    7.87
   3   5 -17   26.22    6.89
  -3  -5  17   18.18    6.23
  -3  -5  17   33.49    5.93
   4   5 -17    0.41    4.53
   4   5 -17    3.85    3.47
  -4  -5  17    1.43    2.20
  -4  -5  17    0.39    2.11
   5   5 -17    1.77    5.46
   6   5 -17   -2.42    3.85
   6   5 -17    0.15    4.83
  -6  -5  17    0.54    2.38
  -6  -5  17    2.90    2.48
   6   4 -17    6.71    4.00
   6   4 -17    2.61    5.84
  -4   6 -17   13.56    3.70
  -4   6 -17    9.15    3.75
   4  -6  17    9.06    2.17
   4  -6  17    7.55    2.32
  -6  -4  17    4.49    3.42
   6   3 -17   -0.70    3.17
  -3   6 -17    0.29    3.42
   6   3 -17   -3.82    5.36
  -3   6 -17    1.71    3.22
   3  -6  17    0.07    1.69
   3  -6  17    1.89    1.67
  -6  -3  17   -3.78    2.32
  -2   6 -17   27.64    7.61
   6   2 -17   17.01    6.48
   6   2 -17   14.04    8.19
  -2   6 -17   31.65    6.90
   2  -6  17   22.04    5.97
  -6  -2  17   26.80    5.90
   2  -6  17   26.37    5.81
   6   1 -17   -0.85    2.51
  -1   6 -17    0.16    3.51
   6   1 -17   -0.38    5.19
  -1   6 -17   -0.11    3.41
   1  -6  17   -0.94    1.85
  -6  -1  17   -0.11    1.88
   1  -6  17   -1.90    1.74
   6   0 -17   -0.59    2.29
   0   6 -17    0.22    3.31
   0   6 -17   -0.17    3.40
   0  -6  17    0.09    1.85
  -6   0  17    0.99    1.78
   0  -6  17   -0.85    1.82
   6   0  17   -0.35    2.42
   1   6 -17   -0.51    3.53
   1   6 -17    0.94    3.60
   6  -1  17    0.70    2.63
  -1  -6  17   -1.20    1.87
  -1  -6  17   -0.09    2.04
   2   6 -17   26.38    6.81
  -6   2 -17   -1.83    8.60
   2   6 -17   32.42    7.61
  -2  -6  17   27.92    5.88
   6  -2  17   20.86    7.10
  -2  -6  17   22.73    5.88
   3   6 -17  -16.96    6.12
  -3  -6  17   -9.12    3.29
   4   6 -17  -11.49    6.08
   4   6 -17   -5.97    5.91
  -4  -6  17    1.15    3.28
  -4  -6  17   -5.74    3.72
   5   6 -17    0.14    4.73
  -5  -6  17   -0.12    2.32
  -5  -6  17    0.45    2.38
   6   6 -17   12.48    4.36
   6   6 -17   -6.67    5.07
  -6  -6  17    0.70    2.81
  -6  -6  17    8.53    2.76
   7   5 -17   11.73    4.01
   7   5 -17   -0.99    5.31
  -7  -5  17    0.91    2.66
  -7  -5  17   10.32    2.75
   7   4 -17    0.82    3.42
   7   4 -17    2.97    5.07
  -4   7 -17   -1.78    3.61
  -4   7 -17   -0.19    3.12
  -7  -4  17    2.04    2.46
  -3   7 -17   30.90    8.84
   7   3 -17   19.46    9.09
  -3   7 -17   22.12    7.74
   7   3 -17   25.75    7.58
   3  -7  17   30.78    6.38
  -7  -3  17   21.11    6.55
   3  -7  17   25.84    7.06
   7   2 -17    3.38    5.02
  -2   7 -17    0.73    3.41
  -2   7 -17    2.14    3.69
   7   2 -17    3.32    2.95
  -7  -2  17    3.08    2.14
   2  -7  17    1.74    1.80
   2  -7  17    3.04    2.12
   7   1 -17   10.17    3.65
   7   1 -17    6.42    6.05
  -1   7 -17    9.15    4.48
  -1   7 -17    9.40    4.53
   1  -7  17   10.58    2.87
  -7  -1  17   11.71    3.11
   1  -7  17    5.45    3.10
   0   7 -17   -0.59    3.98
   0   7 -17   -0.11    3.71
   7   0 -17   -0.88    2.73
   0  -7  17    5.28    2.13
   0  -7  17    0.20    2.38
  -7   0  17    3.49    2.18
   7   0  17    3.13    2.85
   1   7 -17    9.36    4.77
   1   7 -17    8.66    4.63
  -1  -7  17   10.36    3.13
  -1  -7  17   11.36    3.34
   7  -1  17    7.72    3.92
  -7   2 -17   -1.12    5.28
   2   7 -17   -4.31    4.11
   2   7 -17   -4.28    4.25
   7  -2  17   -0.10    3.17
  -2  -7  17   -1.21    2.43
  -2  -7  17    0.46    2.28
   7  -2  17    2.82    3.67
   3   7 -17   45.58    9.44
   3   7 -17   37.57    8.80
  -3  -7  17   35.36    7.84
  -3  -7  17   22.71    7.83
   7  -3  17   32.80    8.59
   7  -3  17   32.92    9.42
   4   7 -17    0.85    4.39
   4   7 -17    0.41    4.30
  -4  -7  17    2.65    2.52
  -4  -7  17    1.43    2.67
   5   7 -17   -0.22    3.89
   5   7 -17   -0.14    4.63
  -5  -7  17   -0.13    2.12
  -5  -7  17   -0.73    2.68
   7   7 -17    4.52    4.87
  -7  -7  17   -1.61    2.80
   8   7 -17    1.05    5.51
   8   7 -17    4.61    5.22
  -8  -7  17    0.92    2.90
  -8  -7  17    2.92    2.90
   8   6 -17   -2.21    4.55
  -8  -6  17    0.85    2.94
   8   4 -17   12.35    3.82
  -4   8 -17    2.45    3.45
   8   4 -17    3.62    5.51
  -4   8 -17    2.42    4.08
  -8  -4  17   -0.91    2.38
  -3   8 -17    6.06    4.50
  -3   8 -17    5.26    3.68
   8   3 -17    0.36    5.44
   8   3 -17    6.64    3.72
   3  -8  17    4.97    2.54
  -8  -3  17    6.12    2.58
   3  -8  17    3.83    2.29
   8   2 -17    7.29    3.93
  -2   8 -17    8.72    5.06
  -2   8 -17    5.62    4.34
   8   2 -17   10.10    5.89
  -8  -2  17   12.85    3.18
   2  -8  17   10.37    3.22
   2  -8  17    7.57    2.84
  -1   8 -17   -0.66    3.35
  -1   8 -17    0.96    4.27
   8   1 -17   -1.26    5.68
   8   1 -17   -2.21    3.09
   1  -8  17   -1.26    2.03
   1  -8  17    2.25    2.36
  -8  -1  17    0.36    2.17
   0   8 -17    0.34    3.59
   8   0 -17   -0.13    2.89
   0   8 -17    2.86    4.48
   8   0  17   -1.43    2.97
   0  -8  17   -0.24    2.19
  -8   0  17    0.75    2.07
   0  -8  17    0.11    2.33
  -8   1 -17   -1.84    6.00
   1   8 -17    0.12    3.54
   1   8 -17    1.88    4.69
   8  -1  17   -0.55    3.26
  -1  -8  17    0.35    2.50
  -1  -8  17    0.24    2.11
  -8   2 -17    4.49    6.38
   2   8 -17    4.83    5.19
   2   8 -17   19.34    4.66
   8  -2  17   11.76    4.48
   8  -2  17    9.17    4.50
  -2  -8  17    7.20    3.23
  -2  -8  17   11.42    3.50
  -8   3 -17    2.19    4.78
   3   8 -17    4.34    4.80
   3   8 -17    1.04    4.20
  -3  -8  17    2.65    2.53
   8  -3  17    4.33    3.88
  -3  -8  17    4.31    2.85
   8  -3  17    7.03    3.91
   4   8 -17    0.13    4.18
  -4  -8  17    3.57    2.85
   6   8 -17   -0.15    3.56
  -6  -8  17   -0.14    2.61
   7   8 -17   -3.05    5.42
   7   8 -17   -0.16    5.03
  -7  -8  17    5.60    3.07
  -7  -8  17   -0.14    3.23
   8   8 -17   -2.25    5.80
   8   8 -17    4.35    5.91
  -8  -8  17    5.07    3.37
  -8  -8  17    5.38    3.29
   9   8 -17    4.86    5.97
   9   8 -17    1.31    6.25
  -9  -8  17    4.05    3.58
  -9  -8  17    9.88    3.76
   9   7 -17    3.03    6.24
   9   7 -17   -1.07    5.48
  -9  -7  17   -0.72    3.20
  -9  -7  17    1.45    3.21
   9   6 -17   -8.24    6.34
   9   6 -17   -1.21    5.30
  -9  -6  17    0.30    3.00
  -9  -6  17   -4.14    2.95
   9   5 -17   -0.41    4.66
  -9  -5  17   -2.55    2.86
   9   3 -17   -0.75    5.70
  -3   9 -17    6.84    3.70
  -9  -3  17    4.97    2.55
   3  -9  17    1.06    2.54
  -2   9 -17    2.27    4.64
   9   2 -17    6.04    5.66
   9   2 -17    8.33    3.48
  -2   9 -17    3.21    3.70
  -9  -2  17    4.63    2.67
   2  -9  17    2.49    2.54
  -1   9 -17   -3.13    5.07
   9   1 -17    6.62    5.93
  -1   9 -17   -0.80    3.54
   9   1 -17    1.17    3.23
   1  -9  17    1.69    2.43
   9   1  17    2.09    3.17
  -9  -1  17   -0.39    2.35
   0   9 -17    1.70    5.04
   9   0 -17    3.68    3.24
   0   9 -17    1.17    3.69
   9   0  17    4.15    3.41
   0  -9  17    2.21    2.45
   1   9 -17    0.36    3.64
   1   9 -17    3.19    5.08
  -9   1 -17   -1.20    6.39
   9  -1  17   -3.07    4.30
   9  -1  17    1.15    3.78
  -1  -9  17    0.97    2.48
   2   9 -17    0.61    3.86
  -9   2 -17    6.08    6.20
  -2  -9  17   -0.14    2.18
   9  -2  17    0.33    4.07
   9  -2  17    2.14    4.09
  -9   3 -17   10.75    8.26
  -9   3 -17    5.30    5.04
   9  -3  17    5.02    4.17
   9  -3  17    2.50    4.31
   4   9 -17   24.39    6.39
  -4  -9  17    7.99    4.36
   9  -4  17   15.59    5.47
   5   9 -17   -5.91    4.35
   5   9 -17   -3.02    5.39
  -5  -9  17    0.70    2.97
  -5  -9  17   -5.79    3.15
   6   9 -17    0.15    4.86
  -6  -9  17    0.58    3.16
   7   9 -17    4.54    6.23
   7   9 -17   -5.60    5.02
  -7  -9  17   -0.15    3.27
  -7  -9  17    0.34    3.25
   8   9 -17    4.73    6.07
   8   9 -17    5.41    5.74
  -8  -9  17    2.03    3.72
  -8  -9  17    0.16    3.46
   9   9 -17    5.13    5.93
   9   9 -17   -2.48    6.48
  -9  -9  17   -0.96    3.49
  -9  -9  17    0.51    3.53
  10   9 -17    9.93    6.57
  10   9 -17   -5.38    7.29
 -10  -9  17    1.62    3.69
 -10  -9  17    3.16    3.99
  10   8 -17    1.28    6.28
  10   8 -17    0.82    6.23
 -10  -8  17   -3.28    3.64
 -10  -8  17    2.77    3.50
  10   7 -17   -1.13    5.67
  10   7 -17    5.78    6.30
 -10  -7  17    7.90    3.57
 -10  -7  17   -2.71    3.09
  10   6 -17   -6.09    6.38
  10   6 -17    1.79    5.17
 -10  -6  17    6.73    3.35
 -10  -6  17    3.94    3.06
  10   5 -17   -0.68    4.89
  10   5 -17  -18.18    6.58
 -10  -5  17   -5.67    3.36
 -10  -5  17   -2.26    3.03
  10   4 -17   -4.64    4.49
 -10  -4  17    0.15    2.99
  -3  10 -17   11.29    5.14
  -2  10 -17    3.49    4.20
  -1  10 -17   -0.12    3.80
  10   1 -17   -1.39    6.38
  10   1  17    1.21    3.50
 -10  -1  17   -0.28    2.57
 -10   0 -17  -11.52    7.66
   0  10 -17    0.37    3.79
  10   0  17    0.40    3.73
   0 -10  17    5.35    2.67
 -10   1 -17    4.54    7.29
  10  -1  17    1.94    4.50
  10  -1  17    2.15    4.13
 -10   2 -17    4.99    6.61
  10  -2  17    8.22    5.10
  10  -2  17   12.86    4.98
 -10   3 -17    6.99    9.72
   3  10 -17   13.79    6.49
 -10   3 -17    7.08    6.38
  -3 -10  17    0.84    3.67
  10  -3  17    9.34    5.28
  10  -3  17   16.41    5.71
   4  10 -17    3.53    6.26
   4  10 -17    0.14    4.21
  -4 -10  17   -0.88    2.94
  10  -4  17   -5.66    4.67
   5  10 -17    6.53    6.49
   5  10 -17    1.55    4.30
  -5 -10  17   -1.64    3.23
   6  10 -17   -3.38    4.35
   7  10 -17    3.41    6.66
   7  10 -17   -4.00    4.86
  -7 -10  17    0.20    3.52
  -7 -10  17    1.13    3.38
   8  10 -17    7.09    7.07
   8  10 -17    6.27    5.01
  -8 -10  17    0.21    3.81
  -8 -10  17    0.51    3.61
   9  10 -17    7.43    5.94
   9  10 -17    6.99    7.29
  -9 -10  17    6.94    4.01
  -9 -10  17    0.36    3.99
  10  10 -17  -10.05    6.34
  10  10 -17    3.52    7.85
 -10 -10  17   -3.21    4.12
 -10 -10  17   -5.90    4.19
  11  10 -17    6.98    7.16
  11  10 -17   10.15    8.29
 -11 -10  17   -1.90    4.32
 -11 -10  17    1.20    4.30
  11   9 -17   -1.62    7.56
  11   9 -17   -4.65    6.73
 -11  -9  17    1.90    3.89
 -11  -9  17   -0.19    4.10
  11   8 -17   11.59    7.09
  11   8 -17    1.04    7.24
 -11  -8  17   -2.13    3.67
 -11  -8  17   -1.53    3.87
  11   7 -17    4.71    6.83
  11   7 -17    8.93    6.63
 -11  -7  17    6.30    3.48
 -11  -7  17    2.69    3.73
  11   6 -17   -4.61    5.71
  11   6 -17    6.94    6.48
 -11  -6  17    0.34    3.24
 -11  -6  17    3.09    3.33
  11   5 -17    1.03    6.19
  11   5 -17   -2.40    5.43
 -11  -5  17   -1.39    3.08
 -11  -5  17   -3.68    3.22
  11   4 -17    6.13    6.45
  11   4 -17   -1.96    4.98
 -11  -4  17    1.07    3.09
 -11  -4  17    0.13    2.76
  11   3 -17   -2.99    5.29
 -11  -3  17   13.67    3.59
  11   2 -17    4.06    4.29
  -2  11 -17   -7.01    4.42
   1  11 -17   33.97   10.34
 -11   1 -17   19.70   13.18
  11  -1  17   42.77   10.55
   2  11 -17   -0.55    4.06
 -11   2 -17    1.83    7.33
  11  -2  17  -12.03    5.89
   3  11 -17    0.14    4.46
 -11   3 -17    4.89    6.86
 -11   3 -17   15.99   10.72
  -3 -11  17    3.94    3.89
  11  -3  17    7.19    5.71
 -11   4 -17   21.88    9.28
 -11   4 -17    4.06    5.86
   4  11 -17   -1.70    4.23
  -4 -11  17    0.22    3.63
  11  -4  17   -4.70    5.57
   5  11 -17   -0.15    4.39
  -5 -11  17    0.22    3.52
   6  11 -17    5.47    4.77
   7  11 -17    6.04    7.32
   7  11 -17   -4.81    4.94
  -7 -11  17   -0.24    4.06
   8  11 -17    0.17    5.00
   8  11 -17    2.68    7.44
  -8 -11  17    1.51    4.34
   9  11 -17    8.03    5.71
   9  11 -17   -0.46    7.61
  -9 -11  17   -8.49    4.03
  -9 -11  17   -1.84    4.24
  10  11 -17  -10.28    6.41
 -10 -11  17  -11.00    4.60
 -10 -11  17    0.20    4.31
  11  11 -17   -5.47    7.14
 -11 -11  17    6.62    4.92
 -11 -11  17    1.06    4.77
  12  11 -17  -19.87    8.76
 -12 -11  17   17.82    5.80
 -12 -11  17   24.94    6.28
  12  10 -17   -3.22    7.54
  12  10 -17    0.48    8.66
 -12 -10  17    9.18    4.68
 -12 -10  17    4.17    4.72
  12   9 -17    0.24    7.56
  12   9 -17   -7.71    8.33
 -12  -9  17   -2.52    4.32
 -12  -9  17   -4.32    4.05
  12   8 -17    4.43    7.21
  12   8 -17    0.23    7.42
 -12  -8  17    0.36    3.64
 -12  -8  17    3.34    3.91
  12   7 -17   32.85    9.26
  12   7 -17   22.51    8.40
 -12  -7  17   14.83    5.55
 -12  -7  17   11.13    5.91
  12   6 -17  -12.57    7.28
  12   6 -17   -9.47    6.61
 -12  -6  17    2.93    3.37
 -12  -6  17    0.18    3.44
  12   5 -17    5.72    6.61
  12   5 -17    7.45    6.20
 -12  -5  17   -4.96    3.15
 -12  -5  17   -3.71    3.13
  12   4 -17   -4.40    5.28
  12   4 -17    6.73    6.70
 -12  -4  17   -1.13    3.18
 -12  -4  17   -1.56    2.91
  12   3 -17    3.48    5.37
  12   3 -17   19.00    6.93
 -12  -3  17    2.84    3.35
  12   2 -17    0.71    6.88
  12   2 -17   -1.01    4.72
 -12  -2  17    2.27    3.02
  12   1 -17    9.62    5.85
  12   1 -17   10.12    7.90
  12   1  17   10.03    5.70
 -12  -1  17   11.86    4.82
  12   0 -17    0.87    3.88
 -12   0 -17   -6.99    9.32
  12   0  17    3.70    4.64
  12   0  17  -11.24    5.73
 -12   1 -17   54.49   13.45
  12  -1  17   57.67   11.17
 -12   2 -17   28.62    7.53
  12  -2  17   -2.08    5.86
 -12   3 -17   -5.60   11.97
  12  -3  17   11.62    5.74
 -12   4 -17    1.68   10.36
  12  -4  17    4.75    5.54
  12  -5  17    7.74    5.57
  13  11 -17   -8.93    8.56
 -13 -11  17   11.54    5.19
 -13 -11  17    0.33    5.25
  13  10 -17   10.89    9.72
 -13 -10  17    3.85    5.59
 -13 -10  17    2.63    5.43
  13   9 -17    0.26    8.25
  13   9 -17   -2.79    8.40
 -13  -9  17   -8.24    4.47
 -13  -9  17    0.95    4.42
  13   8 -17    6.08    7.78
  13   8 -17   -8.07    8.09
 -13  -8  17   -3.27    3.97
 -13  -8  17    6.68    4.09
  13   7 -17    0.36    7.33
  13   7 -17    5.40    7.89
 -13  -7  17    2.41    3.67
 -13  -7  17    2.40    3.80
  13   6 -17  -14.76    7.70
  13   6 -17    7.41    6.92
 -13  -6  17    1.90    3.55
 -13  -6  17   -2.25    3.31
  13   5 -17   34.73   10.17
 -13  -5  17    9.43    8.47
 -13  -5  17   32.97    7.75
  13   4 -17    0.23    6.67
  13   4 -17   -8.33    5.70
 -13  -4  17   -5.98    3.47
 -13  -4  17   -1.54    3.59
  13   3 -17    0.24    6.75
  13   3 -17   -0.47    5.28
 -13  -3  17   -2.65    3.50
 -13  -3  17    0.30    3.10
  13   2 -17    6.87    5.28
  13   2 -17    6.85    7.45
 -13  -2  17   -2.24    3.06
  13   1 -17   -1.60    4.66
 -13  -1 -17    7.34    9.87
  13   1  17   -7.41    4.95
 -13  -1  17    0.50    3.03
 -13   0 -17   -9.24    9.72
  13   0 -17    2.84    4.34
  13   0  17    3.02    5.33
  13   0  17    7.73    6.05
 -13   1 -17   -9.16    9.46
  13  -1  17    8.03    6.03
  13  -1  17   -0.20    5.56
 -13   2 -17   -2.10    7.96
 -13   2 -17    1.01   13.85
  13  -2  17   -4.51    5.96
  13  -2  17    5.05    5.90
 -13   3 -17    1.47   13.31
 -13   3 -17    9.86    7.98
  13  -3  17   -5.47    5.92
  13  -3  17  -14.79    6.49
 -13   4 -17   -2.88   12.36
 -13   4 -17    0.20    7.19
  13  -4  17  -21.74    6.51
  13  -4  17   -7.47    6.70
  13  -5  17   56.65   13.49
  14  11 -17    8.93    9.59
 -14 -11  17   -8.41    5.37
  14  10 -17   -4.77    9.53
  14  10 -17    2.72    9.58
 -14 -10  17  -11.21    5.29
 -14 -10  17  -14.11    5.24
  14   9 -17   -5.88    9.16
  14   9 -17   -6.25    9.46
 -14  -9  17   -5.87    4.69
 -14  -9  17   -1.54    4.48
  14   8 -17  -11.21    9.04
  14   8 -17    0.27    8.71
 -14  -8  17  -12.47    4.84
 -14  -8  17  -11.61    4.60
  14   7 -17   -3.40    7.60
  14   7 -17   17.18    8.45
 -14  -7  17    4.06    4.09
 -14  -7  17    2.51    4.16
  14   6 -17   16.86    8.22
  14   6 -17   -3.74    7.42
 -14  -6  17    5.36    3.95
 -14  -6  17    7.63    4.32
  14   5 -17   -2.19    7.56
  14   5 -17  -13.43    6.69
 -14  -5  17    4.72    3.65
 -14  -5  17    5.11    3.25
  14   4 -17    4.75    6.26
  14   4 -17    0.24    7.50
 -14  -4  17   10.71    3.92
 -14  -4  17    3.15    3.49
  14   3 -17   -4.61    5.61
  14   3 -17    4.53    7.58
 -14  -3  17   -6.01    3.49
 -14  -3  17   -2.28    3.46
 -14  -2  17   -2.20    3.35
 -14  -1 -17   29.35   11.12
  14   1  17    0.81    5.78
 -14   0 -17   12.85   10.91
  14   0  17    6.09    7.24
  14   0  17    1.05    5.80
 -14   1 -17    4.19   10.69
  14  -1  17   -8.12    6.99
  14  -1  17  -15.40    6.67
 -14   2 -17    2.05    9.14
 -14   2 -17    2.23   15.32
  14  -2  17  -11.55    7.03
 -14   3 -17    5.01   14.40
 -14   3 -17   -1.57    8.96
  14  -3  17    5.79    6.81
  14  -3  17    1.15    6.40
 -14   4 -17   -1.37    8.08
 -14   4 -17   -2.21   13.96
  14  -4  17    3.60    6.49
  14  -4  17   -3.36    6.98
 -14   5 -17   -3.87   13.49
 -14   5 -17    2.33    7.56
  14  -5  17   -0.19    7.57
  14  -5  17   14.05    6.78
  15  11 -17   -3.61   10.03
 -15 -11  17   -7.70    5.89
  15  10 -17    0.64   10.14
 -15 -10  17    0.63    5.38
 -15 -10  17    6.38    5.13
 -15  -9  17   -1.86    4.74
 -15  -9  17   15.65    5.10
 -15  -8  17    2.15    4.45
 -15  -1 -17  -26.10   12.55
  15   1  17  -15.27    6.29
 -15   0 -17    6.43   11.86
  15   0  17   -6.91    7.13
  15   0  17   -0.94    6.31
 -15   1 -17  -11.73   18.08
 -15   1 -17   30.15   11.88
  15  -1  17   -9.13    7.00
  15  -1  17    7.35    7.27
 -15   2 -17    7.66   10.94
 -15   2 -17    4.33   16.89
  15  -2  17   -8.24    6.90
  15  -2  17  -12.70    7.52
 -15   3 -17  -15.54   10.12
 -15   3 -17    9.98   16.16
  15  -3  17   -1.01    6.80
  15  -3  17    0.19    7.43
 -15   4 -17  -16.30   15.51
 -15   4 -17   -7.68    9.11
  15  -4  17    3.16    7.31
  15  -4  17   -0.20    7.57
 -15   5 -17  -16.01    8.61
 -15   5 -17   -0.64   15.07
  15  -5  17    0.20    8.10
  15  -5  17    4.38    7.10
 -16  -1 -17  -19.11   14.10
  16   1  17   -5.01    7.00
 -16   0 -17   -2.37   12.95
  16   0  17    3.40    7.21
  16   0  17   -2.62    7.81
 -16   1 -17   -7.29   13.09
 -16   1 -17   12.16   18.54
  16  -1  17  -13.51    7.93
  16  -1  17  -11.31    8.49
 -16   2 -17  -41.10   15.59
 -16   2 -17  -22.05   21.08
 -16   3 -17  -20.56   69.26
 -16   3 -17  128.69   63.08
 -16   4 -17  -18.68   20.19
 -16   5 -17    0.27    9.86
 -16   5 -17   11.81   17.47
  16  -5  17   -6.75    9.25
  16  -5  17  -28.28    8.64
  16  -6  17  -14.64    8.86
 -17  -1 -17  -24.41   15.21
  17   1  17   -4.20    7.63
 -17   0 -17   11.54   15.19
 -17   0 -17   -8.77   21.37
  17   0  17   -2.11    8.73
  17   0  17   15.64    8.36
 -17   1 -17   10.42   19.82
 -17   1 -17    4.29   14.05
  17  -1  17   -2.26    8.73
  17  -1  17    1.75    7.89
 -17   2 -17    4.76   13.45
 -17   2 -17   -3.85   20.06
  17  -2  17   -4.24    9.16
  17  -2  17    5.31    8.19
 -17   3 -17   20.04   20.49
 -17   3 -17    5.84   12.53
  17  -3  17   11.01    8.69
  17  -3  17    4.30    9.11
 -17   4 -17  -16.56   19.59
 -17   4 -17   15.61   11.46
  17  -4  17   -2.91    8.51
  17  -4  17   -0.48    9.16
 -17   5 -17   11.98   19.77
 -17   5 -17   -0.62   10.65
  17  -5  17  -11.50    9.00
  17  -5  17    4.95    9.84
  17  -6  17  -24.16   10.05
 -18  -1 -17   -3.07   16.28
  18   1  17   -4.38    8.77
 -18   0 -17   10.49   16.94
 -18   0 -17    6.39   22.56
  18   0  17   10.22    9.75
  18   0  17   -2.23    8.61
 -18   1 -17    5.77   22.58
 -18   1 -17  -30.98   16.62
  18  -1  17   12.64    8.94
  18  -1  17    0.84    9.48
 -18   2 -17    5.79   15.44
 -18   2 -17   -5.95   21.90
  18  -2  17   -3.23    8.79
  18  -2  17   -8.56    9.72
 -18   3 -17    0.43   14.32
 -18   3 -17   -7.13   22.41
  18  -3  17   -2.39    9.27
  18  -3  17    4.62    9.85
 -18   4 -17   17.72   23.02
 -18   4 -17    1.85   12.30
  18  -4  17    2.10    9.75
  18  -4  17   -1.81   10.04
 -18   5 -17    2.75   11.63
 -18   5 -17    9.72   22.13
  18  -5  17   -9.02   10.26
  18  -6  17   -1.64   10.96
   0   1 -18   -1.24    2.13
   0  -1  18   -0.18    1.45
   1   1 -18   12.51    8.50
  -1   1 -18   20.93    6.97
   1   1 -18   24.05    6.74
   1  -1  18   28.86    6.12
  -1  -1  18   33.10    6.04
  -1   2 -18    0.77    2.44
   2   1 -18    2.47    4.74
  -1   2 -18    1.70    4.20
   2   1 -18    0.88    2.29
  -2  -1  18    0.85    1.59
   1  -2  18   -0.17    1.60
   0   2 -18    5.71    4.28
   0   2 -18    3.89    2.50
   0  -2  18    3.32    1.81
   1   2 -18    1.02    2.29
   1   2 -18    0.77    4.24
  -2   1 -18    0.90    2.13
  -1  -2  18    0.86    1.57
   2   2 -18    6.80    2.71
  -2   2 -18    4.57    2.93
  -2   2 -18    4.41    4.23
   2   2 -18    7.96    4.61
  -2  -2  18    4.49    2.06
   2  -2  18    6.11    2.05
  -2   3 -18   -0.79    3.83
   3   2 -18    2.18    2.49
   3   2 -18    0.49    4.54
  -2   3 -18    1.08    2.73
   2  -3  18    1.14    1.50
  -3  -2  18    1.12    1.73
   3   1 -18   22.46    5.96
  -1   3 -18   20.61    7.21
  -1   3 -18   27.46    6.48
   3   1 -18   12.75    7.89
  -3  -1  18   26.62    5.36
   1  -3  18   19.19    5.34
   0   3 -18    0.37    2.62
   0   3 -18    1.21    3.91
   0  -3  18    1.21    1.56
   1   3 -18   27.88    7.56
   1   3 -18   33.41    6.64
  -3   1 -18   10.63    6.91
  -1  -3  18   29.07    5.74
  -3   2 -18    0.44    2.33
   2   3 -18    0.58    4.29
   2   3 -18    2.06    2.66
  -3   2 -18    3.26    4.06
  -2  -3  18    1.56    1.73
   3  -2  18    1.12    1.42
  -3   3 -18   41.61    9.43
   3   3 -18   35.58    9.83
   3   3 -18   28.12    8.52
  -3   3 -18   32.12   10.46
   3  -3  18   31.97    8.01
  -3  -3  18   31.73    7.53
   4   3 -18   39.19   10.42
   4   3 -18   34.89    9.03
  -3   4 -18   28.18    9.74
  -3   4 -18   23.76   10.60
   3  -4  18   39.19    8.31
  -4  -3  18   41.04    8.05
   4   2 -18   51.60   15.17
   4   2 -18   60.75   13.10
  -2   4 -18   53.47   14.26
  -2   4 -18   51.97   15.17
   2  -4  18   42.95   12.24
  -4  -2  18   61.36   12.17
   4   1 -18   14.88    7.52
  -1   4 -18   22.89    6.89
  -1   4 -18   30.74    6.14
   4   1 -18   13.35    5.60
  -4  -1  18   19.67    5.00
   1  -4  18   20.82    4.94
   0   4 -18   27.87    9.61
   0   4 -18   32.06    8.78
   0  -4  18   32.88    7.38
  -4   1 -18   15.38    6.60
   1   4 -18   25.75    6.98
   1   4 -18   23.88    6.14
  -1  -4  18   23.14    5.11
   2   4 -18   42.33   14.82
  -4   2 -18   49.52   15.60
   2   4 -18   51.63   13.42
  -2  -4  18   64.28   11.89
  -4   3 -18   38.50   10.33
  -4   3 -18   25.00   11.59
   3   4 -18   36.19    9.25
   3   4 -18   35.80   10.45
  -3  -4  18   41.08    8.14
   4  -3  18   34.74    8.92
   4   4 -18   14.66    7.59
  -4   4 -18   25.45    8.87
  -4   4 -18   43.99    7.81
   4   4 -18   14.67    9.41
  -4  -4  18   20.68    6.47
   4  -4  18   28.62    6.59
   4  -4  18   33.61    6.76
  -4   5 -18    3.22    3.80
  -4   5 -18    8.79    3.28
   5   4 -18    0.48    5.07
  -5  -4  18    4.62    2.74
   4  -5  18    4.89    1.85
   4  -5  18    6.42    1.84
   5   3 -18   11.93    6.06
  -3   5 -18    8.62    4.68
  -3   5 -18   15.14    4.24
  -5  -3  18   14.06    3.24
   3  -5  18   13.35    2.97
   3  -5  18    9.15    2.96
   5   2 -18   26.79    8.87
  -2   5 -18   21.18    8.28
  -2   5 -18   19.98    7.36
   2  -5  18   22.09    6.38
  -5  -2  18   32.04    6.35
   2  -5  18   24.64    6.24
  -1   5 -18    5.43    3.40
  -1   5 -18    3.73    3.92
   5   1 -18    1.37    5.02
   1  -5  18    6.38    2.07
  -5  -1  18    4.33    2.20
   1  -5  18    3.71    1.98
   0   5 -18    0.49    3.52
   0   5 -18    0.91    3.28
   0  -5  18   -0.58    1.66
   0  -5  18    0.34    1.80
   1   5 -18    4.13    3.32
   1   5 -18    1.55    4.10
   5  -1  18    4.63    2.64
  -1  -5  18    3.66    2.19
  -1  -5  18    6.33    2.21
   2   5 -18   34.77    7.98
   2   5 -18   23.08    8.83
  -2  -5  18   29.37    6.93
  -2  -5  18   35.95    7.34
   3   5 -18    2.59    4.82
   3   5 -18   13.36    5.82
  -3  -5  18    4.53    3.54
  -3  -5  18   -4.06    3.58
   4   5 -18    0.83    4.85
   4   5 -18   -2.82    5.82
  -4  -5  18   -3.65    3.29
  -4  -5  18   -0.41    2.91
   5   5 -18    7.50    5.23
  -5  -5  18    3.25    2.39
  -5  -5  18    3.20    2.68
   6   5 -18   20.87    4.33
   6   5 -18   -8.50    5.62
  -6  -5  18   11.58    2.96
  -6  -5  18   -0.34    2.89
   6   4 -18    9.62    3.97
  -4   6 -18    1.86    3.80
  -4   6 -18    2.26    3.71
   6   4 -18    9.50    5.32
  -6  -4  18    3.91    2.64
  -3   6 -18   32.39   13.33
   6   3 -18   36.71   11.37
   6   3 -18   43.26   13.10
  -3   6 -18   47.34   11.52
  -6  -3  18   44.43   10.24
   3  -6  18   41.38   10.52
   3  -6  18   43.34   10.23
   6   2 -18    3.70    3.00
  -2   6 -18    3.37    3.62
   6   2 -18   -2.98    5.75
  -2   6 -18    6.88    3.80
   2  -6  18    2.82    1.93
   2  -6  18    3.88    1.83
  -6  -2  18    1.63    2.19
  -1   6 -18   24.70    6.93
   6   1 -18   15.84    5.67
   6   1 -18   19.78    8.06
  -1   6 -18   18.71    6.15
   1  -6  18   19.84    4.99
  -6  -1  18   16.56    5.16
   1  -6  18   22.76    5.09
   0   6 -18    6.11    4.49
   6   0 -18    1.39    3.41
   0   6 -18   17.38    5.17
   0  -6  18   13.47    3.12
   0  -6  18   10.94    2.93
   6   0  18    5.16    3.33
   1   6 -18   29.11    7.55
   1   6 -18   26.89    6.83
   6  -1  18   13.62    6.05
   2   6 -18  -14.67    5.68
   2   6 -18    1.60    4.64
  -2  -6  18    0.45    2.85
  -2  -6  18   -3.67    3.22
   3   6 -18   36.50   12.43
   3   6 -18   63.81   14.01
  -3  -6  18   59.65   11.90
  -3  -6  18   48.59   11.57
   4   6 -18    2.84    4.17
   4   6 -18    9.11    5.04
  -4  -6  18    7.55    2.89
  -4  -6  18    4.51    2.88
   5   6 -18   17.41    4.43
   5   6 -18   -0.62    5.25
  -5  -6  18    9.20    2.88
  -5  -6  18    0.93    2.85
   7   6 -18    4.86    4.53
  -7  -6  18   -0.14    2.69
   7   4 -18    4.66    6.10
  -7  -4  18   12.10    3.35
  -3   7 -18    1.94    3.65
   7   3 -18    0.78    3.54
   7   3 -18   -3.44    5.40
  -3   7 -18    0.98    4.11
  -7  -3  18    1.12    2.25
   3  -7  18    0.67    1.65
   3  -7  18    0.09    1.93
  -2   7 -18   30.84    8.81
   7   2 -18   22.83    9.54
   7   2 -18   33.77    7.52
  -2   7 -18   27.77    7.94
  -7  -2  18   24.67    6.82
   2  -7  18   23.64    6.51
   2  -7  18   27.51    6.99
  -1   7 -18    0.80    3.93
   7   1 -18   -2.13    5.65
   7   1 -18    1.23    3.04
  -1   7 -18    0.60    3.79
   1  -7  18    1.29    2.18
  -7  -1  18    2.90    2.33
   1  -7  18   -1.03    1.95
   7   0 -18   -2.14    2.84
   0   7 -18   -1.41    4.25
   0   7 -18   -1.23    3.85
   0  -7  18   -0.10    2.23
   7   0  18    0.61    2.94
   0  -7  18    2.06    2.03
   1   7 -18   -3.08    4.13
   1   7 -18    0.21    4.35
   7  -1  18    1.65    3.07
  -1  -7  18    2.71    2.38
  -1  -7  18    1.38    2.26
   2   7 -18   15.33    8.26
   2   7 -18   43.26    9.10
  -2  -7  18   37.06    7.31
  -2  -7  18   28.61    7.24
   7  -2  18   21.34    8.71
   3   7 -18    1.28    4.45
   3   7 -18   -0.65    4.31
  -3  -7  18    1.00    2.38
  -3  -7  18    0.82    2.58
   4   7 -18    7.85    5.29
  -4  -7  18    8.92    3.45
   7   7 -18   -4.98    5.46
   7   7 -18    6.48    5.84
  -7  -7  18    2.87    3.18
  -7  -7  18    0.82    2.99
   8   7 -18   -5.65    6.58
   8   7 -18    6.25    5.65
  -8  -7  18    0.71    3.19
  -8  -7  18    2.70    3.42
   8   6 -18   13.50    6.32
   8   6 -18    6.25    5.27
  -8  -6  18    2.09    3.29
  -8  -6  18    6.91    3.07
   8   5 -18   -0.80    4.22
  -8  -5  18   -1.14    2.81
  -3   8 -18   10.69    5.38
   8   3 -18   11.20    6.27
  -3   8 -18   14.39    4.82
   3  -8  18    6.53    3.27
  -8  -3  18    9.87    3.35
   3  -8  18    8.46    2.97
  -2   8 -18   -0.97    4.56
  -2   8 -18    0.24    3.82
   8   2 -18    7.77    5.78
   2  -8  18    0.68    2.04
   2  -8  18   -0.21    2.52
  -8  -2  18    3.16    2.46
  -1   8 -18    3.95    4.17
   8   1 -18    4.46    6.06
   8   1 -18    6.30    3.43
  -1   8 -18    3.84    4.95
   1  -8  18    7.81    2.86
  -8  -1  18    6.26    2.80
   1  -8  18    4.81    2.49
   0   8 -18    1.67    4.69
   0   8 -18    2.73    4.10
   8   0 -18   -2.13    3.05
   0  -8  18   -0.72    2.16
   0  -8  18   -0.70    2.60
   8   0  18    1.71    3.11
   1   8 -18    3.59    4.08
   1   8 -18    4.75    4.78
  -1  -8  18    6.57    2.54
  -1  -8  18    2.64    2.78
   8  -1  18    2.87    3.63
   2   8 -18    1.22    4.89
  -8   2 -18    0.21    5.91
   2   8 -18   -4.10    4.27
  -2  -8  18    0.13    2.47
   8  -2  18   -0.33    4.06
  -2  -8  18   -1.61    2.70
   8  -2  18    1.46    3.83
   3   8 -18   17.98    5.18
  -3  -8  18    6.02    3.60
   5   8 -18    6.22    5.24
   5   8 -18   -0.16    4.04
  -5  -8  18   -0.14    2.74
  -5  -8  18   -0.30    2.93
   6   8 -18    0.16    5.59
  -6  -8  18   12.88    3.62
   7   8 -18    2.29    5.77
   7   8 -18    1.95    5.61
  -7  -8  18    2.13    3.28
  -7  -8  18   -2.80    3.22
   8   8 -18   12.52    8.49
   8   8 -18   20.99    9.46
  -8  -8  18   28.18    7.23
  -8  -8  18   34.84    7.04
   9   8 -18    0.63    6.34
   9   8 -18    6.68    6.52
  -9  -8  18    3.54    3.37
  -9  -8  18   -4.50    3.65
   9   7 -18    8.29    6.40
   9   7 -18    1.09    5.84
  -9  -7  18    2.04    3.25
  -9  -7  18   -1.34    3.22
   9   6 -18    3.63    6.58
   9   6 -18    0.97    5.29
  -9  -6  18    3.63    3.03
  -9  -6  18    0.16    3.28
   9   5 -18    0.86    4.87
   9   5 -18   -3.80    6.62
  -9  -5  18   -3.82    2.69
  -9  -5  18   -1.65    3.13
   9   4 -18    3.92    4.43
  -3   9 -18    9.62    4.14
   3  -9  18    6.38    3.04
   3  -9  18    6.09    2.99
  -2   9 -18    1.57    3.91
  -2   9 -18   -1.45    4.77
   2  -9  18    1.82    2.36
  -1   9 -18    5.48    3.77
  -1   9 -18    3.79    4.97
   1  -9  18    4.10    2.47
  -9  -1  18   -0.14    2.66
   0   9 -18   -1.17    5.12
   0   9 -18    1.41    3.93
   0  -9  18    0.14    2.47
   9   0  18   -2.13    3.44
  -9   1 -18   -1.03    6.92
   1   9 -18    4.33    3.98
   9  -1  18    5.73    3.99
  -1  -9  18    2.84    2.76
  -1  -9  18   -0.14    2.16
  -9   2 -18    0.67    6.48
   9  -2  18    0.92    4.29
   9  -2  18    3.05    4.11
   3   9 -18    0.59    5.62
  -3  -9  18    7.82    3.19
   4   9 -18    1.62    4.48
   4   9 -18   -2.11    5.71
  -4  -9  18    0.31    2.93
  -4  -9  18   -0.56    3.09
   5   9 -18   -6.83    5.84
   5   9 -18    0.15    4.67
  -5  -9  18    2.33    3.31
  -5  -9  18   -0.33    3.01
   6   9 -18    0.66    5.10
  -6  -9  18    3.34    3.38
   7   9 -18    9.64    6.41
   7   9 -18    1.73    5.55
  -7  -9  18   11.55    3.69
  -7  -9  18    0.18    3.31
   8   9 -18   -8.32    6.68
   8   9 -18    0.19    5.70
  -8  -9  18    2.27    3.48
  -8  -9  18    7.80    3.71
   9   9 -18    1.45    6.65
   9   9 -18    0.20    6.20
  -9  -9  18    6.13    3.90
  -9  -9  18    2.75    3.80
  10   9 -18   32.50    8.81
  10   9 -18   19.47    8.54
 -10  -9  18   20.33    6.08
 -10  -9  18   21.34    6.19
  10   8 -18    0.22    6.87
  10   8 -18    4.64    6.67
 -10  -8  18    0.19    3.72
 -10  -8  18    0.50    3.51
  10   7 -18   -6.38    7.01
  10   7 -18    5.02    6.02
 -10  -7  18    8.57    3.41
 -10  -7  18    2.32    3.46
  10   6 -18   11.38    6.67
  10   6 -18    0.53    5.65
 -10  -6  18    4.98    3.56
 -10  -6  18    1.46    3.29
  10   5 -18    0.83    6.44
  10   5 -18   -6.82    5.30
 -10  -5  18   -4.99    2.98
 -10  -5  18    2.86    3.18
  10   4 -18    5.95    5.11
  10   4 -18   19.25    6.84
 -10  -4  18    4.98    3.23
 -10  -4  18    3.86    3.51
  10   3 -18    4.79    4.64
  -3  10 -18    4.15    4.85
 -10  -3  18    9.64    3.38
  10   2 -18    4.65    4.12
  -2  10 -18    0.25    4.17
  -1  10 -18    1.41    4.21
   1 -10  18    9.73    3.07
  10   1  18    3.90    3.93
  10   0  18   11.67    4.88
 -10   1 -18   -2.74    7.76
  10  -1  18    3.40    4.29
  10  -1  18    0.27    4.91
 -10   2 -18   -2.08    7.48
   2  10 -18   -0.35    6.06
  10  -2  18   -3.71    5.00
  -2 -10  18   -0.67    3.16
  10  -2  18   -8.88    4.89
   3  10 -18    6.83    4.77
   3  10 -18    2.42    5.90
  -3 -10  18    1.04    3.50
  10  -3  18   19.29    6.29
   4  10 -18    6.39    6.42
   4  10 -18   10.03    4.87
  -4 -10  18    3.50    3.47
   5  10 -18   -0.31    4.56
   5  10 -18    1.46    6.46
  -5 -10  18   -0.18    3.24
  -5 -10  18    0.31    3.33
   6  10 -18    4.65    5.11
  -6 -10  18    0.80    3.35
   7  10 -18    1.95    7.25
   7  10 -18    4.32    5.40
  -7 -10  18    0.20    3.77
  -7 -10  18    0.83    3.52
   8  10 -18    0.19    5.80
   8  10 -18   -4.46    7.22
  -8 -10  18    1.46    3.88
  -8 -10  18    0.18    3.59
   9  10 -18   19.84    8.27
   9  10 -18    0.40    7.08
  -9 -10  18    1.96    4.85
  -9 -10  18   14.74    4.95
  10  10 -18   17.25    8.39
  10  10 -18   -3.94    6.80
 -10 -10  18    2.72    4.44
 -10 -10  18   10.73    4.37
  11  10 -18   10.22    9.03
  11  10 -18   14.63    7.45
 -11 -10  18   -7.42    4.24
 -11 -10  18   -0.20    4.36
  11   9 -18   -0.24    7.27
  11   9 -18    5.65    7.60
 -11  -9  18    1.55    4.13
 -11  -9  18    0.76    4.11
  11   8 -18   -4.20    7.28
  11   8 -18  -15.16    7.86
 -11  -8  18   -8.34    3.98
 -11  -8  18   -5.42    3.98
  11   7 -18   16.81    7.30
  11   7 -18    0.23    7.48
 -11  -7  18   16.52    4.33
 -11  -7  18    7.23    4.56
  11   6 -18    0.23    6.95
  11   6 -18   -1.13    6.13
 -11  -6  18    6.01    3.38
 -11  -6  18    3.67    3.49
  11   5 -18    0.25    5.48
  11   5 -18   -0.22    6.77
 -11  -5  18    0.50    3.36
 -11  -5  18    3.95    3.14
  11   4 -18   -4.19    6.95
  11   4 -18    0.89    4.99
 -11  -4  18   -0.97    3.25
 -11  -4  18    5.10    2.83
  11   3 -18    2.93    4.70
  11   3 -18    1.35    6.47
  -3  11 -18   -2.68    4.38
 -11  -3  18    3.26    3.15
  11   2 -18    0.48    6.80
  11   2 -18   -1.36    4.45
 -11  -2  18    0.90    2.82
  11   1 -18    2.52    4.48
  11   1 -18   27.26    7.50
  11   1  18   10.23    4.56
 -11  -1  18    3.83    3.30
  11   0 -18   -0.68    6.65
   0  11 -18   44.02    7.31
   1  11 -18    3.52    4.65
 -11   2 -18    0.51    7.64
  -2 -11  18   -2.27    3.40
  11  -2  18    0.14    5.06
 -11   3 -18    2.70    6.81
   3  11 -18    8.27    4.43
  -3 -11  18   -2.13    3.48
  11  -3  18   -6.24    5.12
   4  11 -18    0.15    4.61
   4  11 -18   -4.86    6.73
  -4 -11  18   -2.86    3.69
   5  11 -18    1.54    4.60
   5  11 -18    6.24    7.07
  -5 -11  18    6.48    4.01
   6  11 -18    0.48    4.91
  -6 -11  18   -0.22    3.91
   7  11 -18   18.23    5.97
   7  11 -18   31.89    8.27
  -7 -11  18    0.18    4.38
   8  11 -18    6.05    5.64
   8  11 -18    6.89    7.74
  -8 -11  18    0.55    3.84
  -8 -11  18   -4.88    4.48
   9  11 -18   -0.20    6.27
   9  11 -18   18.14    8.54
  -9 -11  18   -0.19    4.14
  -9 -11  18    5.36    4.25
  10  11 -18   -8.62    6.80
  10  11 -18   -8.97    8.63
 -10 -11  18    1.34    4.43
 -10 -11  18    0.21    4.34
  11  11 -18   -2.08    8.49
  11  11 -18    0.24    7.42
 -11 -11  18   -7.70    4.87
 -11 -11  18    2.62    4.87
  12  11 -18   -5.47    8.19
  12  11 -18   -6.00    9.33
 -12 -11  18   -0.23    4.82
 -12 -11  18   -3.11    5.21
  12  10 -18  -10.32    8.06
  12  10 -18   -7.99    8.95
 -12 -10  18    0.26    4.57
 -12 -10  18    0.21    4.61
  12   9 -18  -19.66    8.49
  12   9 -18    9.26    8.71
 -12  -9  18    0.20    4.22
 -12  -9  18    2.78    4.25
  12   8 -18    1.00    7.65
  12   8 -18   -3.05    7.80
 -12  -8  18   -0.18    3.98
 -12  -8  18    4.90    3.98
  12   7 -18    0.25    7.58
  12   7 -18   -6.11    6.83
 -12  -7  18   -0.34    3.87
 -12  -7  18   -3.97    3.94
  12   6 -18   11.32    8.23
  12   6 -18   -0.31    7.16
 -12  -6  18    7.57    3.74
 -12  -6  18    0.19    3.84
  12   5 -18    0.24    7.00
  12   5 -18    1.33    5.74
 -12  -5  18    1.70    3.20
 -12  -5  18   -0.18    3.39
  12   4 -18   13.33    7.17
  12   4 -18    4.62    5.41
 -12  -4  18    2.71    3.45
 -12  -4  18   -2.70    3.13
  12   3 -18    4.58    7.22
  12   3 -18    1.60    5.59
 -12  -3  18   -0.30    3.36
  12   2 -18    9.00    7.53
  12   2 -18   13.01    5.40
 -12  -2  18   10.33    3.92
  12   1 -18    3.89    4.63
  12   1  18   -0.83    4.67
 -12  -1  18   -3.11    2.92
  12   0 -18   15.44    5.07
 -12   0 -18    4.83    9.69
  12   0  18    5.20    5.49
 -12   1 -18   -7.26    9.25
  12  -1  18   -5.80    5.70
  12  -1  18   -1.84    5.27
 -12   2 -18    1.96    8.76
  12  -2  18   -0.20    5.87
  12  -2  18    5.26    5.70
 -12   3 -18    8.57    7.91
 -12   3 -18    3.14   12.05
  12  -3  18    7.66    6.10
   9  12 -18    2.02    6.23
  -9 -12  18   -8.45    4.35
  10  12 -18   -5.32    6.85
 -10 -12  18    3.92    4.56
  11  12 -18   -8.36    7.55
 -11 -12  18   -5.10    4.91
  12  12 -18  -11.36    8.14
 -12 -12  18    0.25    5.24
  13  12 -18    3.80    9.28
  13  11 -18    0.29    9.01
 -13 -11  18    5.52    5.31
 -13 -11  18  -13.02    5.53
  13  10 -18   -7.93    8.74
  13  10 -18    3.69    9.70
 -13 -10  18    3.53    4.74
 -13 -10  18   -0.45    4.91
  13   9 -18  -14.48   10.12
  13   9 -18  -11.20    9.70
 -13  -9  18  -15.29    5.38
  13   8 -18    2.03    8.07
  13   8 -18   11.02    8.42
 -13  -8  18   -1.92    4.30
 -13  -8  18    4.60    4.30
  13   7 -18    5.76    7.69
  13   7 -18    6.05    8.65
 -13  -7  18   12.91    4.39
 -13  -7  18   -0.18    4.00
  13   6 -18    0.25    7.55
  13   6 -18    2.95    7.22
 -13  -6  18    5.22    4.23
 -13  -6  18   -6.43    3.73
  13   5 -18    4.43    6.44
  13   5 -18  -11.91    7.78
 -13  -5  18   -1.87    3.83
 -13  -5  18   -8.23    3.60
  13   4 -18  -12.17    6.24
  13   4 -18   -2.66    7.45
 -13  -4  18    0.72    3.65
 -13  -4  18   -8.89    3.80
  13   3 -18   -1.74    5.55
  13   3 -18   -7.79    7.56
 -13  -3  18   -1.80    3.29
 -13  -3  18    3.85    3.62
  13   2 -18   -2.68    7.55
  13   2 -18    7.20    5.20
 -13  -2  18    4.38    3.35
  13   1 -18   11.95    6.24
 -13  -1  18   18.03    4.85
  13   1  18   13.94    6.17
  13   0 -18    2.19    4.95
 -13   0 -18   19.81   10.27
  13   0  18    8.26    5.62
 -13   1 -18   16.30   10.72
  13  -1  18   18.99    7.15
  13  -1  18    3.29    7.09
 -13   2 -18   -5.52    8.88
 -13   2 -18    3.15   14.75
  13  -2  18   -7.78    6.26
  13  -2  18    0.65    6.07
 -13   3 -18   -7.24    8.80
 -13   3 -18    1.53   14.02
  13  -3  18   -0.65    6.60
  14  11 -18    0.32   10.29
 -14 -11  18   -4.81    5.45
 -14 -11  18   -5.33    6.27
  14  10 -18   12.31   10.06
  14  10 -18   -3.33    9.77
 -14 -10  18    5.38    5.25
 -14 -10  18    4.42    5.23
  14   9 -18   -5.08   10.24
  14   9 -18    2.12    9.95
 -14  -9  18  -16.11    5.12
 -14  -9  18   -6.92    5.04
  14   8 -18  -33.86   11.28
 -14  -8  18  -13.86    5.97
  14   7 -18   -0.79    7.81
  14   7 -18   -4.46    8.72
 -14  -7  18   -4.18    4.43
 -14  -7  18    1.87    4.12
  14   6 -18   -8.19    7.37
  14   6 -18   15.26    8.15
 -14  -6  18    1.59    3.66
 -14  -6  18   -5.02    3.98
  14   5 -18    0.26    7.95
  14   5 -18   11.44    7.28
 -14  -5  18    3.34    3.80
 -14  -5  18    0.17    3.54
  14   4 -18   -0.26    7.54
  14   4 -18    4.68    6.18
 -14  -4  18   -5.99    3.52
 -14  -4  18   -0.19    3.94
  14   3 -18   14.95    7.86
  14   3 -18   -1.61    6.52
 -14  -3  18   -4.71    3.63
 -14  -3  18    1.71    3.43
  14   2 -18    5.81    7.89
  14   2 -18   -0.49    5.75
 -14  -2  18   -1.41    3.27
  14   1 -18    1.37    5.22
  14   1  18   -5.01    5.53
 -14   0 -18   -5.72   11.11
  14   0  18    7.05    6.77
  14   0  18    6.26    6.06
 -14   1 -18   21.33   11.06
  14  -1  18   -3.05    6.77
  14  -1  18  -16.04    6.47
 -14   2 -18   35.17   10.12
 -14   2 -18    2.90   16.16
  14  -2  18   -8.64    6.85
  14  -2  18   -3.80    6.57
 -14   3 -18   -0.57   15.38
 -14   3 -18   14.42    9.37
  14  -3  18   -2.17    6.76
  14  -3  18   -0.24    6.68
  14  -4  18   -5.52    6.54
  14  -4  18    1.23    6.73
  15  11 -18    5.89   10.81
 -15 -11  18    5.51    5.96
  15  10 -18  -11.25   10.28
  15  10 -18   -6.64    9.79
 -15 -10  18   -5.84    5.15
 -15 -10  18    3.12    5.12
  15   9 -18   -5.19   10.25
  15   9 -18   -2.14    9.87
 -15  -9  18    1.35    4.98
 -15  -9  18    3.35    4.89
  15   8 -18   -4.27    9.88
 -15  -8  18    7.82    4.72
 -15  -8  18  -12.32    4.73
 -15  -7  18    7.00    4.35
 -15  -7  18   -0.47    4.25
 -15  -6  18   -2.64    4.44
  15   1  18    6.91    6.34
 -15   0 -18    3.14   12.37
  15   0  18    3.61    6.59
  15   0  18   -2.87    7.38
 -15   1 -18   -9.64   18.34
 -15   1 -18   17.79   12.38
  15  -1  18   -8.86    7.20
  15  -1  18    2.31    7.47
 -15   2 -18   -6.09   10.62
 -15   2 -18    3.22   17.36
  15  -2  18    8.46    7.36
  15  -2  18   -5.71    7.36
 -15   3 -18    5.84   16.74
 -15   3 -18    7.72   10.45
  15  -3  18   -7.27    7.15
  15  -3  18  -11.44    7.54
 -15   4 -18   -6.49   16.20
 -15   4 -18  -10.16    9.03
  15  -4  18   -2.17    7.32
  15  -4  18    0.78    7.77
 -16  -1 -18  121.83   25.95
 -16   0 -18  125.16   38.34
  16   0  18  172.06   32.95
 -16   1 -18   34.41   21.88
 -16   1 -18   45.41   17.73
 -16   2 -18  -22.93   21.12
 -16   3 -18  -30.47   12.99
 -16   3 -18  -24.29   20.06
  16  -3  18  -10.76    8.79
 -16   4 -18    0.31   10.55
 -16   4 -18   13.38   18.92
  16  -4  18  -22.04    8.95
  16  -4  18  -10.30    8.57
 -17  -1 -18   -7.39   14.59
  17   1  18   10.04    7.90
 -17   0 -18  -11.49   15.24
 -17   0 -18  -19.73   22.27
  17   0  18   20.46    8.64
  17   0  18    8.04    9.42
 -17   1 -18  -20.09   21.47
 -17   1 -18   -3.56   14.62
  17  -1  18    1.29    9.05
  17  -1  18    5.71    8.68
 -17   2 -18   36.82   22.28
 -17   2 -18   16.99   15.67
  17  -2  18   28.11    9.89
  17  -2  18    4.54   10.14
 -17   3 -18   12.28   20.61
 -17   3 -18   -6.39   13.00
  17  -3  18   -7.20    8.88
  17  -3  18   -9.36    9.44
 -17   4 -18  -13.02   12.36
 -17   4 -18   -2.52   19.83
  17  -4  18   -6.97    9.12
  17  -4  18   13.74    9.17
  17  -5  18    2.77    8.92
 -18  -1 -18    0.63   16.65
 -18   0 -18    2.43   16.57
  18   0  18   -5.35   10.06
 -18   1 -18  -29.05   24.05
 -18   1 -18   -7.92   17.09
  18  -1  18   -9.71   10.20
 -18   2 -18    5.78   16.13
 -18   2 -18  -22.93   23.22
  18  -2  18    0.28    9.85
 -18   3 -18   -4.62   23.51
 -18   3 -18  -16.21   15.28
  18  -3  18    0.82    9.85
 -18   4 -18    4.82   23.28
 -18   4 -18   -3.23   13.21
  18  -4  18    0.37    8.05
  18  -4  18    1.86    9.90
   0   1 -19   19.40    6.91
   0  -1  19   30.23    6.11
   1   1 -19    2.56    4.59
   1   1 -19    0.12    2.26
  -1   1 -19   -0.65    2.14
  -1  -1  19   -0.29    1.59
   2   1 -19   -6.21    4.66
  -1   2 -19   -0.83    2.51
   2   1 -19   -1.18    2.45
  -1   2 -19   -1.50    4.23
  -2  -1  19    0.10    1.74
   1  -2  19    1.10    1.64
   0   2 -19   -3.24    4.47
   0   2 -19   -0.24    2.52
   0  -2  19   -0.09    1.76
   1   2 -19    0.17    4.57
   1   2 -19   -0.61    2.62
  -2   1 -19    0.21    2.34
  -1  -2  19    0.28    1.80
  -2   2 -19   -1.80    4.36
   2   2 -19    1.11    2.49
  -2   2 -19   -1.06    2.67
   2   2 -19   -2.63    4.92
   2  -2  19   -1.77    1.63
  -2  -2  19   -0.10    1.80
  -2   3 -19   26.66   12.09
   3   2 -19   38.48    9.93
  -2   3 -19   52.85   11.12
   3   2 -19   42.54   11.90
   2  -3  19   36.86    9.37
  -3  -2  19   38.69    9.04
   3   1 -19    0.12    2.44
  -1   3 -19    6.67    3.18
   3   1 -19    2.91    5.17
  -1   3 -19   -0.44    4.20
  -3  -1  19    2.82    1.92
   1  -3  19    0.93    1.72
   0   3 -19   13.88    5.70
   0   3 -19   20.30    6.72
   0  -3  19   20.82    4.68
   1   3 -19    2.73    3.03
   1   3 -19   -1.53    4.41
  -3   1 -19    1.52    2.51
  -1  -3  19    1.17    1.87
   2   3 -19   51.28   10.37
   2   3 -19   38.82   11.62
  -3   2 -19   30.70   11.59
  -2  -3  19   40.49    9.20
   3  -2  19   42.71    9.86
   3   3 -19   -1.13    5.06
  -3   3 -19   -1.57    3.05
   3   3 -19    0.14    3.07
  -3   3 -19   -1.63    4.48
  -3  -3  19   -1.08    2.17
   3  -3  19   -0.75    1.65
  -3   4 -19   40.59   10.55
  -3   4 -19   30.06   11.25
   4   3 -19   30.69   11.12
   4   3 -19   30.32    9.43
  -4  -3  19   40.48    8.44
   3  -4  19   37.17    8.69
   4   2 -19   17.09    6.34
   4   2 -19   10.01    4.15
  -2   4 -19    8.83    5.59
  -2   4 -19   12.30    4.77
  -4  -2  19   13.40    3.57
   2  -4  19   15.11    3.35
  -1   4 -19   35.15    9.92
   4   1 -19   28.42    8.58
  -1   4 -19   51.06    9.30
   4   1 -19   30.32   10.71
   1  -4  19   33.52    7.81
  -4  -1  19   39.01    7.90
   0   4 -19   -0.70    4.22
   0   4 -19    0.29    3.09
   0  -4  19   -0.70    1.76
  -4   1 -19   12.57    9.31
   1   4 -19   39.48    9.38
   1   4 -19   31.51    8.53
  -1  -4  19   34.12    7.16
   2   4 -19   17.03    4.62
   2   4 -19    5.18    5.78
  -4   2 -19    9.84    4.58
  -2  -4  19   12.60    3.52
   3   4 -19   33.26   11.47
  -4   3 -19   26.65   12.67
  -4   3 -19   52.33   11.36
   3   4 -19   44.54   10.15
   4  -3  19   42.68    9.71
  -3  -4  19   38.92    8.94
  -4   4 -19   -1.64    3.15
  -4   4 -19   -0.13    4.00
   4   4 -19   -2.82    4.99
   4   4 -19    0.64    3.39
  -4  -4  19   -0.10    2.24
  -4   5 -19   14.24    7.14
   5   4 -19   27.39    7.85
   5   4 -19   16.94    6.22
  -4   5 -19   15.47    6.39
  -5  -4  19   25.34    5.21
   5   3 -19   36.85   10.81
  -3   5 -19   40.47    9.60
  -3   5 -19   27.41   10.62
  -5  -3  19   40.41    8.12
   3  -5  19   24.12    8.21
   3  -5  19   34.12    8.31
  -2   5 -19   46.58    9.98
   5   2 -19   34.02   11.30
  -2   5 -19   32.24   10.79
  -5  -2  19   35.88    8.52
   2  -5  19   33.37    8.73
   2  -5  19   36.00    8.44
   5   1 -19   11.67    7.05
  -1   5 -19   19.13    4.78
  -1   5 -19   10.08    5.31
   1  -5  19   14.92    3.43
   1  -5  19   13.29    3.63
  -5  -1  19    9.61    3.63
   0   5 -19   25.90    9.15
   0   5 -19   28.59    8.01
   0  -5  19   22.61    7.17
   0  -5  19   34.40    6.75
   1   5 -19    4.64    5.64
   1   5 -19    7.44    4.65
  -1  -5  19   11.51    3.44
  -1  -5  19    9.17    3.24
   2   5 -19   42.82   10.60
   2   5 -19   31.17    9.42
  -2  -5  19   38.56    8.88
  -2  -5  19   26.82    8.17
   3   5 -19   42.19    9.85
   3   5 -19   30.61   11.01
  -3  -5  19   33.03    9.32
  -3  -5  19   46.56    8.67
   4   5 -19   14.97    6.39
   4   5 -19   28.27    7.65
  -4  -5  19   23.52    5.33
  -4  -5  19   17.71    5.73
   5   5 -19    0.17    5.39
  -5  -5  19   -0.68    2.35
  -5  -5  19   -0.13    2.15
   6   4 -19   22.60    6.52
  -6  -4  19   14.48    3.95
  -3   6 -19   11.02    4.75
   6   3 -19   12.16    4.59
   6   3 -19   15.01    6.37
  -3   6 -19   11.47    5.10
   3  -6  19    8.46    3.23
  -6  -3  19   13.50    3.63
   3  -6  19   13.51    3.31
  -2   6 -19   25.32    9.30
   6   2 -19   25.13    7.83
  -2   6 -19   31.43    8.26
   6   2 -19   23.29    9.95
   2  -6  19   29.57    7.00
   2  -6  19   27.09    6.99
  -6  -2  19   29.67    7.08
   6   1 -19    6.50    6.27
  -1   6 -19    5.25    4.35
  -1   6 -19    9.02    4.35
   6   1 -19    5.26    3.37
  -6  -1  19    5.78    2.64
   1  -6  19    6.99    2.43
   1  -6  19    5.04    2.47
   0   6 -19    0.37    4.05
   0   6 -19   -1.21    4.26
   0  -6  19   -0.65    2.05
   6   0  19    0.19    2.62
   0  -6  19    0.68    1.99
   1   6 -19   10.73    4.46
   1   6 -19   13.97    4.91
  -1  -6  19    7.56    2.77
  -1  -6  19    3.85    2.73
   2   6 -19   49.58    9.80
   2   6 -19   20.52    8.69
  -2  -6  19   30.37    7.86
  -2  -6  19   30.87    7.55
   3   6 -19   17.95    4.92
   3   6 -19   12.17    5.83
  -3  -6  19    7.32    3.47
  -3  -6  19    8.94    3.76
   4   6 -19   16.88    5.63
   4   6 -19   -0.20    3.90
  -4  -6  19   -0.13    2.86
  -4  -6  19   10.07    3.02
   7   6 -19    2.45    4.89
   7   6 -19    3.57    6.24
  -7  -6  19    4.11    3.12
  -7  -6  19    6.41    3.44
   7   5 -19   -1.77    4.45
  -7  -5  19    2.58    2.98
  -3   7 -19   25.18    6.50
  -3   7 -19   22.29    7.06
   7   3 -19   -0.20    7.90
   3  -7  19   23.52    5.19
   3  -7  19   19.46    4.84
  -2   7 -19    5.72    4.17
  -2   7 -19    3.45    4.34
   7   2 -19   15.82    6.28
  -7  -2  19    4.84    2.72
   2  -7  19    4.82    2.32
   2  -7  19    3.08    2.47
   7   1 -19   19.20    7.08
  -1   7 -19   14.80    5.31
   7   1 -19   -0.15    4.28
  -1   7 -19    6.99    5.03
   1  -7  19   12.71    3.51
  -7  -1  19   12.18    3.54
   1  -7  19   14.80    3.62
   0   7 -19    4.51    4.81
   0   7 -19    2.33    4.16
   7   0  19    2.43    3.07
   0  -7  19    1.04    2.19
   0  -7  19   -0.21    2.32
   1   7 -19   12.95    5.34
   1   7 -19   14.04    5.78
  -1  -7  19   10.70    3.80
  -1  -7  19   14.91    4.02
   2   7 -19    6.45    4.85
   2   7 -19    5.22    5.03
  -2  -7  19    5.25    2.95
  -2  -7  19    8.20    2.84
   3   7 -19   38.15    8.71
  -3  -7  19   30.34    6.98
   5   7 -19    3.30    4.79
  -5  -7  19    1.45    2.79
   6   7 -19    5.03    5.93
  -6  -7  19    1.35    2.96
  -7  -7  19    6.90    4.77
   8   7 -19   20.44    7.20
   8   7 -19   10.07    8.77
  -8  -7  19   12.37    5.67
  -8  -7  19   20.77    5.13
   8   6 -19   -4.24    7.10
   8   6 -19   -4.88    5.27
  -8  -6  19    4.31    3.17
  -8  -6  19    4.10    3.35
   8   5 -19    2.22    6.22
   8   5 -19   -1.47    4.72
  -8  -5  19   -0.66    2.86
  -8  -5  19   -0.15    2.79
   8   4 -19   -0.20    5.25
   8   4 -19   -0.19    4.17
  -8  -4  19   -0.13    2.37
  -3   8 -19    1.22    4.57
  -3   8 -19   -1.32    3.91
   3  -8  19    2.57    2.05
   3  -8  19    1.13    2.33
  -2   8 -19    8.27    4.72
  -2   8 -19    4.19    4.62
   2  -8  19    7.21    2.85
   2  -8  19    7.75    2.67
  -1   8 -19    0.48    4.63
  -1   8 -19    1.46    4.06
   1  -8  19   -1.95    2.56
   1  -8  19   -2.02    2.18
   0   8 -19    2.66    4.76
   0   8 -19    0.42    4.18
   0  -8  19    0.72    2.67
   8   0  19    1.18    3.41
   0  -8  19   -0.63    2.44
   1   8 -19   11.96    5.24
   1   8 -19    0.14    4.42
  -1  -8  19    0.37    2.74
   8  -1  19   -1.19    3.46
  -1  -8  19    2.08    2.47
   2   8 -19    7.11    4.90
  -2  -8  19   -0.13    3.03
   4   8 -19   -0.79    5.53
  -4  -8  19   14.66    3.60
   5   8 -19    1.18    5.21
   5   8 -19   -1.90    5.50
  -5  -8  19   -2.17    3.06
  -5  -8  19   -4.08    3.21
   6   8 -19    3.00    5.89
  -6  -8  19    5.13    3.42
   7   8 -19   22.37    7.47
   7   8 -19   18.15    8.12
  -7  -8  19   18.97    5.62
  -7  -8  19   16.85    5.40
   8   8 -19   -0.61    5.93
   8   8 -19    1.61    6.30
  -8  -8  19   -3.46    3.29
  -8  -8  19    0.35    3.43
   9   8 -19   10.47    7.22
   9   8 -19    9.10    7.98
  -9  -8  19   15.02    5.26
  -9  -8  19   24.47    4.95
   9   7 -19    0.65    7.07
   9   7 -19    1.71    5.99
  -9  -7  19    0.18    3.44
  -9  -7  19    5.25    3.35
   9   6 -19    4.33    5.80
   9   6 -19    3.16    6.65
  -9  -6  19    1.02    3.06
  -9  -6  19    0.17    3.20
   9   5 -19   -2.43    4.75
   9   5 -19   -2.31    6.93
  -9  -5  19    7.61    3.56
  -9  -5  19    4.60    2.95
   9   4 -19   17.80    6.96
   9   4 -19    6.20    5.21
  -9  -4  19    9.56    3.61
  -3   9 -19   -0.29    4.86
   9   3 -19    1.53    6.35
   9   3 -19   -1.12    4.10
  -3   9 -19    2.36    4.15
  -9  -3  19    5.91    2.59
   3  -9  19    0.69    2.67
   3  -9  19   -0.14    2.33
  -2   9 -19    4.38    5.11
   9   2 -19    0.18    3.65
  -2   9 -19    0.91    4.11
   2  -9  19    1.69    2.76
   2  -9  19   -0.14    2.40
  -1   9 -19    0.59    5.36
   9   1 -19    4.91    3.81
  -1   9 -19    2.83    4.30
   1  -9  19    4.92    2.78
   1  -9  19    2.40    3.01
   0   9 -19   10.42    4.75
   0  -9  19    3.91    3.15
   9   0  19    4.79    3.95
   9  -1  19    3.23    4.06
   2   9 -19    0.30    5.68
  -2  -9  19    1.51    2.94
   3   9 -19   -3.95    5.83
   3   9 -19   -2.65    4.90
  -3  -9  19   -0.63    2.79
  -3  -9  19    1.57    3.11
   4   9 -19    4.22    6.23
   4   9 -19    4.02    5.25
  -4  -9  19    1.32    3.05
  -4  -9  19    6.31    3.46
   5   9 -19    1.33    5.16
   5   9 -19    0.93    6.06
  -5  -9  19    0.67    3.24
  -5  -9  19    8.34    3.44
   6   9 -19   -5.87    5.45
  -6  -9  19    2.10    3.27
  -6  -9  19    3.93    3.64
   7   9 -19   -2.99    6.74
   7   9 -19   -3.92    5.81
  -7  -9  19    0.18    3.58
  -7  -9  19    0.66    3.28
   8   9 -19    7.26    7.26
   8   9 -19    7.65    7.10
  -8  -9  19    9.20    4.44
  -8  -9  19   10.99    4.50
   9   9 -19    0.72    6.92
   9   9 -19    3.95    6.93
  -9  -9  19    0.88    3.93
  -9  -9  19   -9.77    4.00
  10   9 -19    3.03    7.36
  10   9 -19    9.05    7.67
 -10  -9  19    3.34    3.98
 -10  -9  19    0.22    3.92
  10   8 -19  -22.67    7.67
  10   8 -19   -9.01    7.32
 -10  -8  19   -0.20    3.78
 -10  -8  19    1.72    3.69
  10   7 -19   10.52    7.03
  10   7 -19    8.66    7.66
 -10  -7  19    6.98    4.55
 -10  -7  19   12.99    4.28
  10   6 -19   -2.42    5.97
  10   6 -19   14.26    7.32
 -10  -6  19    0.17    3.26
 -10  -6  19    1.69    3.32
  10   5 -19   -3.82    4.99
  10   5 -19    5.40    7.11
 -10  -5  19    1.17    3.52
 -10  -5  19   -4.40    3.20
  10   4 -19  -10.30    6.63
  10   4 -19    1.74    4.93
 -10  -4  19   -2.13    3.13
 -10  -4  19    0.28    3.06
  10   3 -19    1.21    4.60
  -3  10 -19    0.13    4.27
  10   3 -19    2.06    6.51
 -10  -3  19    0.14    2.94
  -2  10 -19    1.59    4.43
  10   2 -19   -4.88    6.59
  10   2 -19    7.91    4.39
   2 -10  19    7.24    2.97
 -10  -2  19   -0.30    3.02
  10   1 -19  -23.88    8.08
  10   1 -19    5.62    4.68
 -10  -1  19   11.92    3.59
   0  10 -19   -0.34    5.74
  10   0 -19    4.89    4.47
  10   0  19   13.48    4.43
   1  10 -19   14.62    6.99
 -10   1 -19    0.57    8.50
   1  10 -19   34.43    5.69
  -1 -10  19    5.15    4.33
  10  -1  19   18.85    5.77
   2  10 -19   -5.93    6.16
   2  10 -19    8.77    4.59
  10  -2  19    1.28    4.94
  -2 -10  19    0.30    3.42
  -2 -10  19    2.60    3.04
   3  10 -19    2.14    6.38
   3  10 -19    0.46    4.67
  -3 -10  19   -0.35    3.13
  -3 -10  19    0.60    3.12
   4  10 -19   -0.94    4.85
   4  10 -19   -1.10    6.49
  -4 -10  19  -10.75    3.50
  -4 -10  19   -1.55    3.40
   5  10 -19   -2.93    6.61
   5  10 -19    2.67    5.24
  -5 -10  19    1.44    3.38
  -5 -10  19    5.51    3.70
   6  10 -19    7.11    5.47
   6  10 -19   -4.15    6.94
  -6 -10  19    3.97    3.60
  -6 -10  19    3.17    3.68
   7  10 -19    0.75    6.11
   7  10 -19   11.71    7.59
  -7 -10  19   15.05    4.36
   8  10 -19   -7.70    7.44
   8  10 -19   -9.92    6.31
  -8 -10  19   -3.26    3.98
  -8 -10  19    0.43    4.20
   9  10 -19    0.43    6.73
   9  10 -19    0.85    7.58
  -9 -10  19    2.50    4.16
  -9 -10  19    0.19    3.97
  10  10 -19    8.65    7.33
  10  10 -19   -5.92    8.21
 -10 -10  19   -4.34    4.30
 -10 -10  19    8.34    4.28
  11  10 -19   11.01    9.30
  11  10 -19    0.26    7.81
 -11 -10  19    4.15    4.46
 -11 -10  19    0.50    4.40
  11   9 -19    1.52    7.60
  11   9 -19    3.74    8.12
 -11  -9  19   -2.89    4.29
 -11  -9  19   -4.33    4.32
  11   8 -19   15.63    7.83
  11   8 -19    9.86    7.92
 -11  -8  19    3.34    4.58
 -11  -8  19   10.31    4.30
  11   7 -19   24.73    8.71
  11   7 -19   51.98    9.45
 -11  -7  19    1.97    5.61
 -11  -7  19   17.73    5.47
  11   6 -19    1.77    6.40
  11   6 -19    0.24    7.34
 -11  -6  19    5.72    3.82
 -11  -6  19    0.32    3.49
  11   5 -19   -4.29    5.60
  11   5 -19   -0.24    7.17
 -11  -5  19   -6.35    3.42
 -11  -5  19   -0.53    3.41
  11   4 -19   -2.38    6.96
  11   4 -19    8.25    5.33
 -11  -4  19    0.90    3.30
 -11  -4  19    0.17    3.36
  11   3 -19    1.98    5.03
  11   3 -19   11.53    7.19
 -11  -3  19    3.65    3.26
  11   2 -19   -2.09    7.26
  11   2 -19   -0.20    4.78
 -11  -2  19   -0.63    3.10
  11   1 -19   -4.18    4.33
 -11  -1  19    2.41    2.97
  11   1  19    6.78    4.56
  11   0 -19   10.11    5.62
   0  11 -19   17.14    6.29
  11   0  19   19.07    5.91
   1  11 -19   -5.04    4.80
  -1 -11  19   -0.20    3.34
   2  11 -19   12.68    6.59
   2  11 -19    7.52    4.83
  -2 -11  19    0.21    3.52
   3  11 -19    2.15    4.77
   3  11 -19   -2.85    6.70
  -3 -11  19    0.62    3.69
   4  11 -19   11.67    7.08
   4  11 -19  -13.54    4.92
  -4 -11  19   -5.56    3.70
   5  11 -19    0.50    5.12
   5  11 -19  -13.47    6.96
  -5 -11  19   -1.52    3.52
  -5 -11  19    4.89    3.78
   6  11 -19   -3.03    7.21
   6  11 -19   -0.17    5.26
  -6 -11  19    0.18    3.70
  -6 -11  19   -3.93    4.21
   7  11 -19   13.31    6.80
  -7 -11  19    7.85    4.84
   8  11 -19   18.95    6.77
   8  11 -19    0.93    7.97
  -8 -11  19    5.54    4.64
  -8 -11  19    3.25    4.41
   9  11 -19    1.51    6.43
   9  11 -19    3.38    7.96
  -9 -11  19   -6.22    4.21
  -9 -11  19   -2.90    4.67
  10  11 -19   11.09    8.69
  10  11 -19    0.24    7.13
 -10 -11  19   -6.63    4.90
 -10 -11  19    0.21    4.50
  11  11 -19   32.23   10.57
  11  11 -19    1.51    8.55
 -11 -11  19    8.16    5.80
 -11 -11  19   21.16    6.45
  12  11 -19   -0.28    8.60
  12  11 -19    3.38    9.58
 -12 -11  19    2.74    5.16
 -12 -11  19    0.23    4.70
 -12 -10  19   29.27    8.15
 -12 -10  19   10.98    7.95
  12   9 -19   12.07    8.67
  12   9 -19   -3.96    8.20
 -12  -9  19    1.46    4.54
 -12  -9  19    1.83    4.24
  12   8 -19    0.27    8.22
  12   8 -19  -10.38    8.20
 -12  -8  19   -3.59    4.14
 -12  -8  19   -5.14    4.33
  12   7 -19    9.48    8.04
  12   7 -19    4.81    7.05
 -12  -7  19    3.94    3.96
 -12  -7  19    2.53    4.37
  12   6 -19    5.33    6.90
  12   6 -19   10.82    7.83
 -12  -6  19    4.76    3.82
 -12  -6  19    6.70    4.10
  12   5 -19    5.58    6.92
  12   5 -19   29.93    9.00
 -12  -5  19    9.11    5.02
 -12  -5  19   19.35    4.64
  12   4 -19    5.68    7.46
  12   4 -19    1.27    5.81
 -12  -4  19    0.72    3.54
 -12  -4  19   -8.43    3.43
  12   3 -19    0.24    5.54
  12   3 -19    6.41    7.52
 -12  -3  19   -3.93    3.40
  12   2 -19    0.54    7.82
  12   2 -19    4.98    5.03
 -12  -2  19   -9.39    3.17
  12   1 -19   19.01    6.13
  12   1  19    0.51    5.61
 -12  -1  19   19.44    4.63
  12   0 -19    1.55    4.68
  12   0  19  -10.17    5.13
 -12   1 -19    6.64    9.92
  12  -1  19    6.62    6.34
  12  -1  19   18.63    6.58
 -12   2 -19    3.00    9.02
  12  -2  19    4.22    5.81
  12  -2  19   -0.31    5.63
   3  12 -19    0.32    4.83
   4  12 -19    0.82    5.09
   5  12 -19    0.17    5.60
  -5 -12  19    5.92    4.88
   6  12 -19    1.23    5.26
  -6 -12  19   -4.48    4.84
   7  12 -19   -1.32    5.63
  -7 -12  19    0.19    3.96
   8  12 -19   -3.39    6.11
  -8 -12  19   -0.29    4.91
  -8 -12  19   -0.20    4.18
   9  12 -19   -5.64    6.57
  -9 -12  19    0.32    5.37
  -9 -12  19    2.97    4.69
  10  12 -19   14.30   10.10
 -10 -12  19   11.62    8.81
 -10 -12  19   33.90    8.14
  11  12 -19    0.25    7.68
 -11 -12  19    2.78    5.84
 -11 -12  19    5.22    5.16
  12  12 -19   -1.97    9.01
 -12 -12  19  -15.09    5.79
  13  12 -19  -15.18    9.98
 -13 -12  19   -9.74    6.00
  13  11 -19   -5.92    9.99
 -13 -11  19   -5.16    5.25
 -13 -11  19    1.69    5.68
  13  10 -19    1.50    9.52
  13  10 -19   -0.54    9.51
 -13 -10  19    2.96    4.92
 -13 -10  19    1.13    4.86
  13   9 -19  -28.49   10.88
 -13  -9  19  -15.01    6.17
  13   8 -19  -10.04    9.10
  13   8 -19   -7.98    8.83
 -13  -8  19   -1.64    4.53
 -13  -8  19    4.60    4.34
  13   7 -19    3.00    8.30
  13   7 -19   -9.84    8.97
 -13  -7  19   -0.19    4.04
 -13  -7  19    0.22    4.02
  13   6 -19    5.63    8.27
  13   6 -19   -8.91    7.45
 -13  -6  19    6.93    3.94
 -13  -6  19    0.21    3.93
  13   5 -19  -12.58    8.02
  13   5 -19   -0.93    6.72
 -13  -5  19    4.94    3.61
 -13  -5  19    3.94    4.10
  13   4 -19    4.99    6.29
  13   4 -19   -4.97    8.01
 -13  -4  19   -2.85    3.67
 -13  -4  19   -0.75    3.90
  13   3 -19    3.54    7.82
  13   3 -19   -1.01    5.68
 -13  -3  19    1.03    3.41
 -13  -3  19   -5.90    3.70
  13   2 -19    3.39    8.24
  13   2 -19   10.13    5.99
 -13  -2  19    4.57    3.65
  13   1 -19    1.10    5.76
  13   1  19    2.68    5.38
 -13   0 -19   -8.48   11.06
  13   0 -19    9.81    6.49
  13   0  19   38.30    7.08
 -13   1 -19   25.64   11.69
  13  -1  19   34.22    8.73
 -13   2 -19    0.64    9.80
 -13   2 -19    7.67   15.77
  13  -2  19  -24.07    6.79
  13  -3  19   -0.22    6.25
  14  11 -19    1.35   10.38
 -14 -11  19   -6.16    5.61
  14  10 -19   -8.47   10.23
  14  10 -19  -14.35   10.43
 -14 -10  19    4.44    5.31
 -14 -10  19  -12.95    5.32
  14   9 -19   -0.51   10.14
  14   9 -19   -0.31    9.89
 -14  -9  19    0.22    4.96
 -14  -9  19    0.27    4.94
  14   8 -19   -1.78    8.73
  14   8 -19   -7.99    9.34
 -14  -8  19    2.30    4.41
 -14  -8  19    3.03    4.76
  14   7 -19   63.68   19.11
 -14  -7  19   78.87   16.28
  14   6 -19   -1.81    7.96
  14   6 -19    3.38    8.60
 -14  -6  19    4.21    4.55
 -14  -6  19    1.12    3.98
  14   5 -19    4.26    7.56
  14   5 -19    0.28    8.16
 -14  -5  19  -10.58    3.98
 -14  -5  19   -7.04    4.42
  14   4 -19    2.35    6.65
  14   4 -19    0.28    8.11
 -14  -4  19    1.19    3.83
 -14  -4  19    4.64    3.56
  14   3 -19    5.49    6.17
  14   3 -19   -2.89    8.24
 -14  -3  19   -2.10    3.92
 -14  -3  19   -1.65    3.82
  14   2 -19    4.08    8.12
  14   2 -19   -1.80    5.96
 -14  -2  19    6.64    3.60
  14   1 -19    9.52    5.89
  14   1  19   13.13    6.25
 -14   0 -19    5.88   11.28
  14   0 -19    5.83    5.54
  14   0  19    1.09    6.07
 -14   1 -19   -5.87   10.85
  14  -1  19  -20.70    6.67
  14  -1  19   23.34    7.00
 -14   2 -19   10.88   16.64
 -14   2 -19   -4.58   10.94
  14  -2  19    1.95    7.13
  14  -2  19   11.56    6.96
  14  -3  19    0.24    6.86
  14  -3  19   -3.15    6.96
  15  10 -19   -7.41   10.48
  15  10 -19    4.84   10.53
 -15 -10  19    9.30    5.57
 -15 -10  19    3.90    5.52
  15   9 -19   -9.75   10.32
  15   9 -19    7.23   10.30
 -15  -9  19   -5.96    5.26
 -15  -9  19    7.27    5.07
  15   8 -19   -8.35   10.24
  15   8 -19    3.59   10.25
 -15  -8  19    9.36    5.32
 -15  -8  19   19.87    5.98
  15   7 -19    6.45    9.44
  15   7 -19   20.03    9.52
 -15  -7  19   -0.20    4.44
 -15  -7  19    0.24    4.32
 -15  -6  19    1.17    4.81
 -15  -6  19    0.19    3.87
 -15  -5  19   -1.75    4.50
  15   1  19   -8.28    6.69
 -15   0 -19    5.98   12.23
  15   0  19   -0.24    6.77
 -15   1 -19   11.67   12.48
  15  -1  19    0.26    7.27
  15  -1  19   -0.44    7.42
 -15   2 -19    2.68   18.77
 -15   2 -19    2.35   11.90
  15  -2  19  -14.76    7.86
  15  -2  19   -5.37    7.83
 -15   3 -19    7.41   18.18
  16   1  19  -23.40    7.61
 -16   0 -19   -4.56   13.93
  16   0  19   -5.77    8.01
 -16   1 -19   -7.18   13.68
 -16   1 -19    5.11   20.44
  16  -1  19    6.76    8.46
  16  -1  19  -13.28    7.93
 -16   2 -19   23.04   13.53
 -16   2 -19   14.15   20.65
  16  -2  19    1.15    8.47
  16  -2  19   10.54    8.28
 -16   3 -19    3.16   12.55
 -16   3 -19   10.70   20.21
  16  -3  19    3.42    8.68
  16  -3  19    9.88    8.41
  17   1  19    0.29    8.44
 -17   0 -19  -25.18   15.79
  17   0  19    9.72    8.62
 -17   1 -19   28.06   22.85
 -17   1 -19  -17.51   15.72
  17  -1  19  -11.75    9.42
  17  -1  19  -20.02    9.35
 -17   2 -19   22.12   22.38
 -17   2 -19   -3.02   15.28
  17  -2  19    0.76    9.13
  17  -2  19   -8.98    8.76
 -17   3 -19  -20.38   21.79
 -17   3 -19    0.44   13.26
  17  -3  19   -3.29    9.33
  17  -3  19    5.77    8.88
  17  -4  19    6.12    9.42
 -18   1 -19   17.68   17.95
  18  -1  19   19.24   11.31
 -18   2 -19   28.58   17.12
 -18   2 -19   15.54   20.73
  18  -2  19    3.44   10.52
 -18   3 -19    4.78   22.76
 -18   3 -19   -0.49   14.67
  18  -3  19    4.47    9.95
   0   1 -20   -1.69    2.65
   1   1 -20    1.11    2.62
  -1   1 -20   -0.48    2.44
  -1  -1  20    2.39    1.76
  -1   2 -20   -2.88    4.83
  -1   2 -20   -0.26    3.02
   2   1 -20   -1.52    2.65
  -2  -1  20    0.96    1.87
   1  -2  20    0.78    1.78
   0   2 -20   -0.52    2.80
   0   2 -20   -0.18    5.09
   0  -2  20   -0.91    1.82
  -2   1 -20    0.94    2.51
   1   2 -20   -2.61    2.82
   1   2 -20   -3.95    5.33
  -1  -2  20   -0.83    1.93
  -2   2 -20    5.10    5.72
  -2   2 -20    8.92    4.22
   2   2 -20    3.40    6.08
   2   2 -20   15.38    4.04
  -2  -2  20   16.55    3.25
   2  -2  20    9.25    3.10
   3   2 -20   -3.50    5.92
  -2   3 -20    4.01    3.39
  -2   3 -20    2.61    4.67
   3   2 -20    3.46    3.03
   2  -3  20    3.61    1.95
  -3  -2  20    0.65    2.22
   3   1 -20   18.25    5.60
  -1   3 -20   17.18    5.98
  -1   3 -20   29.53    7.37
   1  -3  20   19.45    4.92
  -3  -1  20   21.50    4.98
   0   3 -20    0.73    3.11
   0   3 -20   -1.96    4.47
   0  -3  20    0.94    1.90
   1   3 -20   28.81    7.64
   1   3 -20   26.48    5.89
  -3   1 -20    4.54    5.77
  -1  -3  20   23.41    4.91
   2   3 -20    4.66    3.34
   2   3 -20   -3.64    5.43
  -3   2 -20    1.30    3.12
  -2  -3  20    0.51    2.20
   3  -2  20    2.90    1.73
   3   3 -20   31.93   10.30
  -3   3 -20   35.56   11.72
  -3   3 -20   32.54   12.92
   3   3 -20   42.71   11.75
   3  -3  20   38.92    9.79
  -3  -3  20   55.11    9.22
   4   3 -20   -8.63    5.34
  -3   4 -20    0.14    4.36
   4   3 -20    0.93    3.28
  -3   4 -20    3.35    3.51
   3  -4  20    1.54    1.87
  -4  -3  20    0.44    2.16
  -2   4 -20   39.27    8.60
   4   2 -20   19.94    7.42
  -2   4 -20   29.56    8.98
   4   2 -20   32.23    9.62
  -4  -2  20   26.69    6.70
   2  -4  20   25.42    6.72
   4   1 -20    0.21    5.63
   4   1 -20    1.63    2.88
  -1   4 -20    1.64    4.31
  -1   4 -20    1.10    3.56
  -4  -1  20    0.12    2.12
   1  -4  20    0.18    1.84
   0   4 -20   30.33    7.03
   0   4 -20   32.08    7.89
   0  -4  20   15.55    5.55
   1   4 -20   -2.84    4.87
   1   4 -20    2.57    3.53
  -4   1 -20    1.39    2.79
  -1  -4  20    0.88    1.92
  -4   2 -20   26.61    9.24
   2   4 -20   28.65    8.33
   2   4 -20   43.50    9.45
  -2  -4  20   29.22    7.01
  -4   3 -20    1.53    3.31
  -4   3 -20   -0.48    4.62
   3   4 -20    3.44    5.26
   3   4 -20    0.83    3.77
  -3  -4  20    0.74    2.18
   4   4 -20    4.30    5.89
   4   4 -20   10.00    4.50
  -4  -4  20    7.44    2.81
   5   4 -20    6.36    6.14
  -5  -4  20   13.27    3.45
   5   3 -20   31.34   11.23
   5   3 -20   49.85    9.54
  -3   5 -20   44.13   10.23
  -3   5 -20   26.67   11.08
  -5  -3  20   40.41    8.60
   3  -5  20   33.11    8.83
   3  -5  20   31.09    8.66
  -2   5 -20   33.53    9.13
  -2   5 -20   28.54    9.85
   5   2 -20   26.94   10.62
   2  -5  20   28.11    7.50
   2  -5  20   38.00    7.89
  -5  -2  20   31.99    7.58
  -1   5 -20   44.22   11.87
   5   1 -20   25.18   12.75
  -1   5 -20   37.85   10.98
  -5  -1  20   33.75    9.28
   1  -5  20   40.39    9.21
   1  -5  20   47.30    9.85
   0   5 -20    1.49    4.91
   0   5 -20    0.87    3.96
   0  -5  20   -1.71    2.24
   0  -5  20   -0.86    2.16
   1   5 -20   61.07   12.41
   1   5 -20   36.46   11.17
  -1  -5  20   42.15    9.63
  -1  -5  20   31.66   10.42
   2   5 -20   35.35    8.98
   2   5 -20   39.02    9.96
  -2  -5  20   29.19    7.52
  -2  -5  20   25.58    8.22
   3   5 -20   34.94    9.87
   3   5 -20   46.42   11.24
  -3  -5  20   33.96    8.55
  -3  -5  20   33.44    9.35
   4   5 -20    4.17    5.80
  -4  -5  20    6.99    2.94
  -3   6 -20   16.54    7.91
  -3   6 -20   25.13    7.11
   3  -6  20   21.95    5.71
   3  -6  20   22.55    5.67
  -2   6 -20   11.54    5.35
   6   2 -20    9.57    7.11
  -2   6 -20   13.85    5.71
   2  -6  20   11.55    3.58
  -6  -2  20    9.49    3.82
   2  -6  20   14.51    3.69
  -1   6 -20   19.05    5.08
   6   1 -20    5.73    6.81
  -1   6 -20    8.38    4.73
  -6  -1  20   10.42    3.08
   1  -6  20    6.14    2.92
   1  -6  20    8.93    3.01
   0   6 -20    7.58    4.72
   0   6 -20    1.93    4.21
   0  -6  20    1.95    2.50
   0  -6  20    2.73    2.32
   1   6 -20    6.34    4.63
   1   6 -20    5.50    5.17
  -1  -6  20    7.21    2.91
  -1  -6  20    6.67    2.99
   2   6 -20   24.41    6.55
   2   6 -20   15.18    5.69
  -2  -6  20   17.64    4.21
  -2  -6  20   10.94    4.35
   3   6 -20   35.97    9.01
  -3  -6  20   26.78    6.77
   5   6 -20    4.20    5.01
  -5  -6  20    9.27    3.37
   6   6 -20    0.58    6.06
  -6  -6  20    3.31    2.83
   7   6 -20    2.11    5.11
   7   6 -20    2.43    7.26
  -7  -6  20    0.97    3.01
  -7  -6  20    0.63    3.46
   7   5 -20    1.82    6.11
   7   5 -20    0.83    4.60
  -7  -5  20    0.31    3.08
  -7  -5  20    6.47    2.84
   7   4 -20    2.13    5.37
   7   4 -20   36.37    6.87
  -7  -4  20   13.74    3.98
   7   3 -20   -3.84    3.82
  -3   7 -20    3.49    4.20
  -3   7 -20    2.82    4.34
   3  -7  20    0.10    1.97
   3  -7  20   -0.09    2.10
  -2   7 -20    9.22    5.67
  -2   7 -20   24.40    6.16
   2  -7  20    8.98    3.89
   2  -7  20   18.29    4.12
  -1   7 -20    2.42    4.83
  -1   7 -20    4.37    4.56
   1  -7  20    2.50    2.37
   1  -7  20   -0.81    2.34
   0   7 -20   -3.84    4.80
   0   7 -20    2.67    4.79
   0  -7  20   -2.67    2.35
   0  -7  20    3.40    2.37
   1   7 -20    2.76    4.72
   1   7 -20    1.54    4.88
  -1  -7  20    2.30    2.55
  -1  -7  20    4.02    2.48
   2   7 -20   11.41    6.34
  -2  -7  20   13.40    4.15
   4   7 -20    3.86    5.88
  -4  -7  20    9.54    3.75
   5   7 -20    0.18    5.84
   5   7 -20   -7.20    5.61
  -5  -7  20    1.36    3.09
  -5  -7  20    1.35    2.93
   6   7 -20    3.28    6.71
  -6  -7  20    5.61    3.42
   7   7 -20   11.43    7.13
  -7  -7  20   38.32    7.23
  -7  -7  20    1.76    5.30
   8   7 -20   -5.82    5.90
  -8  -7  20   -5.63    4.06
  -8  -7  20    6.59    3.38
   8   6 -20    5.62    5.52
   8   6 -20   15.64    7.57
  -8  -6  20    6.45    3.97
  -8  -6  20    9.91    3.58
   8   5 -20   -8.49    7.18
   8   5 -20    1.33    4.96
  -8  -5  20    2.51    3.02
  -8  -5  20   -5.26    3.42
   8   4 -20    4.45    4.60
   8   4 -20   -2.17    6.88
  -8  -4  20   -1.22    2.85
  -3   8 -20    1.72    4.70
  -3   8 -20    2.12    4.63
   8   3 -20    2.88    6.45
   8   3 -20    1.86    4.46
  -8  -3  20    4.31    3.07
  -2   8 -20   -3.18    5.00
   8   2 -20   26.07    6.52
  -2   8 -20   -3.13    4.47
   8   2 -20   -0.87    3.86
   2  -8  20   -2.64    2.68
  -8  -2  20   13.13    2.54
   2  -8  20   -0.49    2.19
   8   1 -20    1.65    3.62
  -1   8 -20    3.86    4.62
  -1   8 -20    2.79    4.97
   1  -8  20    4.32    2.77
   1  -8  20    3.14    2.34
   0   8 -20   -4.47    4.68
   0   8 -20   20.64    5.20
   0  -8  20   -0.73    2.80
   8   0  20   -1.47    3.59
   0  -8  20    3.90    2.56
   1   8 -20   -0.15    4.92
   3   8 -20    4.84    5.67
  -3  -8  20    2.40    3.25
  -3  -8  20   12.33    3.48
   4   8 -20    3.48    5.61
   4   8 -20    6.73    5.54
  -4  -8  20    0.56    3.11
  -4  -8  20   -1.89    3.15
   5   8 -20   -7.18    6.17
   5   8 -20    6.33    6.17
  -5  -8  20   -2.14    3.37
  -5  -8  20   -0.15    3.14
   6   8 -20    6.71    6.33
  -6  -8  20    6.20    3.76
  -6  -8  20    1.20    3.57
   7   8 -20   -5.60    6.17
   7   8 -20   10.47    6.79
  -7  -8  20    3.89    3.51
   8   8 -20   17.64    8.34
   8   8 -20   15.82    7.80
  -8  -8  20   17.51    5.21
  -8  -8  20   15.04    5.66
   9   8 -20    7.17    7.36
   9   8 -20   -3.31    6.80
  -9  -8  20   -7.14    3.67
  -9  -8  20    7.86    3.86
   9   7 -20   41.54    8.81
   9   7 -20   29.83   10.02
  -9  -7  20   18.50    7.12
  -9  -7  20   26.72    6.81
   9   6 -20   13.14    7.42
   9   6 -20    2.56    6.02
  -9  -6  20    6.30    4.16
  -9  -6  20    7.65    3.61
   9   5 -20    2.32    5.28
   9   5 -20  -21.07    7.31
  -9  -5  20   -0.15    2.90
  -9  -5  20   -5.84    3.42
   9   4 -20    3.17    6.70
   9   4 -20    1.09    4.95
  -9  -4  20    1.14    3.00
  -3   9 -20    1.17    5.36
   9   3 -20   -5.11    6.86
   9   3 -20    1.96    4.25
  -3   9 -20   -3.28    4.73
  -9  -3  20   -3.46    3.01
   9   2 -20    5.38    4.12
  -2   9 -20    6.21    5.32
   9   2 -20    4.55    7.38
  -2   9 -20   -1.26    4.70
  -9  -2  20   -2.98    2.98
   2  -9  20   -1.12    3.02
   2  -9  20    0.13    2.59
   9   1 -20   -0.69    4.11
   9   1 -20   13.21    7.35
  -1   9 -20    2.48    4.94
   1  -9  20   10.93    3.40
  -9  -1  20    5.52    3.09
   9   0  20    0.13    3.87
   1   9 -20    3.93    5.77
  -1  -9  20    1.66    3.02
   2   9 -20    2.40    4.91
   2   9 -20   -0.30    5.84
  -2  -9  20   -2.30    3.17
  -2  -9  20    2.54    3.07
   3   9 -20   -9.27    5.31
   3   9 -20   -0.31    6.05
  -3  -9  20    3.70    3.33
  -3  -9  20    1.77    2.92
   4   9 -20    6.89    6.21
   4   9 -20    1.04    5.21
  -4  -9  20    0.67    3.23
  -4  -9  20    4.42    3.58
   5   9 -20    4.84    6.54
   5   9 -20   -0.36    5.68
  -5  -9  20   -2.12    3.25
  -5  -9  20   -0.16    3.33
   6   9 -20    9.65    7.19
   6   9 -20    1.54    6.45
  -6  -9  20   12.92    4.26
  -6  -9  20   15.44    4.23
   7   9 -20    0.80    8.09
  -7  -9  20   23.63    5.68
   8   9 -20    8.96    7.25
   8   9 -20    5.44    6.75
  -8  -9  20   10.96    3.94
  -8  -9  20   -1.41    3.87
   9   9 -20    0.46    7.56
   9   9 -20    0.37    7.65
  -9  -9  20    8.45    4.03
  -9  -9  20    3.43    4.11
  10   9 -20   -6.71    7.55
  10   9 -20   -9.82    8.20
 -10  -9  20   -6.99    4.14
 -10  -9  20   -6.42    4.11
  10   8 -20    5.49    7.94
  10   8 -20    4.51    7.34
 -10  -8  20    8.01    4.30
 -10  -8  20    2.68    4.12
  10   7 -20  -16.84    8.27
  10   7 -20   -6.60    6.62
 -10  -7  20   -9.14    3.96
 -10  -7  20  -10.14    4.33
  10   6 -20    8.16    6.05
  10   6 -20  -20.91    7.40
 -10  -6  20    5.70    3.61
 -10  -6  20    3.69    3.43
  10   5 -20    2.90    7.17
  10   5 -20    4.01    5.58
 -10  -5  20   11.63    3.37
 -10  -5  20   -2.64    3.60
  10   4 -20    0.24    6.78
  10   4 -20   -3.43    5.29
 -10  -4  20   -1.21    3.16
  10   3 -20   -4.02    4.61
  10   3 -20    2.00    7.08
 -10  -3  20    1.37    2.94
  10   2 -20    0.99    4.49
  10   2 -20   17.97    7.81
 -10  -2  20    4.24    3.20
  10   1 -20   -2.60    4.16
  -1  10 -20    5.21    6.02
   1 -10  20   -0.17    2.78
 -10  -1  20   -8.26    2.93
   0  10 -20   20.35    8.93
   0  10 -20   40.40    8.26
   0 -10  20   18.60    6.64
   0 -10  20   16.62    6.09
   1  10 -20    0.35    5.92
   1  10 -20    0.95    4.87
  -1 -10  20   -1.65    3.14
  -1 -10  20    2.16    2.98
   2  10 -20    6.96    5.20
   2  10 -20    3.61    6.80
  -2 -10  20    3.38    3.61
  -2 -10  20    2.26    3.29
   3  10 -20    2.88    6.53
   3  10 -20   -0.17    4.98
  -3 -10  20   -6.73    3.25
  -3 -10  20   -0.79    3.51
   4  10 -20   -3.31    7.07
   4  10 -20    0.18    5.40
  -4 -10  20    3.33    3.44
  -4 -10  20    0.16    3.34
   5  10 -20    6.17    5.56
   5  10 -20   14.00    6.99
  -5 -10  20   -5.22    3.51
  -5 -10  20    2.00    3.87
   6  10 -20    0.78    6.92
   6  10 -20   -5.27    5.98
  -6 -10  20   -0.20    3.85
  -6 -10  20    4.14    3.74
   7  10 -20   -7.87    6.72
  -7 -10  20    0.18    3.96
   8  10 -20   12.41    7.52
   8  10 -20   20.48    8.09
  -8 -10  20    4.42    4.74
  -8 -10  20   17.21    4.76
   9  10 -20    0.23    7.14
   9  10 -20    0.44    8.17
  -9 -10  20    0.46    4.15
  -9 -10  20    0.58    4.11
  10  10 -20    0.25    7.61
  10  10 -20   14.64    9.42
 -10 -10  20    0.20    4.42
 -10 -10  20    7.76    4.66
  11  10 -20    2.89    8.50
  11  10 -20  -17.30    8.48
 -11 -10  20   -2.74    4.55
 -11 -10  20    0.52    4.95
  11   9 -20    5.38    8.29
  11   9 -20   -7.05    7.99
 -11  -9  20    1.44    4.43
 -11  -9  20    1.19    4.09
  11   8 -20    2.63    8.01
  11   8 -20    3.29    7.58
 -11  -8  20   -5.64    4.04
 -11  -8  20    0.22    4.32
  11   7 -20    0.26    7.82
  11   7 -20    8.94    7.12
 -11  -7  20   -2.67    3.79
 -11  -7  20   -5.01    4.10
  11   6 -20   -2.08    7.56
  11   6 -20   41.02    9.27
 -11  -6  20   26.83    5.63
  11   5 -20    6.52    7.87
  11   5 -20    4.76    5.72
 -11  -5  20    3.75    3.39
 -11  -5  20    0.56    3.66
  11   4 -20   -0.74    5.48
  11   4 -20  -14.57    7.69
 -11  -4  20    3.80    3.64
 -11  -4  20    5.11    3.36
  11   3 -20    8.08    7.72
  11   3 -20    5.10    5.30
 -11  -3  20    4.42    3.46
  11   2 -20   -3.78    4.85
  11   2 -20   -0.28    7.30
 -11  -2  20    0.17    3.22
  -1  11 -20   28.80    7.88
  11   1 -20   17.99    7.11
 -11  -1  20   24.05    6.17
   0  11 -20    0.31    4.89
  11   0  20   13.54    4.75
   0 -11  20   -2.62    3.44
   1  11 -20   25.53    8.11
   1  11 -20   14.13    7.19
  11  -1  20   17.47    7.37
  -1 -11  20   17.53    5.67
   2  11 -20    0.66    5.24
   2  11 -20   -0.41    6.85
  -2 -11  20    2.30    3.34
  -2 -11  20   -2.66    3.53
   3  11 -20   -0.41    6.59
   3  11 -20   -5.20    5.27
  -3 -11  20    0.85    3.83
  -3 -11  20    1.00    3.56
   4  11 -20   -4.64    5.17
   4  11 -20    1.27    7.14
  -4 -11  20    0.17    3.65
  -4 -11  20   -3.56    3.81
   5  11 -20   -6.19    5.61
   5  11 -20    1.30    7.27
  -5 -11  20    1.09    3.94
  -5 -11  20   -2.11    3.86
   6  11 -20    1.34    7.81
   6  11 -20   10.94    6.15
  -6 -11  20   -2.95    4.31
  -6 -11  20    0.18    4.32
   7  11 -20    4.87    6.30
  -7 -11  20    4.73    4.14
   8  11 -20   -7.04    6.47
   8  11 -20    4.30    8.51
  -8 -11  20    6.45    4.63
  -8 -11  20    5.13    4.41
   9  11 -20    3.93    7.14
   9  11 -20    2.49    8.77
  -9 -11  20    6.23    4.71
  -9 -11  20   14.68    4.93
  10  11 -20   -9.35    9.41
  10  11 -20    0.25    7.55
 -10 -11  20    1.90    5.11
 -10 -11  20    4.51    4.55
  11  11 -20   -1.63    9.58
  11  11 -20   20.13    8.65
 -11 -11  20    5.87    5.15
 -11 -11  20    5.71    5.52
  12  11 -20   -4.58    9.79
  12  11 -20    0.59    9.03
 -12 -11  20   -0.95    5.73
 -12 -11  20    1.43    4.92
  12  10 -20   -6.26    9.61
  12  10 -20   -0.29    8.90
 -12 -10  20    2.22    4.81
 -12 -10  20    0.27    5.17
 -12  -9  20  -15.56    5.85
  12   8 -20   22.77    9.08
  12   8 -20   21.18    8.76
 -12  -8  20    6.45    4.73
 -12  -8  20    2.97    4.77
  12   7 -20  -15.34    8.37
  12   7 -20    8.62    7.84
 -12  -7  20    0.19    4.06
 -12  -7  20    1.31    4.19
  12   6 -20   -7.59    8.66
  12   6 -20   11.46    7.20
 -12  -6  20    4.50    3.99
 -12  -6  20    2.50    3.93
  12   5 -20   -6.67    7.95
  12   5 -20    8.47    6.31
 -12  -5  20    0.20    3.97
 -12  -5  20   -4.46    3.75
  12   4 -20   -0.80    6.00
  12   4 -20  -26.64    8.34
 -12  -4  20   -5.47    4.12
 -12  -4  20   -6.08    3.82
  12   3 -20  -15.00    8.68
  12   3 -20    0.24    5.56
 -12  -3  20   -5.17    3.66
  12   2 -20   12.05    8.55
  -2  12 -20   16.47    6.03
  12   2 -20   14.54    5.91
 -12  -2  20    6.13    4.26
  12   1 -20    8.82    5.19
  -1  12 -20    2.27    5.30
   0  12 -20   23.94    6.40
  12   0  20   -2.93    6.07
 -12   1 -20   -2.05    9.09
   1  12 -20   -0.17    5.31
  12  -1  20   -4.21    5.56
   2  12 -20    1.34    5.44
   3  12 -20   -4.08    5.30
  -3 -12  20   -2.31    4.56
   4  12 -20   -6.76    5.32
  -4 -12  20    3.57    4.29
   5  12 -20    0.55    5.43
  -5 -12  20   -5.83    4.38
  -5 -12  20    0.75    3.77
   6  12 -20   13.34    5.94
  -6 -12  20   -1.54    4.08
  -6 -12  20    0.28    4.78
   7  12 -20    6.12    6.38
  -7 -12  20    5.80    4.42
   8  12 -20    7.71    6.98
  -8 -12  20    0.30    5.15
  -8 -12  20    7.12    4.77
   9  12 -20   -7.47    7.66
  10  12 -20    0.25    7.54
 -10 -12  20   -5.58    5.61
 -10 -12  20    0.23    5.11
  11  12 -20    8.96    8.23
 -11 -12  20    0.24    5.14
 -11 -12  20   -1.03    5.99
  12  12 -20    7.46    9.05
 -12 -12  20   -0.25    5.52
  13  11 -20   -1.84   11.14
  13  11 -20   11.40   10.17
 -13 -11  20   -2.25    5.43
 -13 -11  20    8.95    5.90
  13  10 -20   17.62   10.41
  13  10 -20   33.68   10.29
 -13 -10  20    0.29    5.00
 -13 -10  20   -7.51    5.19
  13   9 -20   17.39    9.21
  13   9 -20    5.26    9.46
 -13  -9  20    2.68    5.03
 -13  -9  20   -8.41    4.85
  13   8 -20   -9.31   10.12
  13   7 -20   -2.65    8.01
  13   7 -20   -4.40    8.94
 -13  -7  20    1.39    4.54
 -13  -7  20    0.39    3.98
  13   6 -20   -0.35    7.52
  13   6 -20    5.16    8.94
 -13  -6  20   -0.19    3.96
 -13  -6  20    1.31    4.38
  13   5 -20   -6.77    8.28
  13   5 -20   -1.86    6.82
 -13  -5  20    1.99    3.66
 -13  -5  20   -3.94    4.29
  13   4 -20  -13.84    6.56
  13   4 -20  -19.17    8.53
 -13  -4  20    2.16    3.70
 -13  -4  20   -5.16    3.99
  13   3 -20    1.33    6.05
  13   3 -20  -13.58    8.20
 -13  -3  20    2.21    3.57
  13   2 -20   -3.46    5.70
  13   2 -20    2.97    8.07
 -13  -2  20   -3.87    3.67
  13   1 -20   -0.69    5.52
  13   0  20  -15.63    6.52
 -13   1 -20    1.12   10.08
  13  -1  20    8.32    6.29
  14  10 -20  -12.49   11.15
  14  10 -20    4.50   10.54
 -14 -10  20   -5.94    5.54
 -14 -10  20   -0.31    5.34
  14   9 -20    5.30   10.19
  14   9 -20   15.04   10.41
 -14  -9  20   -3.35    4.92
 -14  -9  20    0.93    4.97
  14   8 -20    4.27   10.13
  14   8 -20   12.97    9.32
 -14  -8  20    3.35    4.98
 -14  -8  20    0.22    4.74
  14   7 -20  -24.68    9.75
  14   7 -20   -0.83    8.45
 -14  -7  20    2.16    4.53
 -14  -7  20    5.98    4.42
  14   6 -20    8.73   14.34
 -14  -6  20   68.53   11.69
  14   5 -20   10.63    7.73
  14   5 -20    0.87    8.69
 -14  -5  20    1.52    3.96
 -14  -5  20   -6.07    4.42
  14   4 -20    4.73    8.75
  14   4 -20   -0.31    7.26
 -14  -4  20    0.62    4.41
 -14  -4  20    0.56    3.71
  14   3 -20    7.34    8.55
  14   3 -20    8.63    6.75
 -14  -3  20    2.02    4.13
 -14  -3  20   -0.38    3.86
  14   2 -20    6.46    7.01
 -14  -2  20   10.80    4.35
  14   1 -20    4.23    5.87
  14   0  20   -8.50    6.54
 -14   1 -20   -4.09   10.83
  14  -1  20   -1.41    6.86
  14  -1  20   -3.56    6.46
  14  -2  20   11.53    7.63
  15   9 -20  -13.27   10.95
  15   9 -20   -6.20   10.80
 -15  -9  20   -5.97    5.49
 -15  -9  20    2.93    5.54
  15   8 -20   -7.47   10.01
  15   8 -20    0.51   10.08
 -15  -8  20    0.23    5.10
 -15  -8  20   -3.04    4.90
  15   7 -20    3.63    9.58
  15   7 -20   10.18   10.34
 -15  -7  20   -0.25    4.58
 -15  -7  20    0.22    4.60
  15   6 -20   15.24    9.49
  15   6 -20    1.24    9.46
 -15  -6  20   14.29    5.13
 -15  -6  20    1.03    4.68
  15   5 -20   14.11    9.00
 -15  -5  20   -8.91    4.18
 -15  -5  20    5.22    4.37
 -15  -4  20   -1.00    4.03
 -15  -4  20   -2.39    4.34
 -15  -3  20    1.87    4.02
  15   1  20    3.89    7.35
 -15   1 -20   -2.70   14.16
  15  -1  20   -4.21    8.15
  15  -2  20  487.18   95.18
  15  -2  20  263.09  102.75
 -16   0 -20    2.07   13.15
  16   0  20   -7.74    7.67
 -16   1 -20   12.88   21.13
 -16   1 -20   21.90   13.99
  16  -1  20  -13.32    8.21
  16  -1  20   11.51    8.66
 -16   2 -20   11.59   21.77
 -16   2 -20   11.58   13.84
  16  -2  20    5.25    8.65
  16  -2  20   16.20    8.73
 -17   0 -20  -15.43   15.50
  17   0  20   15.99    8.85
 -17   1 -20   14.88   23.79
 -17   1 -20    9.93   15.89
  17  -1  20   13.89    9.93
  17  -1  20    6.77    9.66
 -17   2 -20   11.04   22.87
 -17   2 -20   -1.03   14.99
  17  -2  20   -8.33    9.19
  17  -2  20   -6.98    8.84
   0   1 -21    4.39    3.04
  -1   1 -21   -1.27    2.75
   1   1 -21   -1.71    2.92
  -1   2 -21    1.15    5.05
   2   1 -21    0.67    3.00
  -1   2 -21    3.30    3.18
   1  -2  21    0.73    1.91
  -2  -1  21    2.85    1.94
   0   2 -21   -0.97    3.12
   0   2 -21    0.79    5.47
   0  -2  21   -3.21    2.05
   1   2 -21   -1.81    5.83
   1   2 -21    1.82    3.05
  -2   1 -21    0.88    2.94
  -1  -2  21    3.54    2.09
   2   2 -21    1.86    5.51
   2   2 -21   -2.27    3.10
  -2   2 -21   -1.92    3.03
  -2  -2  21    1.36    2.08
   2  -2  21    0.92    1.74
   3   2 -21   20.66    8.07
  -2   3 -21   22.00    7.84
  -2   3 -21   17.22    6.56
   3   2 -21   14.96    5.84
  -3  -2  21   21.24    5.00
   2  -3  21   19.15    5.08
  -1   3 -21    0.54    5.06
   3   1 -21    3.95    2.95
  -1   3 -21    1.87    3.61
  -3  -1  21    0.59    2.18
   1  -3  21   -0.61    2.07
   0   3 -21   18.57    4.96
   0   3 -21   12.26    6.45
   0  -3  21   11.00    3.71
   1   3 -21    0.62    3.38
  -3   1 -21    1.74    2.82
   1   3 -21   -7.04    5.03
  -1  -3  21    1.06    2.14
  -3   2 -21   14.02    6.89
   2   3 -21   27.20    8.06
   2   3 -21   28.72    6.56
  -2  -3  21   25.97    5.55
   3   3 -21   -1.29    3.66
   3   3 -21    4.44    5.62
  -3   3 -21    0.94    3.71
  -3   3 -21   -0.71    4.96
  -3  -3  21   -0.23    2.24
   3  -3  21   -0.10    1.87
  -3   4 -21   26.26    7.05
   4   3 -21   15.20    7.82
  -3   4 -21   13.59    7.50
  -4  -3  21   21.28    5.12
   3  -4  21   18.31    5.22
   4   2 -21    7.00    3.31
   4   2 -21   -2.64    6.13
  -2   4 -21    3.68    4.05
  -2   4 -21    0.96    4.67
   2  -4  21    2.09    1.97
  -4  -2  21    2.09    2.31
  -1   4 -21   30.39    7.93
  -1   4 -21   30.40    7.58
   4   1 -21   23.48    8.79
  -4  -1  21   24.34    5.83
   1  -4  21   25.15    5.90
   0   4 -21   -1.37    3.86
   0   4 -21   -0.83    4.87
   0  -4  21    2.00    2.23
  -4   1 -21   10.60    7.24
   1   4 -21   40.57    8.17
   1   4 -21   30.26    7.11
  -1  -4  21   23.03    5.76
   2   4 -21    2.69    5.25
  -4   2 -21    0.56    3.50
   2   4 -21    0.17    3.84
  -2  -4  21   -0.11    2.30
   3   4 -21   29.83    8.34
   3   4 -21   27.73    6.79
  -3  -4  21   21.29    5.70
   4   4 -21   -0.19    5.95
  -4  -4  21   -0.12    2.32
  -3   5 -21   10.49    5.10
  -3   5 -21    4.71    5.84
   3  -5  21   13.40    3.25
   3  -5  21    9.26    3.37
  -2   5 -21   23.50    6.22
   5   2 -21   -0.23    8.12
  -2   5 -21   16.26    6.81
  -5  -2  21   -0.13    4.63
   2  -5  21   24.11    4.71
   2  -5  21   18.44    4.32
  -1   5 -21    3.87    4.90
  -1   5 -21    0.92    4.34
   5   1 -21    5.61    6.20
   1  -5  21    5.75    2.37
   1  -5  21    2.45    2.47
  -5  -1  21    3.83    2.43
   0   5 -21   22.88    8.64
   0   5 -21   32.70    7.79
   0  -5  21   32.40    6.84
   0  -5  21   17.80    6.19
   1   5 -21    5.95    5.23
   1   5 -21    2.06    4.21
  -1  -5  21    7.39    2.99
  -1  -5  21    5.00    2.55
   2   5 -21   17.94    7.59
   2   5 -21   29.60    6.82
  -2  -5  21   23.14    5.35
   3   5 -21   16.02    6.46
  -3  -5  21   15.01    3.99
   5   5 -21   -0.60    4.53
   5   5 -21   -0.20    5.62
  -5  -5  21   12.74    2.75
  -5  -5  21   -0.76    3.28
   6   5 -21    2.10    6.59
  -6  -5  21   -2.93    2.70
   6   4 -21   46.21    8.46
  -6  -4  21   20.20    5.54
  -3   6 -21    8.45    5.18
  -3   6 -21    8.54    4.85
   3  -6  21    8.23    3.01
   3  -6  21   11.00    3.03
  -2   6 -21   22.81    7.15
  -2   6 -21   28.46    7.63
   2  -6  21   14.89    5.51
   2  -6  21   21.90    5.42
  -1   6 -21    1.81    4.48
  -1   6 -21   10.29    5.13
   1  -6  21    8.22    2.80
   1  -6  21    2.83    2.50
   0   6 -21   -4.09    4.80
   0   6 -21    0.42    4.39
   0  -6  21   -1.38    2.22
   0  -6  21    0.50    2.38
   1   6 -21    0.66    5.44
   1   6 -21   14.69    4.89
  -1  -6  21    6.26    3.00
  -1  -6  21    5.68    2.90
   2   6 -21   37.39    8.44
  -2  -6  21   18.18    5.85
   4   6 -21    9.97    5.71
  -4  -6  21   14.13    4.13
  -4  -6  21   -0.13    3.44
   5   6 -21    1.00    6.17
   5   6 -21   -3.11    5.18
  -5  -6  21    1.06    3.11
  -5  -6  21    4.90    2.75
   6   6 -21   -2.30    6.80
  -6  -6  21   -0.42    3.17
  -6  -6  21    0.48    3.02
   7   6 -21    3.70    6.92
   7   6 -21    6.40    5.59
  -7  -6  21    3.64    3.28
  -7  -6  21    7.21    3.59
   7   5 -21    0.22    7.00
   7   5 -21    3.31    4.87
  -7  -5  21   -3.08    3.16
  -7  -5  21    1.96    3.18
   7   4 -21    1.59    4.56
   7   4 -21    0.44    6.58
  -7  -4  21   -2.45    2.72
   7   3 -21    2.77    4.19
   7   3 -21   -4.30    6.25
  -3   7 -21    0.66    4.45
  -3   7 -21    4.68    4.64
  -7  -3  21    0.69    2.77
   7   2 -21    3.61    3.76
  -2   7 -21   -4.83    4.69
  -2   7 -21   -2.48    4.87
   7   2 -21   11.84    6.60
   2  -7  21    2.88    2.47
  -7  -2  21    9.76    2.79
   2  -7  21    1.43    2.38
  -1   7 -21    4.37    5.00
  -1   7 -21    0.62    5.22
   7   1 -21   -0.25    5.47
   7   1 -21   -0.66    3.57
   1  -7  21    3.29    2.32
  -7  -1  21   -0.14    1.82
   1  -7  21    4.21    2.44
   0   7 -21    3.80    5.20
   0   7 -21    5.25    5.28
   0  -7  21    2.71    2.70
   0  -7  21    3.64    2.59
   1   7 -21    0.17    5.21
  -1  -7  21    1.67    2.74
   3   7 -21    4.24    5.62
   3   7 -21   -0.18    5.23
  -3  -7  21    3.83    3.16
  -3  -7  21   13.08    2.94
   4   7 -21    0.19    6.03
   4   7 -21   -5.63    6.73
  -4  -7  21   -4.58    3.64
  -4  -7  21   -3.23    3.18
   5   7 -21   -5.03    7.26
   5   7 -21  -16.32    6.80
  -5  -7  21    0.96    3.43
  -5  -7  21   -6.73    3.70
   6   7 -21    1.35    5.78
   6   7 -21    9.34    7.03
  -6  -7  21    7.61    3.44
  -6  -7  21    0.33    3.56
   7   7 -21    2.82    7.15
   7   7 -21    5.59    6.08
  -7  -7  21   -6.73    3.37
   8   7 -21   11.62    6.48
   8   7 -21    7.21    7.68
  -8  -7  21    8.05    4.34
  -8  -7  21    7.69    3.92
   8   6 -21    6.68    5.60
   8   6 -21    2.80    7.58
  -8  -6  21   -0.15    3.45
  -8  -6  21    0.18    3.74
   8   5 -21   -7.75    6.98
   8   5 -21    2.28    5.01
  -8  -5  21    2.51    3.09
  -8  -5  21    1.86    3.18
   8   4 -21   -1.49    4.66
   8   4 -21    1.60    6.71
  -8  -4  21   -3.60    3.00
   8   3 -21    2.37    4.57
   8   3 -21    0.73    7.18
  -8  -3  21   -2.32    2.81
   8   2 -21    7.46    7.74
  -2   8 -21    8.57    6.05
   8   2 -21    8.08    4.83
  -2   8 -21   11.32    5.97
   2  -8  21    9.53    3.67
   2  -8  21    6.82    3.37
  -8  -2  21    6.99    3.70
   8   1 -21   -3.86    4.06
  -1   8 -21   -3.25    5.08
  -1   8 -21   13.54    5.44
   1  -8  21    5.57    2.47
   1  -8  21   -0.83    2.92
  -8  -1  21   -1.19    2.58
   1   8 -21   -0.27    5.37
   2   8 -21    6.97    6.02
  -2  -8  21   16.56    4.08
  -2  -8  21    5.62    4.07
   3   8 -21    2.48    5.99
   3   8 -21    1.26    5.86
  -3  -8  21    3.13    3.23
  -3  -8  21   -2.37    3.28
   4   8 -21    3.67    6.01
   4   8 -21    0.19    6.22
  -4  -8  21   -0.16    3.34
  -4  -8  21   -0.58    3.18
   5   8 -21   -8.52    6.32
   5   8 -21   -1.16    6.42
  -5  -8  21    0.45    3.42
  -5  -8  21    5.14    3.16
   6   8 -21   15.55    6.78
   6   8 -21    3.30    6.49
  -6  -8  21    8.66    3.65
  -6  -8  21    0.72    3.68
   7   8 -21    7.26    7.41
  -7  -8  21    9.35    4.05
   8   8 -21    3.85    6.37
   8   8 -21  -12.66    7.57
  -8  -8  21   -1.95    3.84
  -8  -8  21    0.17    3.52
   9   8 -21   23.43    8.46
   9   8 -21   19.33    9.43
  -9  -8  21   18.32    6.15
  -9  -8  21   12.71    5.72
   9   7 -21    8.20    6.96
   9   7 -21    4.38    7.58
  -9  -7  21    5.26    4.16
  -9  -7  21    2.53    3.90
   9   6 -21    0.24    7.55
   9   6 -21    9.41    6.20
  -9  -6  21   10.11    4.04
  -9  -6  21    9.92    4.24
   9   5 -21   11.43    7.65
   9   5 -21    9.77    5.96
  -9  -5  21    5.48    4.16
  -9  -5  21    5.44    3.66
   9   4 -21   -2.01    5.02
   9   4 -21    0.24    6.81
  -9  -4  21   -3.04    3.05
   9   3 -21    0.25    7.25
   9   3 -21    5.38    4.67
  -9  -3  21    0.15    3.14
   9   2 -21   -3.34    4.39
  -2   9 -21    2.61    5.07
   9   2 -21   -3.76    7.62
   2  -9  21    2.77    2.91
  -9  -2  21    3.29    2.94
   9   1 -21   -0.73    4.15
  -9  -1  21   -1.42    2.78
   0   9 -21    4.00    6.16
   0  -9  21    1.50    2.77
   1   9 -21    2.44    5.80
   1   9 -21    3.44    5.52
  -1  -9  21    0.64    3.01
  -1  -9  21   -2.99    3.14
   2   9 -21    1.24    5.39
   2   9 -21   13.43    6.32
  -2  -9  21    0.88    3.25
  -2  -9  21    0.49    3.11
   3   9 -21    3.73    6.14
   3   9 -21   -0.18    5.58
  -3  -9  21    0.17    3.30
  -3  -9  21    1.21    3.43
   4   9 -21   -3.18    6.21
   4   9 -21    3.57    5.63
  -4  -9  21   -1.72    3.56
  -4  -9  21   -4.81    3.50
   5   9 -21   10.68    6.74
   5   9 -21    7.85    6.74
  -5  -9  21   14.57    4.05
  -5  -9  21    4.89    4.08
   6   9 -21   17.19    7.33
   6   9 -21    4.17    6.72
  -6  -9  21    1.33    3.58
  -6  -9  21    7.14    3.87
   7   9 -21   14.15    7.31
  -7  -9  21   12.14    4.42
   8   9 -21    9.77    8.37
   8   9 -21   27.31    9.02
  -8  -9  21   15.12    5.96
  -8  -9  21   15.11    5.48
   9   9 -21    2.27    7.39
   9   9 -21   -3.68    7.63
  -9  -9  21    0.19    3.65
  -9  -9  21    1.34    4.15
  10   9 -21   13.86    8.45
  10   9 -21    0.26    7.98
 -10  -9  21    5.86    4.26
 -10  -9  21    3.50    4.38
  10   8 -21    2.53    7.32
  10   8 -21    0.78    7.88
 -10  -8  21    0.19    3.83
 -10  -8  21    0.22    4.08
  10   7 -21  -29.33    8.70
  10   7 -21   -3.94    6.73
 -10  -7  21    0.18    3.99
 -10  -7  21    9.84    4.00
  10   6 -21    0.26    8.02
  10   6 -21   11.57    6.16
 -10  -6  21   -0.17    3.62
 -10  -6  21   -9.32    4.01
  10   5 -21    0.25    7.51
  10   5 -21    9.74    5.63
 -10  -5  21    3.72    3.71
 -10  -5  21   -8.82    3.17
  10   4 -21    7.46    5.63
  10   4 -21    0.25    7.52
 -10  -4  21    5.14    3.43
  10   3 -21   -0.27    7.56
  10   3 -21    0.67    4.88
 -10  -3  21    5.25    3.33
  10   2 -21   -0.21    4.67
  -2  10 -21    0.35    5.97
  10   2 -21    0.28    7.53
 -10  -2  21   -0.17    3.14
   2 -10  21    1.48    2.76
  -1  10 -21    9.90    7.01
  -1  10 -21   11.00    6.29
  10   1 -21   17.06    5.36
 -10  -1  21    8.14    4.10
   1 -10  21    6.84    3.84
   1 -10  21   14.23    4.46
   0  10 -21   -3.88    5.65
   0  10 -21    1.78    6.18
   0 -10  21   -0.51    2.97
   0 -10  21    1.82    3.38
   1  10 -21   17.79    6.55
   1  10 -21   13.56    7.42
  -1 -10  21   16.37    4.64
  -1 -10  21    8.85    4.43
   2  10 -21    0.35    5.44
   2  10 -21    4.39    6.61
  -2 -10  21    1.12    3.31
  -2 -10  21    2.66    3.07
   3  10 -21    2.17    5.51
   3  10 -21    1.12    6.98
  -3 -10  21   -0.19    3.47
  -3 -10  21   -6.06    3.55
   4  10 -21    4.21    7.36
   4  10 -21    0.19    6.08
  -4 -10  21    9.32    4.07
  -4 -10  21    9.91    3.95
   5  10 -21    0.39    5.99
   5  10 -21   -6.83    7.38
  -5 -10  21    5.07    3.80
  -5 -10  21    0.17    3.66
   6  10 -21    4.29    7.41
   6  10 -21    0.20    6.20
  -6 -10  21   -7.42    4.16
  -6 -10  21    0.35    3.77
   7  10 -21   12.16    6.94
  -7 -10  21    0.18    4.11
   8  10 -21    4.55    7.28
   8  10 -21   10.47    7.73
  -8 -10  21    0.19    4.09
  -8 -10  21    3.71    4.54
   9  10 -21  -12.64    7.63
   9  10 -21   -1.75    7.99
  -9 -10  21    0.20    4.23
  -9 -10  21    3.15    4.71
  10  10 -21  -18.92    9.07
  10  10 -21   -7.53    8.45
 -10 -10  21   -6.19    4.56
 -10 -10  21    0.25    4.72
  11  10 -21  -10.95   10.32
 -11 -10  21  -22.11    6.13
  11   9 -21    0.29    8.64
  11   9 -21   19.35    9.05
 -11  -9  21    9.76    4.69
 -11  -9  21   -0.21    4.48
  11   8 -21  -17.76    8.76
  11   8 -21    0.38    7.81
 -11  -8  21    1.59    4.30
 -11  -8  21    0.20    3.92
  11   7 -21   -3.81    7.32
  11   7 -21    6.47    8.46
 -11  -7  21    0.19    4.09
 -11  -7  21    7.78    4.26
  11   6 -21    1.86    6.75
  11   6 -21   -2.18    8.23
 -11  -6  21    6.24    3.88
 -11  -6  21   -2.24    3.70
  11   5 -21    8.32    6.31
  11   5 -21    0.54    8.10
 -11  -5  21   -0.17    3.64
 -11  -5  21  -13.49    4.02
  11   4 -21    3.13    5.84
  11   4 -21    0.27    8.28
 -11  -4  21   -0.19    3.94
 -11  -4  21   -4.41    3.64
  11   3 -21   -5.89    5.62
  11   3 -21    6.50    8.40
 -11  -3  21   -7.25    3.33
  11   2 -21    4.42    6.41
  -2  11 -21   13.60    6.78
  11   2 -21   12.53    9.07
 -11  -2  21   18.15    4.84
   2 -11  21   22.97    5.08
  11   1 -21    0.84    4.82
  -1  11 -21    3.06    5.55
   1 -11  21   -2.29    3.63
 -11  -1  21    0.18    3.28
   1 -11  21    4.95    3.40
   0  11 -21   54.58   11.89
   0  11 -21   43.18   12.47
   0 -11  21   32.47    9.54
  11   0  21   33.47   10.97
   0 -11  21   39.81   10.31
   1  11 -21   -0.83    7.20
   1  11 -21    0.35    5.44
  -1 -11  21    0.33    3.45
  -1 -11  21   -4.06    3.71
   2  11 -21    3.23    6.56
   2  11 -21   -2.92    7.57
  -2 -11  21   11.82    4.44
  -2 -11  21   17.24    4.76
   3  11 -21    0.18    5.62
   3  11 -21    4.27    7.39
  -3 -11  21   -0.84    3.61
  -3 -11  21   -3.31    3.66
   4  11 -21    3.94    7.68
   4  11 -21    0.19    5.64
  -4 -11  21   -8.48    4.19
  -4 -11  21    1.43    3.94
   5  11 -21    2.38    6.06
   5  11 -21   -0.88    7.82
  -5 -11  21    0.18    3.93
  -5 -11  21    2.50    4.07
   6  11 -21    0.20    6.18
   6  11 -21   -8.59    7.95
  -6 -11  21    6.60    4.16
  -6 -11  21    2.13    4.50
   7  11 -21   -7.21    6.58
  -7 -11  21  -14.08    4.34
   8  11 -21    4.35    7.02
   8  11 -21   15.95    8.67
  -8 -11  21    3.36    4.63
  -8 -11  21    0.20    4.37
   9  11 -21    7.03    8.78
   9  11 -21    5.94    7.61
  -9 -11  21    0.21    4.51
  -9 -11  21   -1.35    5.03
  10  11 -21   -8.58   10.48
  10  11 -21   -0.27    9.33
 -10 -11  21  -22.11    6.07
  11  11 -21   -1.12    9.91
  11  11 -21    0.29    8.59
 -11 -11  21    0.23    4.95
 -11 -11  21   -2.97    5.38
  12  11 -21    2.52    9.78
  12  11 -21   14.21   10.70
 -12 -11  21   -7.81    5.91
 -12 -11  21   -3.39    5.34
  12  10 -21   12.59    9.72
  12  10 -21    0.62    9.25
 -12 -10  21  -11.70    4.95
 -12 -10  21   -3.16    5.52
  12   9 -21   -9.10    9.63
  12   9 -21  -28.00    9.84
 -12  -9  21   -0.26    5.18
 -12  -9  21  -17.62    4.99
  12   8 -21  -34.40   10.40
  12   8 -21  -29.82    9.38
 -12  -8  21  -19.00    5.16
 -12  -8  21   -8.27    5.72
  12   7 -21    5.26    8.14
  12   7 -21    2.06    9.06
 -12  -7  21    4.15    4.60
 -12  -7  21    0.20    4.05
  12   6 -21  -13.62    9.02
  12   6 -21    1.64    7.33
 -12  -6  21    0.94    3.84
 -12  -6  21    2.59    4.26
  12   5 -21    8.80    6.52
  12   5 -21   -9.46    8.44
 -12  -5  21    2.68    4.01
 -12  -5  21    0.55    3.94
  12   4 -21    9.36    8.49
  12   4 -21   -7.93    6.20
 -12  -4  21   -0.18    3.80
 -12  -4  21    2.19    4.04
  12   3 -21   -0.29    8.24
  12   3 -21    4.11    6.43
 -12  -3  21    5.73    3.99
  12   2 -21   -4.83    8.33
  12   2 -21  -10.97    6.19
  -2  12 -21    0.17    5.38
 -12  -2  21  -11.02    3.91
  12   1 -21   14.26    6.54
  -1  12 -21   15.03    6.85
   0  12 -21   -6.57    6.44
  12   0  21  -20.93    6.12
   1  12 -21    9.04    6.56
   2  12 -21   -6.03    5.61
  -2 -12  21    2.19    3.82
  -2 -12  21   -1.27    4.28
   3  12 -21    4.26    5.86
  -3 -12  21   -5.20    3.90
  -3 -12  21   -4.81    4.28
   4  12 -21    2.46    5.76
  -4 -12  21   -1.52    3.91
  -4 -12  21   -5.52    4.38
   5  12 -21   -8.77    6.25
   5  12 -21    0.50    7.78
  -5 -12  21    2.46    4.58
  -5 -12  21   -0.19    4.21
   6  12 -21    1.53    8.24
   6  12 -21    4.12    6.21
  -6 -12  21    2.60    4.10
  -6 -12  21    0.28    4.97
   7  12 -21    4.64    6.64
  -7 -12  21    1.40    4.70
  -7 -12  21   -7.46    4.20
   8  12 -21   22.84    9.83
   8  12 -21   -8.78    7.57
  -8 -12  21    5.60    5.07
   9  12 -21    1.69    9.43
   9  12 -21   -0.25    7.91
  -9 -12  21   -0.32    5.81
  -9 -12  21    2.93    5.02
  10  12 -21    4.12    9.77
  10  12 -21    0.53    8.11
 -10 -12  21    0.68    6.03
 -10 -12  21   -6.78    4.99
  11  12 -21    0.29    9.06
  11  12 -21   -7.99   10.96
 -11 -12  21  -21.98    5.82
  13  10 -21    8.56   10.94
  13  10 -21  -14.20   10.66
 -13 -10  21   -3.91    5.39
 -13 -10  21   -1.21    5.18
  13   9 -21    0.66   10.28
  13   9 -21    5.49    9.99
 -13  -9  21   -1.11    5.13
 -13  -9  21   -7.81    4.83
  13   8 -21   -5.73    8.91
  13   8 -21    7.33   10.00
 -13  -8  21   -0.25    4.79
 -13  -8  21    3.69    4.66
  13   7 -21   78.90   20.61
 -13  -7  21   23.34   19.09
  13   6 -21    3.27    8.02
  13   6 -21  -16.34    9.62
 -13  -6  21    4.29    4.26
 -13  -6  21   -0.20    4.15
  13   5 -21    0.65    7.41
  13   5 -21   13.39    8.91
 -13  -5  21    0.87    4.23
 -13  -5  21    4.42    3.93
  13   4 -21    0.30    6.56
  13   4 -21   -3.33    8.90
 -13  -4  21    4.74    3.89
 -13  -4  21   -6.85    4.27
  13   3 -21    7.83    9.03
  13   3 -21    1.95    6.75
 -13  -3  21    5.99    3.90
  13   2 -21   -1.55    6.15
  13   2 -21   -4.37    8.55
 -13  -2  21    5.59    3.77
  13   1 -21   -8.97    5.98
  13   0  21    9.58    6.30
  14  10 -21   -3.69   11.34
 -14 -10  21   -7.44    5.63
  14   9 -21    4.64   11.22
  14   9 -21    1.60   10.35
 -14  -9  21    4.71    5.70
 -14  -9  21    3.39    5.23
  14   8 -21   -3.76   10.71
  14   8 -21   -8.19    9.79
 -14  -8  21    3.26    5.06
 -14  -8  21   -0.23    5.00
  14   7 -21    9.52    8.94
  14   7 -21  -15.68   10.42
 -14  -7  21   -3.47    4.39
 -14  -7  21    6.11    5.03
  14   6 -21    6.74    8.69
  14   6 -21    1.27    9.50
 -14  -6  21    5.39    4.77
 -14  -6  21    4.82    4.73
  14   5 -21  -24.19   10.28
  14   5 -21    2.51    9.06
 -14  -5  21  -16.42    5.30
  14   4 -21   -3.21    8.24
 -14  -4  21  -18.99    5.22
 -14  -4  21  -17.44    5.59
  14   3 -21    8.74    9.40
  14   3 -21   -8.15    6.97
 -14  -3  21   -6.15    4.39
 -14  -3  21    5.88    3.91
  14   2 -21    3.10    6.54
 -14  -2  21    0.61    3.70
  14   1 -21   -2.08    6.29
  14   0  21    5.51    6.65
  14  -1  21   12.40    7.45
  15   9 -21   -1.53   11.85
 -15  -9  21   -0.51    5.60
  15   8 -21    6.65   10.55
  15   8 -21  -23.34   11.30
 -15  -8  21    1.41    5.24
 -15  -8  21    2.87    5.17
  15   7 -21   15.87   10.96
  15   7 -21   -3.21    9.86
 -15  -7  21   -5.12    5.04
 -15  -7  21    2.26    4.49
  15   6 -21  -20.77    9.75
  15   6 -21   10.06    9.47
 -15  -6  21   -1.28    5.31
 -15  -6  21    1.52    4.38
  15   5 -21    3.01    9.79
  15   5 -21   -4.74    9.13
 -15  -5  21    0.24    4.86
 -15  -5  21    5.73    4.44
  15   4 -21    3.38    9.55
  15   4 -21   -2.48    7.89
 -15  -4  21   -5.12    4.14
 -15  -4  21    0.46    4.42
 -15  -3  21    7.56    4.22
 -15  -3  21   -1.09    4.39
  15   0  21   -4.08    7.39
  15  -1  21    6.20    7.93
  16   0  21   18.98    9.27
  16  -1  21   11.56    8.47
  17   0  21   11.65    9.46
 -17   1 -21  -20.54   24.76
 -17   1 -21    7.87   15.50
  17  -1  21  -10.65   10.12
   0   1 -22    0.55    2.86
  -1   1 -22    1.08    3.05
   1   1 -22   -0.14    2.86
   2   1 -22   -1.46    3.17
  -1   2 -22   -2.06    3.40
   1  -2  22    0.11    2.00
   0   2 -22    1.89    5.60
   0   2 -22   -0.30    3.36
   0  -2  22    2.74    2.14
   1   2 -22  -10.53    5.84
   1   2 -22    0.30    3.35
  -2   1 -22   -1.87    3.03
  -1  -2  22    0.59    2.15
   2   2 -22    0.66    6.25
   2   2 -22    4.03    3.60
  -2   2 -22    1.80    3.44
  -2  -2  22    8.13    2.59
  -2   3 -22    0.17    3.74
  -2   3 -22    0.97    5.58
   3   2 -22    2.04    6.04
   3   2 -22   -0.16    2.99
  -3  -2  22   -0.76    2.29
   2  -3  22    0.44    2.01
   3   1 -22    9.61    4.91
  -1   3 -22   16.26    5.72
  -1   3 -22   22.98    7.02
   1  -3  22   14.55    4.20
  -3  -1  22   21.64    4.18
   0   3 -22   -4.55    6.17
   0   3 -22   -2.47    3.56
   0  -3  22   -0.34    2.27
   1   3 -22   14.45    7.05
  -3   1 -22    2.39    4.74
   1   3 -22   11.57    4.96
  -1  -3  22   17.45    3.76
  -3   2 -22    0.45    3.28
   2   3 -22    2.17    3.84
   2   3 -22  -11.68    5.71
  -2  -3  22    0.23    2.36
  -3   3 -22    6.49    4.26
  -3   3 -22    6.63    5.88
   3   3 -22    3.18    5.91
  -3  -3  22    8.79    2.80
   3  -3  22    4.47    2.48
  -3   4 -22    1.38    5.19
  -3   4 -22    1.83    4.33
   3  -4  22    2.88    2.23
  -2   4 -22   27.26    6.83
  -2   4 -22   19.64    7.65
   2  -4  22   16.75    4.99
  -1   4 -22    4.03    4.15
  -1   4 -22    0.18    5.25
   1  -4  22    1.57    2.17
   0   4 -22   23.55    7.89
   0   4 -22   19.71    7.11
   0  -4  22   20.67    5.33
   1   4 -22    0.19    5.47
   1   4 -22    2.17    4.00
  -1  -4  22    0.78    2.23
   2   4 -22   23.27    7.52
   2   4 -22   -0.18    5.94
  -2  -4  22   23.33    4.62
   4   4 -22    4.33    4.53
   5   4 -22    6.78    6.91
   5   4 -22    3.15    4.99
  -5  -4  22    6.20    3.50
  -3   5 -22    9.27    5.19
  -3   5 -22    3.61    4.69
   5   3 -22    3.79    4.22
   3  -5  22    3.92    2.71
   3  -5  22    7.87    2.55
   5   2 -22    1.33    3.97
  -2   5 -22    3.27    5.35
  -2   5 -22    8.34    4.51
   2  -5  22    8.71    2.56
   2  -5  22    6.50    2.82
  -1   5 -22    5.81    5.06
  -1   5 -22    6.68    5.41
   1  -5  22    1.87    2.49
   1  -5  22    6.59    3.08
   0   5 -22    0.61    4.55
   0   5 -22    0.52    5.18
   0  -5  22   -0.33    2.18
   0  -5  22   -0.94    2.76
   1   5 -22    8.24    6.07
   1   5 -22   18.69    5.08
  -1  -5  22    9.28    3.21
   2   5 -22   -0.19    5.94
   4   5 -22    3.78    5.38
  -4  -5  22   14.45    3.84
   5   5 -22   -1.50    4.74
   5   5 -22   -0.42    6.29
  -5  -5  22    1.35    2.81
   6   5 -22  -14.68    6.92
  -6  -5  22   -1.00    3.26
  -6  -5  22   -2.69    3.05
   6   4 -22  -14.80    6.79
  -6  -4  22   -0.28    2.88
  -3   6 -22    7.87    5.25
  -3   6 -22    5.64    5.52
   6   3 -22   -4.03    7.27
  -6  -3  22    4.31    3.31
   6   2 -22   11.59    7.40
  -2   6 -22    1.72    4.95
  -2   6 -22    3.51    5.11
  -6  -2  22    5.40    2.89
   2  -6  22    6.74    2.77
   2  -6  22    4.39    2.57
  -1   6 -22    1.53    4.96
  -1   6 -22    6.29    5.46
   1  -6  22    5.03    2.78
  -6  -1  22    6.24    2.74
   1  -6  22    5.75    2.66
   0   6 -22   15.04    5.00
   0   6 -22    3.66    5.73
   0  -6  22    3.74    3.05
   0  -6  22    5.59    2.71
   1   6 -22    0.18    5.45
  -1  -6  22   -0.12    2.63
   3   6 -22    8.83    5.87
  -3  -6  22    9.09    4.13
  -3  -6  22   15.65    3.84
   4   6 -22    4.15    5.69
   4   6 -22    2.83    6.28
  -4  -6  22   -2.20    3.21
  -4  -6  22   -2.68    3.31
   5   6 -22   -7.56    6.76
   5   6 -22   -1.41    5.75
  -5  -6  22   -0.98    3.29
  -5  -6  22    0.82    3.42
   6   6 -22    4.60    5.47
   6   6 -22   -6.30    7.10
  -6  -6  22    2.48    3.13
  -6  -6  22   -1.02    3.44
   7   6 -22   -0.23    7.11
  -7  -6  22   -1.07    3.08
   7   5 -22    0.24    7.20
   7   5 -22   -8.86    5.31
  -7  -5  22   -0.17    3.57
  -7  -5  22    5.50    3.16
   7   4 -22   -0.21    4.84
   7   4 -22   12.82    7.24
  -7  -4  22    0.58    3.01
   7   3 -22    4.45    7.17
   7   3 -22    4.70    4.50
  -7  -3  22   -2.04    2.74
   7   2 -22    5.29    4.31
  -2   7 -22   16.83    6.05
   7   2 -22    5.50    7.44
  -2   7 -22    5.90    5.85
   2  -7  22    5.87    3.05
  -7  -2  22    4.80    3.19
   2  -7  22    3.59    3.05
  -1   7 -22   -8.82    5.81
   7   1 -22    2.10    3.74
  -1   7 -22   12.11    5.10
   1  -7  22   -2.48    2.62
   1  -7  22    4.04    2.58
  -7  -1  22   -1.64    2.64
   2   7 -22   10.48    6.04
  -2  -7  22    2.11    3.67
  -2  -7  22    9.22    3.43
   3   7 -22   -1.94    6.49
   3   7 -22   -2.29    5.77
  -3  -7  22   -3.92    3.40
  -3  -7  22    0.31    3.39
   4   7 -22  -30.91    9.85
   4   7 -22  -19.73    6.88
  -4  -7  22  -12.83    5.29
  -4  -7  22   -5.54    3.81
   6   7 -22   -0.27    6.29
   6   7 -22    0.22    7.23
  -6  -7  22   -3.20    3.60
  -6  -7  22    1.84    3.38
   7   7 -22    3.50    7.46
  -7  -7  22    3.85    3.48
   8   7 -22    0.25    7.66
   8   7 -22   -5.19    6.55
  -8  -7  22    0.84    3.51
  -8  -7  22    6.00    3.90
   8   6 -22    8.05    5.76
   8   6 -22  -17.60    7.80
  -8  -6  22    8.55    3.85
  -8  -6  22    6.78    3.50
   8   5 -22   -2.90    5.45
   8   5 -22    4.16    7.64
  -8  -5  22   -0.18    3.54
  -8  -5  22    4.06    3.22
   8   4 -22    0.23    4.78
   8   4 -22    7.43    7.37
  -8  -4  22   -1.68    3.19
   8   3 -22    0.52    7.31
   8   3 -22   -4.29    4.54
  -8  -3  22   -3.90    3.10
   8   2 -22    4.09    4.32
  -2   8 -22    6.56    5.31
   8   2 -22    6.00    7.67
   2  -8  22    7.76    2.49
   2  -8  22    1.61    2.69
  -8  -2  22    2.05    3.13
   8   1 -22   -2.05    4.16
  -8  -1  22    2.50    2.89
   0   8 -22    1.11    5.99
   0  -8  22    1.59    2.84
   1   8 -22   -2.50    5.58
   1   8 -22   -7.93    5.81
  -1  -8  22    0.77    2.89
  -1  -8  22    1.47    2.94
   2   8 -22    3.55    5.99
   2   8 -22    4.28    6.05
  -2  -8  22    0.96    3.03
  -2  -8  22   -1.53    2.93
   3   8 -22   -0.59    6.12
   3   8 -22   -1.17    6.08
  -3  -8  22    0.58    3.12
  -3  -8  22   -1.50    3.14
   4   8 -22   -8.61    6.66
   4   8 -22    0.30    6.66
  -4  -8  22    4.72    3.49
  -4  -8  22    6.42    3.46
   5   8 -22   10.73    6.78
   5   8 -22   12.75    6.84
  -5  -8  22    5.58    3.83
  -5  -8  22    4.75    3.71
   6   8 -22  -13.48    7.13
   6   8 -22    5.36    6.79
  -6  -8  22    1.77    3.51
  -6  -8  22    4.57    3.84
   7   8 -22    0.24    7.14
  -7  -8  22    1.85    3.58
   8   8 -22   53.89   14.58
  -8  -8  22   41.93   12.29
  -8  -8  22   40.81   13.40
   9   8 -22  -17.04    8.50
   9   8 -22    0.70    7.37
  -9  -8  22    0.37    3.69
  -9  -8  22   -0.22    4.28
   9   7 -22    8.62    9.19
   9   7 -22   11.46    7.51
  -9  -7  22    1.62    5.31
  -9  -7  22   25.91    5.17
   9   6 -22    0.85    6.42
   9   6 -22   30.74    8.78
  -9  -6  22    2.20    3.96
  -9  -6  22   10.10    4.42
   9   5 -22    3.14    7.71
   9   5 -22    4.90    5.66
  -9  -5  22   -6.89    3.26
  -9  -5  22    3.00    3.76
   9   4 -22    1.88    5.21
   9   4 -22    2.10    7.63
  -9  -4  22    2.91    3.44
   9   3 -22    0.44    4.74
   9   3 -22  -27.81    7.93
  -9  -3  22   -4.27    3.24
   9   2 -22  -10.79    4.83
   9   2 -22    0.28    7.62
  -9  -2  22   -5.63    3.04
  -1   9 -22   -1.26    5.94
   9   1 -22    0.78    4.59
   1  -9  22   -0.14    2.64
   1  -9  22    1.04    2.76
  -9  -1  22   -0.16    2.76
   0   9 -22   -0.18    5.59
   0   9 -22    9.05    6.24
   0  -9  22    0.14    3.14
   0  -9  22   -1.74    2.97
   1   9 -22   -4.10    5.87
   1   9 -22   -2.57    6.42
  -1  -9  22    8.06    3.25
  -1  -9  22   -1.14    3.07
   2   9 -22   -4.47    6.73
   2   9 -22    4.61    6.07
  -2  -9  22   -3.48    3.43
  -2  -9  22   -3.78    3.33
   3   9 -22   -5.88    6.66
   3   9 -22    8.31    6.16
  -3  -9  22   -0.88    3.30
  -3  -9  22   -3.43    3.47
   4   9 -22    4.01    6.66
   4   9 -22    5.51    6.63
  -4  -9  22    4.67    3.49
  -4  -9  22    4.04    3.44
   5   9 -22    1.48    6.65
   5   9 -22    2.40    7.02
  -5  -9  22    0.58    3.80
  -5  -9  22    6.26    3.67
   6   9 -22    2.02    7.10
   6   9 -22    2.47    7.32
  -6  -9  22    6.46    4.12
  -6  -9  22   12.03    4.37
   7   9 -22   42.96    8.75
  -7  -9  22    2.29    5.11
   8   9 -22   15.10    8.04
   8   9 -22   -3.75    7.53
  -8  -9  22   -0.22    4.33
  -8  -9  22    0.18    3.74
   9   9 -22   14.42    8.59
   9   9 -22   17.32    8.47
  -9  -9  22   14.62    5.14
  -9  -9  22    0.58    4.36
  10   9 -22    0.28    8.48
  10   9 -22    2.47    8.49
 -10  -9  22  -11.35    4.48
 -10  -9  22  -11.31    4.63
  10   8 -22    4.40    7.53
  10   8 -22    2.51    8.73
 -10  -8  22    4.84    4.22
 -10  -8  22    0.69    4.47
  10   7 -22    0.28    8.56
  10   7 -22    8.01    7.29
 -10  -7  22    2.04    3.95
 -10  -7  22    6.91    4.38
  10   6 -22   -9.58    8.24
  10   6 -22   -2.96    6.58
 -10  -6  22    8.41    4.29
 -10  -6  22    0.18    3.76
  10   5 -22   10.51    6.56
  10   5 -22    0.27    8.62
 -10  -5  22   13.31    4.69
 -10  -5  22   10.20    4.24
  10   4 -22   -5.52    8.19
  10   4 -22  -12.69    5.81
 -10  -4  22   -7.66    3.68
  10   3 -22    6.91    8.46
  10   3 -22    3.76    5.45
 -10  -3  22    3.97    3.41
  10   2 -22  -12.41    7.85
  10   2 -22    3.48    4.81
  -2  10 -22    0.17    5.51
  -2  10 -22   -0.71    6.18
 -10  -2  22    5.91    3.49
   2 -10  22   -2.02    2.93
   2 -10  22    3.55    3.03
  -1  10 -22    8.65    6.64
  10   1 -22    1.66    4.58
  -1  10 -22    0.88    5.64
   1 -10  22   -2.53    3.01
   1 -10  22   -0.15    3.31
   0  10 -22    1.49    6.74
   0  10 -22    5.44    6.31
   0 -10  22    7.04    3.81
   0 -10  22    6.90    3.45
   1  10 -22    0.56    5.94
   1  10 -22   -5.21    7.08
  -1 -10  22   -3.71    3.25
  -1 -10  22   -4.51    3.51
   2  10 -22    6.10    7.01
   2  10 -22  -11.81    5.98
  -2 -10  22    4.28    3.44
  -2 -10  22    0.16    3.31
   3  10 -22    6.01    6.37
   3  10 -22   -4.15    7.30
  -3 -10  22    6.83    3.85
  -3 -10  22    7.53    4.04
   4  10 -22   -7.39    6.38
   4  10 -22   -4.24    7.89
  -4 -10  22   -4.30    3.91
  -4 -10  22   -4.60    4.03
   5  10 -22   -0.39    7.59
   5  10 -22    7.40    7.04
  -5 -10  22    6.08    4.25
  -5 -10  22    7.43    4.20
   6  10 -22    1.09    6.75
   6  10 -22    0.40    7.93
  -6 -10  22    0.22    3.96
  -6 -10  22    0.55    4.05
   7  10 -22   13.88    7.49
  -7 -10  22   -0.23    4.21
  -7 -10  22    0.19    4.08
   8  10 -22   -0.25    7.61
   8  10 -22   10.41    8.34
  -8 -10  22   10.69    4.50
  -8 -10  22    5.02    4.67
   9  10 -22    3.45    7.95
   9  10 -22   -1.36    8.72
  -9 -10  22    4.05    4.47
  -9 -10  22    0.25    4.56
  10  10 -22   42.60   15.64
  10  10 -22   28.93   16.63
 -10 -10  22   62.50   13.34
 -10 -10  22   51.91   12.47
  11  10 -22   -0.30    8.85
  11  10 -22   11.85    9.84
 -11 -10  22    0.22    4.67
 -11 -10  22   -5.03    4.98
  11   9 -22  141.04   26.36
 -11  -9  22  109.35   23.71
  11   8 -22    1.59    7.99
  11   8 -22    0.30    9.00
 -11  -8  22  -14.65    4.54
 -11  -8  22    2.86    4.31
  11   7 -22   20.55    8.83
  11   7 -22    2.90    7.57
 -11  -7  22  -14.31    4.52
 -11  -7  22    5.29    3.93
  11   6 -22   -4.38    8.72
  11   6 -22    1.95    7.03
 -11  -6  22    2.07    3.95
 -11  -6  22    0.22    4.01
  11   5 -22    5.82    6.69
  11   5 -22   15.11    8.39
 -11  -5  22    3.29    3.76
 -11  -5  22    0.21    4.26
  11   4 -22    4.43    8.53
  11   4 -22    2.13    6.12
 -11  -4  22    1.62    4.06
 -11  -4  22    0.18    3.53
  11   3 -22    2.98    5.77
  11   3 -22    6.90    8.49
 -11  -3  22    3.89    3.98
  11   2 -22   -6.28    5.54
  11   2 -22    8.59    8.59
  -2  11 -22   -3.75    5.93
 -11  -2  22   -4.39    3.60
  -1  11 -22   16.36    7.28
  11   1 -22   20.25    6.45
   1 -11  22    6.73    4.76
   1 -11  22   17.94    5.15
   0  11 -22  -10.43    7.51
   0  11 -22  -19.01    6.27
   0 -11  22   -3.81    3.59
   0 -11  22    2.88    3.93
   1  11 -22    9.97    6.97
   1  11 -22   11.41    7.86
  -1 -11  22   11.47    4.96
  -1 -11  22   10.07    4.51
   2  11 -22   -5.85    6.00
   2  11 -22   -9.53    7.47
  -2 -11  22   -1.66    3.97
  -2 -11  22    0.18    4.02
   3  11 -22   -1.30    8.01
   3  11 -22    6.95    6.48
  -3 -11  22    1.45    4.04
  -3 -11  22    5.00    3.98
   4  11 -22   -8.53    6.44
   4  11 -22   13.35    8.46
  -4 -11  22   -3.74    3.98
  -4 -11  22    7.78    4.11
   5  11 -22   10.47    6.78
   5  11 -22    3.19    8.31
  -5 -11  22   -0.19    4.04
  -5 -11  22   -9.18    3.99
   6  11 -22   -0.22    6.75
   6  11 -22    3.75    8.47
  -6 -11  22    1.68    4.14
  -6 -11  22   -0.20    4.27
   7  11 -22   -4.00    7.18
  -7 -11  22    2.00    4.38
  -7 -11  22    4.26    4.55
   8  11 -22    6.88    7.69
   8  11 -22   13.01    9.68
  -8 -11  22    0.21    4.49
   9  11 -22   48.61   18.72
   9  11 -22   34.87   17.99
  -9 -11  22   18.90   14.78
  -9 -11  22   54.67   14.29
  10  11 -22    0.85    8.79
  10  11 -22  -10.87   10.16
 -10 -11  22    0.22    4.79
 -10 -11  22    1.72    5.34
  11  11 -22   -5.13   10.21
  11  11 -22    0.92    9.01
 -11 -11  22    1.24    5.80
 -11 -11  22   -0.24    5.05
  12  11 -22    0.34   10.23
 -12 -11  22   -0.25    5.29
  12  10 -22    8.60   10.41
  12  10 -22   13.59   10.85
 -12 -10  22    0.47    5.08
 -12 -10  22    1.17    5.32
  12   9 -22  -16.58   10.04
  12   9 -22   -8.49    9.34
 -12  -9  22   -3.39    4.84
 -12  -9  22   -1.35    5.03
  12   7 -22  -11.47    9.23
 -12  -7  22   -5.11    5.66
  12   6 -22    0.31    9.11
  12   6 -22    3.78    7.46
 -12  -6  22   -7.04    4.49
 -12  -6  22    1.19    4.13
  12   5 -22   -3.07    7.16
  12   5 -22   -4.24    8.94
 -12  -5  22   -0.58    3.89
 -12  -5  22   -4.13    4.47
  12   4 -22   -3.70    8.70
  12   4 -22    1.44    6.68
 -12  -4  22   -5.26    4.47
 -12  -4  22    2.29    3.95
  12   3 -22  -31.93    8.97
  12   3 -22   -1.62    6.40
 -12  -3  22    0.39    3.87
  12   2 -22  -38.09   11.31
  12   2 -22    4.45    9.62
  -1  12 -22   -6.48    6.29
  12   1 -22    9.53    6.54
   1 -12  22   -9.45    4.18
   0  12 -22   12.78    7.83
   0 -12  22   17.91    5.54
   1  12 -22    3.14    6.25
  -1 -12  22   -2.61    4.05
  -1 -12  22   -3.78    4.17
   2  12 -22   11.91    7.50
  -2 -12  22    3.52    5.11
  -2 -12  22    9.10    5.45
   3  12 -22  -10.66    6.39
   3  12 -22   11.21    8.20
  -3 -12  22    3.92    4.68
  -3 -12  22    0.77    4.16
   4  12 -22    1.50    8.59
   4  12 -22    3.69    6.10
  -4 -12  22   -4.11    4.44
  -4 -12  22   -0.20    4.09
   5  12 -22   21.58    8.74
   5  12 -22   -3.25    6.67
  -5 -12  22    0.81    4.09
  -5 -12  22    0.27    4.58
   6  12 -22    0.89    6.56
   6  12 -22  -10.04    8.98
  -6 -12  22  -10.36    4.68
  -6 -12  22  -10.31    5.12
   7  12 -22  -23.03    7.78
   7  12 -22   16.87    9.39
  -7 -12  22  -11.77    5.03
  -7 -12  22  -12.79    5.40
   8  12 -22    0.25    8.13
   9  12 -22   23.96   10.53
   9  12 -22   14.18    8.56
  -9 -12  22   -0.23    4.83
  -9 -12  22   -3.50    5.60
  10  12 -22   -7.93    8.95
  10  12 -22  -14.62   10.26
 -10 -12  22   -0.24    4.97
 -10 -12  22   -2.34    5.73
  13  10 -22  -37.90   12.45
 -13 -10  22  -16.86    6.80
  13   9 -22    5.00    9.83
  13   9 -22   14.44   11.16
 -13  -9  22   -0.29    5.31
 -13  -9  22   -0.24    5.01
  13   8 -22  -11.48    9.65
  13   8 -22    8.52   10.21
 -13  -8  22    6.16    5.28
 -13  -8  22    3.18    4.79
  13   7 -22   -4.98    8.97
  13   7 -22    6.05   10.04
 -13  -7  22    0.25    4.90
 -13  -7  22    2.83    4.64
  13   6 -22  -14.03    9.82
  13   6 -22   26.86   12.28
 -13  -6  22   -7.85    5.58
 -13  -6  22  -18.10    5.14
  13   5 -22   -3.05    8.21
 -13  -5  22  -13.19    5.11
 -13  -5  22  -18.68    5.86
  13   4 -22   -2.30    9.44
  13   4 -22    0.31    7.06
 -13  -4  22   12.89    4.92
 -13  -4  22    2.45    4.28
  13   3 -22   -7.30    9.25
  13   3 -22    8.19    7.45
 -13  -3  22   -0.41    3.81
  13   2 -22   -9.48    6.70
 -13  -2  22   10.73    4.03
  13   1 -22    2.29    6.10
   5  13 -22  -21.52    7.49
   6  13 -22    4.97    7.39
  -6 -13  22   -2.86    5.44
   7  13 -22  -17.87    7.53
  -7 -13  22   -0.35    6.06
  -7 -13  22    0.23    5.09
   8  13 -22    3.02    7.80
  -8 -13  22   -6.62    5.36
   9  13 -22  -11.95    8.44
  -9 -13  22   -0.25    5.47
  14   9 -22   20.56   12.16
 -14  -9  22   -5.55    5.55
  14   8 -22    6.33   10.27
  14   8 -22    2.20   11.41
 -14  -8  22    0.57    5.63
 -14  -8  22    0.24    5.04
  14   7 -22    0.35   10.49
  14   7 -22    7.88    9.56
 -14  -7  22   -7.76    4.83
 -14  -7  22    6.20    5.44
  14   6 -22    1.21    8.86
  14   6 -22  -14.38   10.16
 -14  -6  22   -3.95    4.85
 -14  -6  22  -10.63    5.65
  14   5 -22    0.68    9.91
  14   5 -22    0.37    8.64
 -14  -5  22    1.92    4.72
 -14  -5  22    7.96    4.46
  14   4 -22   -0.34   10.12
  14   4 -22    4.37    7.60
 -14  -4  22   -5.85    4.34
 -14  -4  22   -4.35    4.75
  14   3 -22    0.95    7.43
  14   3 -22  -20.16   10.24
 -14  -3  22   -2.45    4.74
 -14  -3  22  -10.38    4.53
  14   2 -22    7.68    7.45
 -14  -2  22   11.00    4.82
  14   1 -22   -3.01    6.62
  15   8 -22  -15.94   12.56
 -15  -8  22  -18.43    6.20
  15   7 -22   -7.65   10.50
  15   7 -22    8.14   11.27
 -15  -7  22   12.41    5.32
 -15  -7  22    0.28    5.38
  15   6 -22   12.97   10.55
  15   6 -22    1.31    9.51
 -15  -6  22    0.27    5.05
 -15  -6  22   -0.23    4.63
  15   5 -22   10.29    9.02
  15   5 -22   30.46   10.79
 -15  -5  22    2.05    4.84
 -15  -5  22    3.77    5.04
  15   4 -22  -10.05   10.41
  15   4 -22    7.44    8.08
 -15  -4  22    9.35    5.07
 -15  -4  22   -0.45    4.47
  15   3 -22   -2.31    7.56
  15   3 -22    0.35    9.58
 -15  -3  22    0.22    4.16
 -15  -3  22    0.23    4.43
  15   0  22  -10.71    7.80
  16   0  22    1.74    8.19
   0   1 -23    4.47    3.37
   1   1 -23    2.43    3.38
  -1   1 -23    1.76    3.21
  -1   2 -23   -2.89    3.56
   1  -2  23   -1.07    2.23
   0   2 -23    0.81    3.52
   0  -2  23   -0.12    2.11
   1   2 -23    0.33    3.78
  -2   1 -23    1.59    3.40
   1   2 -23    0.23    6.00
  -1  -2  23   -1.37    2.35
   2   2 -23   -0.23    6.44
  -2   2 -23   -0.80    3.75
  -2  -2  23    1.29    2.40
  -2   3 -23    3.73    6.31
  -2   3 -23   10.61    4.69
   2  -3  23    6.25    2.69
  -1   3 -23   -1.70    5.97
  -1   3 -23   -0.18    4.34
   1  -3  23    0.83    2.28
   0   3 -23    4.56    6.06
   0   3 -23    2.51    4.31
   0  -3  23    6.93    2.75
   1   3 -23   -4.36    6.19
  -3   1 -23    1.15    3.40
   1   3 -23   10.24    4.04
  -1  -3  23    0.99    2.35
   2   3 -23   -0.22    6.56
  -3   2 -23    6.12    3.88
  -2  -3  23   -0.13    2.49
  -3   3 -23   -2.87    4.02
   3  -3  23    1.02    2.15
  -3   4 -23    5.70    6.21
   4   3 -23   35.22    7.33
  -3   4 -23    6.18    5.19
   4   3 -23    1.50    4.67
  -4  -3  23   10.32    3.29
  -2   4 -23    1.33    5.56
   4   2 -23   -0.69    3.74
  -2   4 -23    2.56    4.76
   2  -4  23    4.85    2.42
  -1   4 -23    6.26    6.21
  -1   4 -23    7.90    4.84
   4   1 -23    2.83    3.99
   1  -4  23    9.34    2.95
   0   4 -23    0.20    5.68
   0   4 -23    0.97    4.36
   0  -4  23   -1.27    2.35
   1   4 -23    3.44    6.36
  -1  -4  23   12.59    3.31
   3   4 -23    4.93    4.99
   4   4 -23   -8.90    6.56
   4   4 -23   -1.60    4.39
  -4  -4  23   -1.48    2.70
   5   4 -23    0.23    7.07
   5   4 -23    1.05    4.76
  -5  -4  23    3.95    2.83
   5   3 -23   -0.19    4.39
  -3   5 -23    1.66    4.90
   5   3 -23   -1.74    7.21
  -5  -3  23    4.87    2.87
  -2   5 -23    0.18    5.25
   5   2 -23    1.81    4.12
  -2   5 -23    6.54    4.85
   5   2 -23  -11.60    6.97
   2  -5  23    0.77    2.56
  -5  -2  23    0.58    2.65
   2  -5  23    1.72    2.33
   5   1 -23    2.74    3.76
  -1   5 -23    1.96    5.06
  -1   5 -23   -0.72    5.44
   1  -5  23    0.22    2.39
   1  -5  23    2.47    2.79
  -5  -1  23    2.86    2.36
   0   5 -23    0.95    5.67
   0  -5  23   -1.39    2.45
   2   5 -23    4.58    5.16
   3   5 -23   -1.26    6.49
   3   5 -23   -0.88    5.21
  -3  -5  23    7.87    2.96
   4   5 -23    3.50    6.79
   4   5 -23    3.35    5.17
  -4  -5  23   -0.14    3.09
   5   5 -23   -0.23    5.26
   5   5 -23    0.23    6.96
  -5  -5  23    1.14    2.91
   6   5 -23    2.79    5.20
   6   5 -23   -0.24    7.19
  -6  -5  23   -1.50    3.09
   6   4 -23    5.55    7.00
   6   4 -23   -1.29    4.73
  -6  -4  23    2.21    3.19
   6   3 -23   -0.26    7.74
  -6  -3  23    3.45    3.06
   6   2 -23   34.75    8.26
  -2   6 -23    3.64    5.76
  -2   6 -23    5.42    6.51
  -6  -2  23    3.16    3.43
   2  -6  23    8.02    3.56
   2  -6  23   11.62    3.60
  -1   6 -23   10.15    4.93
  -1   6 -23    6.62    5.91
   1  -6  23    8.01    3.04
  -6  -1  23   -1.19    2.73
   1  -6  23    1.93    2.84
   1   6 -23   -3.76    5.22
   2   6 -23    3.34    5.54
  -2  -6  23    7.03    3.85
  -2  -6  23    5.82    3.46
   3   6 -23   -3.14    6.88
   3   6 -23    8.94    5.57
  -3  -6  23    0.54    2.94
  -3  -6  23    0.81    3.28
   4   6 -23    0.72    5.65
   4   6 -23    0.22    6.54
  -4  -6  23    3.81    3.41
  -4  -6  23    0.17    3.54
   5   6 -23    7.71    6.92
   5   6 -23    0.25    5.76
  -5  -6  23   -3.48    3.44
  -5  -6  23    0.15    3.22
   6   6 -23    1.02    5.68
   6   6 -23   -3.16    7.53
  -6  -6  23    0.62    3.41
  -6  -6  23    1.26    3.48
   7   6 -23    2.03    7.94
  -7  -6  23   -0.16    3.45
   7   5 -23   -0.25    7.52
  -7  -5  23  -13.02    3.58
   7   4 -23    7.34    5.13
   7   4 -23  -10.50    7.65
  -7  -4  23    6.66    3.28
   7   3 -23    1.08    7.65
   7   3 -23    3.12    4.74
  -7  -3  23    2.99    3.13
  -2   7 -23    3.04    5.33
   7   2 -23   13.60    7.44
   7   2 -23    3.76    4.23
  -7  -2  23   -0.16    2.89
   2  -7  23    6.52    2.56
   2  -7  23   -0.90    2.57
   7   1 -23   -1.49    4.05
  -7  -1  23    0.78    2.62
   0   7 -23    2.40    5.79
   0  -7  23   -0.15    2.87
   1   7 -23   -5.18    6.03
   1   7 -23   -0.26    5.54
  -1  -7  23   -0.78    2.75
  -1  -7  23    1.85    3.06
   2   7 -23    4.01    6.07
   2   7 -23   -1.33    5.71
  -2  -7  23    0.48    3.18
  -2  -7  23   -0.68    2.84
   3   7 -23    9.21    6.37
   3   7 -23   10.63    6.59
  -3  -7  23    6.52    3.56
  -3  -7  23    4.12    3.41
   4   7 -23   -7.15    6.90
   4   7 -23   -4.69    7.05
  -4  -7  23    2.09    3.49
  -4  -7  23   11.69    3.70
   5   7 -23    7.64    7.37
   5   7 -23    1.69    6.90
  -5  -7  23   -2.78    3.71
  -5  -7  23   -6.51    3.65
   6   7 -23    8.08    6.75
   6   7 -23   -0.24    7.17
  -6  -7  23    0.16    3.50
  -6  -7  23   -0.19    3.75
   7   7 -23    7.01    7.73
  -7  -7  23   -5.21    3.71
   8   7 -23   22.48   10.43
  -8  -7  23   34.65    8.20
  -8  -7  23   16.40    9.03
   8   6 -23    0.26    7.96
   8   6 -23   -3.28    6.01
  -8  -6  23    4.25    3.66
  -8  -6  23    2.36    3.94
   8   5 -23    3.44    7.90
   8   5 -23    1.28    5.55
  -8  -5  23    6.31    3.90
  -8  -5  23   -5.77    3.36
   8   4 -23   -6.44    5.26
   8   4 -23    2.14    7.43
  -8  -4  23   -0.16    3.26
   8   3 -23    7.85    8.21
   8   3 -23   -4.32    4.98
  -8  -3  23    2.31    3.28
   8   2 -23  -11.76    4.95
   8   2 -23    2.31    7.71
  -8  -2  23    4.63    3.09
   8   1 -23    0.40    4.33
  -1   8 -23   -5.44    6.06
   1  -8  23   -1.73    2.80
   0   8 -23   -1.44    6.05
   0   8 -23    0.76    6.12
   0  -8  23   -0.66    3.02
   0  -8  23    1.08    2.85
   1   8 -23   -6.33    6.32
   1   8 -23   -1.78    6.58
  -1  -8  23   -1.11    3.13
  -1  -8  23   -1.78    3.09
   2   8 -23    1.23    6.41
   2   8 -23   -5.78    6.41
  -2  -8  23    2.39    3.23
  -2  -8  23   -0.14    3.06
   3   8 -23   -3.62    6.61
   3   8 -23    0.43    6.75
  -3  -8  23    0.36    3.54
  -3  -8  23    0.60    3.09
   4   8 -23   -0.62    6.60
   4   8 -23   12.36    7.08
  -4  -8  23    6.52    3.62
  -4  -8  23    2.18    3.43
   5   8 -23    1.60    7.19
   5   8 -23    0.95    6.61
  -5  -8  23    0.19    3.70
  -5  -8  23    0.16    3.71
   6   8 -23   -4.85    6.88
   6   8 -23    7.62    7.29
  -6  -8  23    0.81    3.93
  -6  -8  23    2.35    3.66
   7   8 -23   80.70   17.62
   8   8 -23   10.68    7.26
   8   8 -23   -7.97    8.14
  -8  -8  23   -0.22    3.73
  -8  -8  23   -0.55    3.77
   9   8 -23   11.05    8.03
   9   8 -23    2.29    9.02
  -9  -8  23   10.79    4.61
  -9  -8  23    8.70    5.08
   9   7 -23  -10.38    8.37
   9   7 -23    4.01    7.00
  -9  -7  23  -10.71    3.98
  -9  -7  23    3.21    4.02
   9   6 -23    2.38    6.70
   9   6 -23  -28.13    9.29
  -9  -6  23   -6.17    4.57
   9   5 -23    8.82    8.46
   9   5 -23   -1.32    6.13
  -9  -5  23   -7.49    3.70
  -9  -5  23    3.38    4.13
   9   4 -23    8.94    5.62
   9   4 -23   -0.28    7.95
  -9  -4  23    0.17    3.60
   9   3 -23    0.58    8.01
   9   3 -23    4.38    5.13
  -9  -3  23    0.17    3.24
   9   2 -23    0.66    4.94
   9   2 -23  -17.39    7.90
  -2   9 -23    0.64    6.41
  -9  -2  23   -3.30    3.23
  -1   9 -23    2.31    6.45
   9   1 -23   -3.57    4.79
  -1   9 -23   -3.14    5.91
   1  -9  23    1.65    3.09
   1  -9  23   -0.79    3.04
   0   9 -23    0.99    6.51
   0   9 -23    4.63    6.13
   0  -9  23    1.44    3.27
   0  -9  23    5.04    3.16
   1   9 -23    7.24    6.55
   1   9 -23    6.01    6.39
  -1  -9  23    0.69    3.10
  -1  -9  23   -1.65    3.47
   2   9 -23   -5.40    6.88
   2   9 -23    0.21    6.21
  -2  -9  23    1.40    3.54
  -2  -9  23    6.57    3.72
   3   9 -23   -2.76    7.24
   3   9 -23   -2.34    6.29
  -3  -9  23   -0.37    3.61
  -3  -9  23   -2.40    3.68
   4   9 -23   -1.71    7.03
   4   9 -23    4.17    6.92
  -4  -9  23   10.94    4.00
  -4  -9  23    3.63    3.73
   5   9 -23   -4.19    7.04
   5   9 -23  -19.06    7.19
  -5  -9  23   -4.08    4.35
  -5  -9  23   -6.48    3.90
   6   9 -23   -0.36    7.60
   6   9 -23  -19.24    7.95
  -6  -9  23    2.13    4.43
   7   9 -23    2.50    7.46
  -7  -9  23    1.28    3.91
  -7  -9  23   -0.22    4.21
   8   9 -23    2.41    8.35
   8   9 -23    6.32    8.30
  -8  -9  23    4.63    4.94
  -8  -9  23   14.35    4.64
   9   9 -23   17.67    8.69
   9   9 -23    4.22    8.59
  -9  -9  23   -3.41    4.26
  -9  -9  23    0.24    4.26
  10   8 -23  -16.17    9.05
  10   8 -23   -1.92    8.21
 -10  -8  23    4.87    4.28
 -10  -8  23    0.24    4.52
  10   7 -23   -8.75    7.72
  10   7 -23   -0.30    9.01
 -10  -7  23   -0.22    4.45
 -10  -7  23    0.39    3.88
  10   6 -23    0.29    9.21
  10   6 -23    1.24    7.10
 -10  -6  23   13.76    5.30
 -10  -6  23   11.31    4.66
  10   5 -23   -1.13    6.30
  10   5 -23   -0.29    8.39
 -10  -5  23   -9.31    4.33
 -10  -5  23    1.10    3.55
  10   4 -23   14.17    6.35
  10   4 -23  -26.43    8.64
 -10  -4  23    1.28    3.54
  10   3 -23    4.70    5.63
  10   3 -23  -17.46    8.95
 -10  -3  23   -4.82    3.55
  10   2 -23    1.15    5.16
  10   2 -23  -16.82    8.60
  -2  10 -23    5.54    6.83
 -10  -2  23    0.18    3.40
  10   1 -23   11.63    5.27
  -1  10 -23    2.64    7.09
  -1  10 -23    0.19    6.24
   1 -10  23    0.17    3.10
   1 -10  23    5.77    3.48
   0  10 -23   -3.41    6.92
   0  10 -23    7.01    6.20
   0 -10  23    0.16    3.52
   0 -10  23    2.71    3.37
   1  10 -23    2.73    7.34
   1  10 -23    3.41    6.39
  -1 -10  23   -4.09    3.26
  -1 -10  23    3.27    3.66
   2  10 -23    0.39    7.21
   2  10 -23   -0.62    6.23
  -2 -10  23    1.57    3.57
  -2 -10  23    6.73    3.76
   3  10 -23  -14.78    6.91
   3  10 -23   -7.88    7.46
  -3 -10  23    1.62    3.73
  -3 -10  23    3.97    3.89
   4  10 -23    2.81    7.63
   4  10 -23   10.04    6.91
  -4 -10  23   -4.79    3.90
  -4 -10  23   -0.21    3.85
   5  10 -23   -2.06    8.24
   5  10 -23   10.34    7.03
  -5 -10  23    4.43    4.60
  -5 -10  23    5.29    4.06
   6  10 -23    8.08    8.27
   6  10 -23   24.46    8.99
  -6 -10  23   24.97    5.79
  -6 -10  23   12.14    5.40
   7  10 -23    0.51    7.94
   7  10 -23   -1.26    8.00
  -7 -10  23    7.00    4.60
  -7 -10  23  -11.78    4.27
   8  10 -23  -11.62    8.24
   8  10 -23    4.95    8.51
  -8 -10  23    0.20    4.29
   9  10 -23  -11.71   10.02
   9  10 -23  -14.44    9.89
  -9 -10  23  -16.60    6.26
  -9 -10  23  -20.15    5.64
  10  10 -23  -16.43    9.55
  10  10 -23    6.87    9.95
 -10 -10  23   -0.83    5.24
 -10 -10  23  -20.50    5.10
  11  10 -23   -2.07   10.23
  11  10 -23   -4.22    9.62
 -11 -10  23   -9.08    5.00
 -11 -10  23    2.65    5.63
  11   9 -23   -2.71    9.53
  11   9 -23  -14.73    9.71
 -11  -9  23    2.72    5.02
 -11  -9  23   -2.90    4.81
 -11  -8  23  104.97   22.60
 -11  -8  23  108.97   23.95
  11   7 -23  -12.14    7.97
  11   7 -23    0.32    9.17
 -11  -7  23    0.24    4.74
 -11  -7  23  -13.36    4.27
  11   6 -23    9.15    7.04
  11   6 -23    0.31    9.28
 -11  -6  23    0.20    3.72
 -11  -6  23   -4.31    4.29
  11   5 -23   -3.57    6.56
  11   5 -23    0.31    8.87
 -11  -5  23    6.59    4.09
 -11  -5  23   -9.34    4.51
  11   4 -23    5.02    9.07
  11   4 -23    2.24    6.02
 -11  -4  23   -4.99    3.86
  11   3 -23   -3.91    6.05
  11   3 -23   -8.13    8.98
 -11  -3  23    1.56    3.74
  11   2 -23   -9.56    6.20
  11   2 -23   -4.52    8.73
 -11  -2  23    3.26    3.48
  -1  11 -23    5.51    6.57
  -1  11 -23    2.52    7.45
  11   1 -23    1.88    5.55
   1 -11  23    7.43    3.79
   1 -11  23   -2.38    3.35
   0  11 -23    1.71    7.37
   0  11 -23   -0.20    6.46
   0 -11  23   -2.27    4.07
   0 -11  23    4.58    3.64
   1  11 -23    2.89    6.49
   1  11 -23   -2.65    7.78
  -1 -11  23   -4.97    3.67
  -1 -11  23   -3.05    4.06
   2  11 -23    7.09    8.10
   2  11 -23    1.68    6.42
  -2 -11  23   -1.30    3.87
  -2 -11  23   -0.18    4.01
   3  11 -23   17.24    8.24
   3  11 -23    1.50    6.46
  -3 -11  23    0.18    4.13
  -3 -11  23    8.60    4.03
   4  11 -23   -5.56    8.82
   4  11 -23   -0.22    6.71
  -4 -11  23    0.19    4.13
  -4 -11  23    8.07    4.39
   5  11 -23    5.70    8.66
   5  11 -23    0.23    7.12
  -5 -11  23    4.66    4.25
  -5 -11  23    6.27    4.49
   6  11 -23   -2.38    8.78
   6  11 -23    1.90    7.38
  -6 -11  23    0.80    4.32
  -6 -11  23   -0.25    4.25
   7  11 -23   -0.25    7.71
   7  11 -23   10.77    9.23
  -7 -11  23    0.21    4.44
  -7 -11  23   -3.42    5.04
   8  11 -23   10.11   20.21
  -8 -11  23   76.88   15.78
   9  11 -23   -8.10   10.92
   9  11 -23   -9.44    9.00
  -9 -11  23   -0.29    5.26
  -9 -11  23    0.22    4.90
  10  11 -23    0.30    9.34
  10  11 -23    7.89   10.70
 -10 -11  23   -0.23    4.99
 -10 -11  23   -0.30    5.47
  11  11 -23  -14.40    9.74
 -11 -11  23   -0.24    5.16
  12  10 -23   -4.59   10.87
  12  10 -23    0.56    8.28
 -12 -10  23   -9.37    5.35
  12   9 -23   13.90   10.89
  12   9 -23    6.38   10.20
 -12  -9  23   -5.40    5.66
 -12  -9  23  -14.64    5.32
  12   8 -23    0.34   10.49
  12   8 -23    8.76    9.51
 -12  -8  23    7.42    5.46
 -12  -8  23    2.49    4.75
 -12  -6  23  -14.74    6.27
  12   5 -23    7.08    7.37
  12   5 -23   -7.18    9.00
 -12  -5  23    0.20    3.99
 -12  -5  23   -0.46    4.51
  12   4 -23    6.65    6.95
  12   4 -23   11.72    9.88
 -12  -4  23    2.66    4.64
 -12  -4  23    0.82    4.17
  12   3 -23   -2.83    7.01
  12   3 -23  -20.98    9.39
 -12  -3  23   11.06    4.07
  12   2 -23    7.12    6.48
 -12  -2  23    1.21    4.06
  -1  12 -23   10.28    7.95
   1 -12  23   27.55    5.94
   0  12 -23   13.42    6.76
   0 -12  23   -1.49    4.04
   0 -12  23   -7.94    4.07
   1  12 -23    8.73    7.55
  -1 -12  23    7.92    5.05
  -1 -12  23    8.47    4.89
   2  12 -23   -3.96    8.31
   2  12 -23    2.16    6.87
  -2 -12  23   -2.86    4.55
  -2 -12  23    7.67    4.48
   3  12 -23    0.22    6.63
   3  12 -23    8.64    8.83
  -3 -12  23    0.40    4.07
  -3 -12  23    2.82    4.70
   4  12 -23    8.01    6.93
   4  12 -23   -1.04    9.00
  -4 -12  23    1.02    4.56
  -4 -12  23    5.34    4.76
   5  12 -23   15.50    9.19
   5  12 -23    0.23    7.17
  -5 -12  23    0.84    4.42
  -5 -12  23   -0.28    4.68
   6  12 -23  -11.34   10.46
   6  12 -23  -25.73    8.73
  -6 -12  23  -16.30    5.71
   7  12 -23    7.78   10.60
   7  12 -23  -28.37    9.23
  -7 -12  23  -15.45    6.69
   8  12 -23    0.27    8.56
  -8 -12  23   -4.99    5.04
   9  12 -23   -1.79   10.71
   9  12 -23    1.44    9.68
  -9 -12  23   -8.61    5.87
  -9 -12  23  -17.20    5.35
  13   9 -23    5.64   11.57
  13   9 -23   10.39   10.19
 -13  -9  23   -0.25    5.37
  13   8 -23   15.00   11.26
  13   8 -23    7.42   10.07
 -13  -8  23   -0.24    5.13
 -13  -8  23    1.13    5.75
  13   7 -23   -7.73   10.64
  13   7 -23   11.39    8.98
 -13  -7  23    3.22    5.28
 -13  -7  23    0.46    4.61
  13   6 -23   -6.96   10.12
  13   6 -23  -11.89    9.06
 -13  -6  23    0.44    4.51
 -13  -6  23    0.25    4.74
  13   5 -23   -1.77    8.70
 -13  -5  23   -4.31    5.28
 -13  -5  23   -6.96    4.97
  13   4 -23   15.60    9.64
  13   4 -23   61.94   13.16
 -13  -4  23   11.60    6.83
 -13  -4  23   20.70    7.49
  13   3 -23    1.75    9.96
  13   3 -23    5.83    7.07
 -13  -3  23    3.63    4.31
  13   2 -23    1.99    6.70
 -13  -2  23    0.21    4.05
  -1  13 -23   -6.18    6.78
   1 -13  23   -3.18    4.44
   0  13 -23    4.10    7.33
   0 -13  23   13.22    5.22
   1  13 -23    0.87    7.08
  -1 -13  23   14.29    4.83
   2  13 -23   14.74    7.34
  -2 -13  23    5.05    4.89
   3  13 -23    0.22    6.83
  -3 -13  23    0.64    4.76
   4  13 -23   10.98    9.65
  -4 -13  23   37.56    7.74
   5  13 -23  -27.40    8.02
   6  13 -23   11.26    7.47
  -6 -13  23    0.23    5.01
  -6 -13  23    0.35    5.64
   7  13 -23    3.11    7.91
  -7 -13  23   -9.89    5.38
  -7 -13  23   -0.35    5.75
   8  13 -23   18.92    8.70
  -8 -13  23  -19.28    5.70
  14   8 -23  -11.33   11.82
  14   8 -23    0.51    8.76
 -14  -8  23  -15.66    5.82
  14   7 -23   -8.25   11.16
  14   7 -23    0.92   10.06
 -14  -7  23    0.84    5.29
 -14  -7  23    0.24    5.06
  14   6 -23   -0.42    9.36
  14   6 -23    6.25   10.82
 -14  -6  23    1.86    4.96
 -14  -6  23    5.85    5.63
  14   5 -23   12.75    8.64
  14   5 -23   -7.27   10.37
 -14  -5  23    0.23    4.56
 -14  -5  23   -0.25    4.89
  14   4 -23   13.34    8.38
  14   4 -23   -0.37   10.76
 -14  -4  23    9.62    5.42
 -14  -4  23    8.88    4.92
  14   3 -23    1.32    7.40
  14   3 -23  -27.73   10.14
 -14  -3  23    0.70    4.71
 -14  -3  23   -0.67    4.25
  14   2 -23    0.62    7.14
  15   7 -23    2.78   11.42
 -15  -7  23    3.29    5.66
  15   6 -23   -7.78   10.03
  15   6 -23  -26.44   11.30
 -15  -6  23    5.56    5.59
 -15  -6  23    0.25    5.31
  15   5 -23   -9.51    9.83
  15   5 -23    4.61   11.38
 -15  -5  23    8.39    5.27
 -15  -5  23    0.48    4.83
  15   4 -23   -9.51   10.33
  15   4 -23   10.73    8.36
 -15  -4  23    0.25    4.99
 -15  -4  23    0.24    4.54
  15   3 -23    4.49    8.22
 -15  -3  23  -10.59    4.71
 -15  -3  23   -3.94    4.42
  15   2 -23    7.12    7.74
  -1   2 -24    0.68    4.12
   0   2 -24   19.70    4.42
   0  -2  24    2.20    2.99
  -2   2 -24    2.22    4.01
   3   2 -24    2.87    4.31
  -2   3 -24    4.18    6.54
  -2   3 -24   -0.77    4.80
  -3  -2  24    5.91    2.60
   2  -3  24    2.83    2.49
  -1   3 -24    0.19    4.29
  -1   3 -24    6.09    6.18
   1  -3  24    1.13    2.43
   0   3 -24    3.48    6.45
   0  -3  24   -1.43    2.42
   2   3 -24   -0.39    4.32
  -3   2 -24   -1.20    4.26
  -3   3 -24    4.12    4.45
   3   3 -24    1.76    4.36
   3   3 -24   -1.23    7.02
  -3  -3  24    0.57    2.80
   4   3 -24    1.28    7.67
   4   3 -24    1.99    4.62
  -4  -3  24    4.66    3.09
  -2   4 -24   -1.27    5.10
  -2   4 -24   -4.58    6.38
   4   2 -24   -6.86    7.31
   4   2 -24   -4.40    4.13
   2  -4  24   -2.82    2.65
  -4  -2  24    1.61    2.78
  -1   4 -24    6.79    4.91
  -1   4 -24   -4.07    6.15
   1  -4  24    0.99    2.74
   0   4 -24    1.51    6.12
   0  -4  24   -0.13    2.60
   2   4 -24   32.40    6.46
   2   4 -24   -2.29    5.09
  -2  -4  24    9.55    3.27
   3   4 -24    5.25    4.74
   3   4 -24   -0.47    6.99
  -3  -4  24    2.89    2.96
   4   4 -24   -2.34    5.06
   4   4 -24   -8.47    7.46
  -4  -4  24    0.14    3.15
   5   4 -24    5.03    7.37
   5   4 -24   -0.44    4.99
  -5  -4  24   -0.15    2.91
   5   3 -24  -11.91    7.38
   5   3 -24    1.02    4.45
  -5  -3  24   -1.06    2.96
  -2   5 -24   -6.34    6.60
   5   2 -24   -1.09    7.48
  -2   5 -24    2.76    5.35
   5   2 -24   -4.61    4.26
  -5  -2  24    0.30    2.90
   2  -5  24    0.93    2.53
   2  -5  24    3.35    2.91
  -1   5 -24   -6.48    6.40
   1  -5  24   -1.67    2.65
   1   5 -24    6.26    5.51
   2   5 -24    0.22    6.45
   2   5 -24    0.23    5.34
  -2  -5  24   -3.20    2.84
   3   5 -24   -2.11    5.34
   3   5 -24  -15.44    6.92
  -3  -5  24    1.25    3.07
   4   5 -24    9.51    5.50
   4   5 -24   -0.95    7.23
  -4  -5  24    1.89    2.92
   5   5 -24    6.65    6.83
   5   5 -24   -3.38    5.52
  -5  -5  24    0.61    3.21
   6   5 -24   -6.15    7.44
   6   5 -24  -11.36    5.61
  -6  -5  24    3.80    3.11
   6   4 -24    2.28    5.06
   6   4 -24   -8.11    7.51
  -6  -4  24    1.41    3.18
   6   3 -24    3.84    4.82
   6   3 -24   10.46    7.66
  -6  -3  24   -1.43    3.05
   6   2 -24    9.04    7.76
  -2   6 -24    5.42    6.03
   2  -6  24   -1.26    2.50
  -6  -2  24    2.70    2.80
   2  -6  24   -0.14    2.09
   0   6 -24   -5.99    5.78
   0  -6  24   -0.15    2.99
   1   6 -24   -4.55    5.78
   1   6 -24    1.66    6.63
  -1  -6  24    1.32    2.79
  -1  -6  24   -1.94    3.42
   2   6 -24    0.50    5.64
   2   6 -24  -10.17    6.83
  -2  -6  24    3.71    2.85
  -2  -6  24   -0.50    3.52
   3   6 -24    1.13    7.19
   3   6 -24   -5.02    5.63
  -3  -6  24    5.15    3.14
  -3  -6  24    3.30    3.44
   4   6 -24    2.12    6.95
   4   6 -24   -3.56    5.91
  -4  -6  24   -1.44    3.55
  -4  -6  24    2.69    3.24
   5   6 -24   -5.63    7.44
   5   6 -24    4.65    5.82
  -5  -6  24   -0.16    3.15
  -5  -6  24   -1.67    3.63
   6   6 -24   13.75    9.25
   6   6 -24   24.95    7.87
  -6  -6  24   24.79    6.07
  -6  -6  24   12.61    5.64
   7   6 -24    5.43    8.35
  -7  -6  24    0.17    3.66
   7   5 -24    6.83    8.22
  -7  -5  24    3.17    3.70
   7   4 -24   -6.29    7.94
  -7  -4  24   -1.00    3.21
   7   3 -24   -0.29    8.10
  -7  -3  24   -3.72    3.23
   7   2 -24   -1.68    4.84
   7   2 -24    6.74    7.81
  -7  -2  24   10.13    3.35
  -1   7 -24   -5.29    6.13
   1  -7  24   -1.77    2.90
   0   7 -24   -4.25    6.56
   0   7 -24   -2.01    6.25
   0  -7  24   -4.55    3.04
   0  -7  24    2.09    2.96
   1   7 -24   -8.87    6.48
   1   7 -24   -5.05    5.97
  -1  -7  24    1.50    3.14
  -1  -7  24   -0.82    3.15
   2   7 -24    3.23    6.62
   2   7 -24   -3.70    6.43
  -2  -7  24    8.15    3.34
  -2  -7  24    2.58    3.41
   3   7 -24    4.33    6.54
   3   7 -24    4.04    6.83
  -3  -7  24   -2.15    3.43
  -3  -7  24   -0.15    3.27
   4   7 -24    8.16    7.35
   4   7 -24    6.15    6.75
  -4  -7  24    3.57    3.43
  -4  -7  24    4.64    3.76
   5   7 -24    9.47    7.56
   5   7 -24    3.28    7.06
  -5  -7  24    1.93    3.79
  -5  -7  24    0.81    3.46
   6   7 -24   -9.59    7.91
   6   7 -24    3.66    6.87
  -6  -7  24  -10.46    3.74
  -6  -7  24   -2.20    4.00
   7   7 -24   42.34   12.23
   8   7 -24  -12.93    8.54
   8   7 -24    3.24    7.02
  -8  -7  24   -5.58    3.89
  -8  -7  24    1.73    4.33
   8   6 -24   -4.90    6.76
   8   6 -24  -12.72    8.91
  -8  -6  24   -4.98    4.39
  -8  -6  24    0.18    3.90
   8   5 -24    4.27    8.33
   8   5 -24    0.81    6.17
  -8  -5  24    0.41    4.15
  -8  -5  24   -8.96    3.64
   8   4 -24   10.84    5.71
   8   4 -24  -19.88    8.71
  -8  -4  24    0.17    3.43
   8   3 -24    0.69    5.37
   8   3 -24    6.09    8.45
  -8  -3  24   -5.50    3.47
   8   2 -24    3.28    4.98
  -2   8 -24    4.69    5.95
   8   2 -24    2.74    8.18
  -8  -2  24   -8.69    3.19
  -1   8 -24    7.16    6.24
  -1   8 -24   -0.61    6.42
   1  -8  24   -1.39    3.37
   1  -8  24    0.13    2.94
   0   8 -24    7.13    6.50
   0   8 -24    6.79    6.52
   0  -8  24    4.07    3.32
   0  -8  24    4.71    3.32
   1   8 -24   -0.63    6.34
   1   8 -24   -6.82    6.65
  -1  -8  24    3.81    3.31
  -1  -8  24    5.51    3.36
   2   8 -24    1.26    7.05
   2   8 -24   -3.10    7.05
  -2  -8  24    5.83    3.72
  -2  -8  24    8.91    3.41
   3   8 -24   -2.89    7.23
   3   8 -24   -5.29    7.31
  -3  -8  24   -5.49    3.64
  -3  -8  24   -0.56    3.59
   4   8 -24    2.61    7.37
   4   8 -24   -0.24    7.29
  -4  -8  24    0.33    3.71
  -4  -8  24   13.64    4.15
   5   8 -24  -14.57    8.13
   5   8 -24   -2.00    7.42
  -5  -8  24   -2.63    4.14
   6   8 -24   -7.84    7.57
  -6  -8  24   -7.57    4.09
  -6  -8  24   -3.58    4.45
   7   8 -24   -0.27    8.42
  -7  -8  24    1.97    4.29
  -7  -8  24    0.92    3.95
   8   8 -24    6.16    7.48
   8   8 -24    7.42    8.74
  -8  -8  24   -7.50    4.18
   9   8 -24    5.26    7.73
   9   8 -24   14.61    9.27
  -9  -8  24  -10.08    4.26
  -9  -8  24   -2.18    4.49
   9   7 -24    1.01    7.39
   9   7 -24   22.06    9.41
  -9  -7  24   -6.80    4.48
  -9  -7  24   16.76    4.56
   9   6 -24    6.60    6.85
   9   6 -24    0.29    8.74
  -9  -6  24    2.83    3.66
  -9  -6  24    0.22    4.62
   9   5 -24    0.89    8.54
   9   5 -24    5.03    6.34
  -9  -5  24    2.52    4.17
  -9  -5  24    0.92    3.63
   9   4 -24    0.31   10.83
   9   4 -24    8.65    8.10
  -9  -4  24   23.32    6.39
   9   3 -24    6.34    5.58
   9   3 -24   11.10    8.78
  -9  -3  24    0.56    3.55
   9   2 -24    6.28    5.33
   9   2 -24   -1.58    8.28
  -9  -2  24    5.29    3.43
  -1   9 -24   13.77    6.46
  -1   9 -24    1.69    6.86
   1  -9  24    0.81    2.94
   1  -9  24    6.79    3.27
   0   9 -24    3.15    6.88
   0   9 -24    3.09    6.52
   0  -9  24   -4.75    3.27
   0  -9  24   -1.91    3.08
   1   9 -24    1.40    6.92
   1   9 -24    3.85    6.81
  -1  -9  24    2.48    3.33
  -1  -9  24   -1.25    3.31
   2   9 -24    3.22    7.34
   2   9 -24    3.32    7.09
  -2  -9  24    1.70    3.88
  -2  -9  24   -6.75    3.66
   3   9 -24   -0.23    7.20
   3   9 -24   11.31    7.53
  -3  -9  24   15.51    4.31
  -3  -9  24   -1.33    3.73
   4   9 -24   24.86   11.06
   4   9 -24   64.60   11.77
  -4  -9  24   31.26    8.39
  -4  -9  24   30.08    8.76
   5   9 -24    7.79    7.29
   5   9 -24    2.21    7.82
  -5  -9  24   -7.63    3.91
  -5  -9  24    2.33    4.29
   6   9 -24   -6.46    7.72
   6   9 -24    4.52    7.86
  -6  -9  24    0.22    4.13
  -6  -9  24    0.18    3.95
   7   9 -24    5.04    8.27
   7   9 -24    0.27    8.18
  -7  -9  24   -9.76    4.23
  -7  -9  24    6.20    4.32
   8   9 -24    7.21    8.88
  -8  -9  24    0.40    4.20
   9   9 -24   -0.30    9.66
   9   9 -24  -17.48   10.17
  -9  -9  24    0.26    5.46
  -9  -9  24  -16.76    5.00
  10   9 -24    0.33   10.29
  10   9 -24    1.35    9.29
 -10  -9  24    0.22    4.64
 -10  -9  24    0.27    5.01
  10   7 -24    5.50    8.00
  10   7 -24   17.36    9.37
 -10  -7  24    0.41    4.38
 -10  -7  24    9.71    4.91
  10   6 -24  -13.40    7.28
  10   6 -24   -5.37    9.30
 -10  -6  24   -1.82    4.45
 -10  -6  24    0.20    4.13
  10   5 -24   15.48    9.84
  10   5 -24   14.94    7.48
 -10  -5  24   10.14    4.79
 -10  -5  24   12.25    5.01
  10   4 -24    0.56    6.34
  10   4 -24    5.42    8.95
 -10  -4  24    2.36    3.93
  10   3 -24  -10.25    9.42
  10   3 -24    0.52    6.01
 -10  -3  24    4.87    3.74
  10   2 -24   -7.77    5.56
  10   2 -24   -7.22    8.88
 -10  -2  24   -3.45    3.44
  -1  10 -24   -4.35    6.87
  -1  10 -24   -1.93    7.17
   1 -10  24   -2.01    3.35
   1 -10  24   -0.18    3.26
   0  10 -24   -7.32    7.12
   0  10 -24    0.40    7.71
   0 -10  24   -3.07    3.80
   0 -10  24   -0.74    3.41
   1  10 -24   -6.89    7.22
   1  10 -24   -2.39    7.65
  -1 -10  24   -5.91    3.88
  -1 -10  24   -0.17    3.77
   2  10 -24    0.23    7.04
   2  10 -24   -6.08    7.68
  -2 -10  24   -2.25    3.69
  -2 -10  24    1.22    3.79
   3  10 -24   -5.37    8.04
   3  10 -24   -3.51    7.10
  -3 -10  24    1.07    4.05
  -3 -10  24    0.18    3.82
   4  10 -24   -6.49    7.47
   4  10 -24   15.08    8.02
  -4 -10  24    1.57    4.08
  -4 -10  24    0.18    3.97
   5  10 -24   19.14    8.61
   5  10 -24    8.90    7.76
  -5 -10  24    1.12    4.66
  -5 -10  24    4.54    4.68
   6  10 -24   -8.52    8.67
   6  10 -24    0.26    7.68
  -6 -10  24   -7.92    4.18
  -6 -10  24    3.31    4.60
   7  10 -24    2.44    8.47
   7  10 -24   10.08    8.92
  -7 -10  24    0.25    4.20
  -7 -10  24   -4.41    4.12
   8  10 -24   -2.82    9.78
  -8 -10  24  -20.44    5.33
   9  10 -24    0.30    9.52
   9  10 -24   -5.65    9.71
  -9 -10  24   -0.28    5.08
  -9 -10  24  -10.91    4.82
  10  10 -24  -31.71   10.07
  10  10 -24   18.86   10.62
 -10 -10  24    0.29    5.41
 -10 -10  24    2.53    4.93
  11  10 -24   11.79    9.67
  11  10 -24   -8.68   10.54
 -11 -10  24    0.24    5.18
  11   9 -24    5.14   10.27
  11   9 -24    6.60    9.95
 -11  -9  24   -3.03    4.99
 -11  -9  24   -0.56    5.33
  11   8 -24   12.66    9.36
  11   8 -24    0.34    9.99
 -11  -8  24    0.22    4.51
 -11  -8  24    0.53    5.12
 -11  -7  24  215.19   39.88
  11   6 -24    0.33    9.55
  11   6 -24    8.23    7.61
 -11  -6  24    0.21    4.25
 -11  -6  24   -1.91    4.64
  11   5 -24   14.07    7.24
  11   5 -24    0.33    9.49
 -11  -5  24    1.61    4.64
 -11  -5  24   -5.54    4.18
  11   4 -24    7.66    6.66
  11   4 -24    0.68    9.61
 -11  -4  24    4.33    4.05
  11   3 -24    0.34    9.29
  11   3 -24   12.64    6.56
 -11  -3  24    0.21    3.93
  11   2 -24    2.33    6.39
 -11  -2  24    3.03    3.76
  -1  11 -24   -5.88    6.83
  -1  11 -24  -14.48    7.76
   1 -11  24    1.23    3.45
   1 -11  24   -0.17    3.76
   0  11 -24    0.87    6.88
   0  11 -24    2.69    8.01
   0 -11  24   -3.70    3.69
   0 -11  24   -4.26    3.87
   1  11 -24    2.44    6.99
   1  11 -24    4.07    8.09
  -1 -11  24   -0.18    3.91
  -1 -11  24    5.42    3.70
   2  11 -24    3.25    8.46
   2  11 -24   14.06    7.34
  -2 -11  24    0.38    4.27
  -2 -11  24    1.55    4.00
   3  11 -24    1.16    7.33
   3  11 -24   13.31    9.09
  -3 -11  24   -0.23    4.69
  -3 -11  24   17.76    4.71
   4  11 -24   -9.93    9.11
   4  11 -24    0.24    7.35
  -4 -11  24    1.95    4.39
  -4 -11  24    5.34    4.31
   5  11 -24    0.48    8.57
   5  11 -24    1.00    7.66
  -5 -11  24    0.20    4.07
  -5 -11  24    0.25    4.74
   6  11 -24    8.26    8.10
   6  11 -24   15.35    9.33
  -6 -11  24    0.26    4.75
  -6 -11  24    5.15    4.29
   7  11 -24   36.18   24.58
   7  11 -24   46.60   26.93
  -7 -11  24   91.24   21.05
  -7 -11  24   54.10   22.01
   8  11 -24    0.29    9.02
  -8 -11  24    2.19    4.95
   9  11 -24  -12.03   10.97
   9  11 -24   -3.67    9.66
  -9 -11  24  -10.27    5.25
  -9 -11  24   -0.30    5.44
  10  11 -24  -29.95   10.35
 -10 -11  24    0.96    5.03
  12   9 -24  -12.26   10.92
 -12  -9  24    0.25    5.37
 -12  -9  24    0.30    5.04
  12   8 -24   -2.18   11.05
  12   8 -24   11.91    9.75
 -12  -8  24   -0.28    5.36
 -12  -8  24    6.40    5.06
  12   7 -24    1.06   10.64
  12   7 -24   -2.09    9.03
 -12  -7  24   13.93    4.86
 -12  -7  24    0.26    5.63
  12   6 -24  -22.49   10.24
  12   6 -24   -3.02    8.58
 -12  -6  24    4.21    4.76
 -12  -6  24    1.50    4.99
  12   5 -24   31.39   14.54
 -12  -5  24   46.82   12.37
 -12  -5  24   51.05   13.71
  12   4 -24  -14.30    7.38
  12   4 -24  -19.55   10.46
 -12  -4  24    3.89    4.12
 -12  -4  24    2.10    4.76
  12   3 -24  -14.64    9.91
  12   3 -24    5.06    6.98
 -12  -3  24  -12.23    4.31
  12   2 -24    6.39    6.47
 -12  -2  24    4.87    4.17
  -1  12 -24    7.92    7.03
   1 -12  24    0.19    4.24
   0  12 -24   16.43    8.33
   0 -12  24    9.35    5.39
   0 -12  24   15.56    5.54
   1  12 -24   -0.23    7.25
   1  12 -24   -4.51    8.40
  -1 -12  24    0.20    4.34
  -1 -12  24    3.10    4.44
   2  12 -24  -10.00    7.33
   2  12 -24    6.21    9.26
  -2 -12  24    1.02    4.68
  -2 -12  24    2.85    4.59
   3  12 -24    5.31    9.15
   3  12 -24   -0.24    7.48
  -3 -12  24   -0.27    4.87
  -3 -12  24   -0.21    4.43
   4  12 -24   -2.96    7.60
   4  12 -24  -16.04    9.28
  -4 -12  24    4.17    4.66
  -4 -12  24  -11.15    5.05
   5  12 -24   66.83   16.68
   5  12 -24   22.68   15.63
  -5 -12  24   41.64   12.58
  -5 -12  24   69.86   13.06
   6  12 -24   10.68   10.35
   6  12 -24    0.26    7.65
  -6 -12  24    0.22    4.65
  -6 -12  24    0.29    5.19
   7  12 -24   15.02   10.84
   7  12 -24    1.66    8.83
  -7 -12  24    0.30    5.61
  -7 -12  24   -0.23    4.95
   8  12 -24    2.59    9.18
  -8 -12  24    1.17    5.10
  13   8 -24  -13.27   12.11
  13   8 -24   15.48   10.08
 -13  -8  24    5.03    5.20
  13   7 -24    0.38   10.80
  13   7 -24   -4.42    9.82
 -13  -7  24    0.28    5.65
 -13  -7  24    1.20    5.03
  13   6 -24  -21.28   10.89
  13   6 -24    6.76    8.99
 -13  -6  24    0.23    4.73
 -13  -6  24    1.84    5.06
  13   5 -24   -1.07    7.92
  13   5 -24  -11.85   11.14
 -13  -5  24   -2.29    4.58
 -13  -5  24    0.25    4.99
  13   4 -24    7.17   10.68
  13   4 -24  -13.30    7.74
 -13  -4  24    3.45    4.55
 -13  -4  24    0.73    4.73
  13   3 -24   -6.12    7.49
  13   3 -24    0.37   10.34
 -13  -3  24    0.22    4.27
  13   2 -24   11.04    7.68
   0  13 -24    6.31    8.61
   0 -13  24   18.27    5.99
   1  13 -24   28.38   11.99
  -1 -13  24   35.81    9.22
   2  13 -24   14.11    8.40
  -2 -13  24   12.43    5.98
   3  13 -24   -0.24    7.28
  -3 -13  24  -15.59    5.87
   4  13 -24    0.25    7.52
  -4 -13  24    0.23    4.86
  -4 -13  24  -13.98    5.65
   5  13 -24  -13.10    7.68
  -5 -13  24    0.23    5.17
  -5 -13  24    0.33    5.73
   6  13 -24    0.26    8.19
  -6 -13  24    0.35    5.93
  -6 -13  24    5.91    5.26
   7  13 -24   -5.86    8.75
  -7 -13  24    0.24    5.26
  14   7 -24   17.30   12.05
 -14  -7  24    1.78    5.58
  14   6 -24    6.58    9.80
  14   6 -24   -3.12   11.19
 -14  -6  24    0.25    5.13
 -14  -6  24   -0.55    5.52
  14   5 -24  -12.60   12.00
  14   5 -24   11.37    9.09
 -14  -5  24   12.87    5.47
 -14  -5  24    0.98    4.96
  14   4 -24   18.37   10.77
  14   4 -24    5.37    8.34
 -14  -4  24   -3.13    4.81
 -14  -4  24   -0.25    5.14
  14   3 -24  -25.81   10.76
  14   3 -24   -3.37    7.86
 -14  -3  24    2.57    4.25
 -14  -3  24   -5.42    4.94
  14   2 -24   -6.82    7.71
  15   5 -24   -9.07    9.81
  15   5 -24   11.83   11.66
 -15  -5  24    0.26    5.39
  15   4 -24    1.16    8.80
  15   4 -24   -4.82   10.69
 -15  -4  24    0.26    5.13
 -15  -4  24    2.24    4.76
  15   3 -24    0.36    8.36
 -15  -3  24   10.69    4.81
 -15  -3  24    3.79    5.40
  15   2 -24    6.10    8.12
   1   2 -25    4.23    4.57
  -2   2 -25    7.60    5.54
   2   2 -25    2.24    4.42
  -2  -2  25    5.64    3.27
   3   2 -25   -2.28    4.25
  -2   3 -25    1.85    4.67
  -3  -2  25   -0.15    2.82
   2  -3  25    0.13    2.62
  -1   3 -25   -1.43    7.18
   1  -3  25   -0.40    2.57
   1   3 -25    5.30    4.64
   2   3 -25   -2.05    4.70
   2   3 -25    3.13    7.17
  -3   2 -25   -2.22    4.66
  -2  -3  25    1.03    2.84
   3   3 -25    5.38    7.26
   3   3 -25   -3.95    4.72
  -3  -3  25   -0.91    2.81
   4   3 -25    3.05    7.72
   4   3 -25    2.11    4.69
  -4  -3  25    0.94    3.12
   4   2 -25   -3.62    7.47
  -2   4 -25   -0.23    6.40
   4   2 -25   -3.57    4.59
   2  -4  25   -1.30    2.63
  -4  -2  25    2.47    2.71
   0   4 -25   -1.55    4.98
   1   4 -25    2.65    5.56
   1   4 -25   26.03    7.42
  -1  -4  25    2.39    3.27
   2   4 -25    0.25    6.97
   2   4 -25    3.77    5.01
  -2  -4  25    1.29    2.76
   3   4 -25   -2.46    5.04
   3   4 -25   -9.69    7.31
  -3  -4  25    0.59    3.09
   4   4 -25   -4.52    5.19
   4   4 -25    1.85    7.69
  -4  -4  25   -1.08    3.09
   5   4 -25    3.29    5.58
   5   4 -25   -1.65    7.57
  -5  -4  25   -1.61    3.11
   5   3 -25  -17.27    7.98
   5   3 -25   -3.24    5.08
  -5  -3  25    1.63    3.01
  -2   5 -25    0.84    6.27
   5   2 -25    4.69    4.44
   5   2 -25   -0.86    7.53
  -5  -2  25   -5.13    2.93
   0   5 -25    1.73    6.93
   0  -5  25   14.02    4.38
   1   5 -25    0.50    5.69
   1   5 -25    0.23    6.84
  -1  -5  25    0.83    2.79
   2   5 -25    5.47    5.63
   2   5 -25   -7.53    7.07
  -2  -5  25    1.00    2.80
   3   5 -25   -0.98    7.22
   3   5 -25    5.26    5.64
  -3  -5  25   -1.34    3.02
   4   5 -25    7.40    7.31
   4   5 -25   -1.77    5.78
  -4  -5  25   -0.15    3.15
   5   5 -25    1.80    5.62
   5   5 -25    2.12    7.79
  -5  -5  25    3.08    3.37
   6   5 -25    7.19    8.36
   6   5 -25   11.51    6.34
  -6  -5  25    5.59    4.04
   6   4 -25    3.71    8.70
   6   4 -25   18.84    6.27
  -6  -4  25    0.17    3.73
   6   3 -25   -3.62    4.89
   6   3 -25    4.48    8.23
  -6  -3  25    0.17    3.28
   6   2 -25    3.88    7.74
   6   2 -25   -5.27    4.81
  -6  -2  25   10.36    3.25
  -1   6 -25   -0.53    6.14
   1  -6  25   -0.13    2.31
   1  -6  25   -1.26    3.07
   0   6 -25   -2.39    6.99
   0   6 -25    6.17    6.07
   0  -6  25   -3.98    3.38
   0  -6  25    1.33    2.87
   1   6 -25   -1.11    6.88
   1   6 -25    2.64    5.89
  -1  -6  25   -0.28    2.85
  -1  -6  25    0.87    3.43
   2   6 -25    7.43    6.31
   2   6 -25    3.95    7.50
  -2  -6  25   17.27    3.98
  -2  -6  25   -6.84    3.27
   3   6 -25    3.21    6.07
   3   6 -25   -0.24    7.26
  -3  -6  25    0.61    3.15
  -3  -6  25   -0.19    3.38
   4   6 -25   12.16    7.06
   4   6 -25    4.54    8.16
  -4  -6  25   13.79    4.49
  -4  -6  25   23.29    5.24
   5   6 -25    4.39    7.00
   5   6 -25    4.73    8.06
  -5  -6  25    8.44    4.11
  -5  -6  25   14.25    4.48
   6   6 -25    3.83    8.28
   6   6 -25    4.48    6.55
  -6  -6  25   -3.11    3.58
  -6  -6  25  -10.23    4.38
   7   6 -25  -17.53    9.42
  -7  -6  25   -9.58    4.09
  -7  -6  25    0.21    4.45
   7   5 -25  -21.34    8.97
  -7  -5  25   -1.77    3.89
   7   4 -25   -5.95    8.36
  -7  -4  25   -3.70    3.58
   7   3 -25    0.62    8.45
  -7  -3  25    0.18    3.36
  -2   7 -25    6.08    6.15
   7   2 -25    1.24    8.10
  -7  -2  25    0.17    3.07
  -1   7 -25    4.21    7.04
  -1   7 -25   -4.54    6.74
   1  -7  25    6.03    2.82
   1  -7  25    0.95    3.08
   0   7 -25   12.13    6.75
   0   7 -25    2.61    6.88
   0  -7  25    1.18    3.46
   0  -7  25    7.31    3.36
   1   7 -25   -7.52    6.76
   1   7 -25    0.22    6.86
  -1  -7  25    0.88    3.31
  -1  -7  25   -2.31    3.15
   2   7 -25    6.26    7.24
   2   7 -25    3.35    6.96
  -2  -7  25    0.15    3.18
  -2  -7  25    1.11    3.58
   3   7 -25    4.92    6.88
   3   7 -25    7.00    7.57
  -3  -7  25    8.42    3.83
  -3  -7  25   -0.47    3.52
   4   7 -25  -16.69    6.64
   4   7 -25    0.25    7.34
  -4  -7  25    0.16    3.44
  -4  -7  25    3.57    4.08
   5   7 -25  -12.01    8.14
   5   7 -25  -14.23    7.39
  -5  -7  25   -7.88    4.18
  -5  -7  25   -8.00    4.67
   6   7 -25   -0.32    7.43
  -6  -7  25  -15.30    4.93
   7   7 -25    0.66    7.20
   7   7 -25   -1.45    8.77
  -7  -7  25   -8.15    4.17
  -7  -7  25   -4.29    3.93
   8   7 -25   -3.33    9.15
   8   7 -25    2.05    7.87
  -8  -7  25    0.20    4.25
   8   6 -25    7.31    9.00
   8   6 -25    6.39    7.13
  -8  -6  25   11.20    4.29
   8   5 -25   14.39    9.28
   8   5 -25    7.98    6.84
  -8  -5  25    0.93    4.29
  -8  -5  25   12.73    5.01
   8   4 -25   -4.26    7.80
   8   4 -25    6.83   10.79
  -8  -4  25   14.87    5.87
   8   3 -25    5.57    5.59
   8   3 -25   -1.29    8.93
  -8  -3  25    1.87    3.80
   8   2 -25    4.18    5.20
   8   2 -25  -25.01    8.66
  -8  -2  25   -2.19    3.28
  -1   8 -25    5.79    7.10
  -1   8 -25   17.26    7.32
   1  -8  25    4.66    4.08
   1  -8  25   17.46    4.03
   0   8 -25    4.97    7.05
   0   8 -25    0.22    6.78
   0  -8  25   -0.14    3.21
   0  -8  25    2.98    3.40
   1   8 -25   13.56    7.31
   1   8 -25    0.46    7.61
  -1  -8  25   12.14    4.03
  -1  -8  25   11.90    4.40
   2   8 -25   -5.39    7.40
   2   8 -25    0.24    7.25
  -2  -8  25   -0.16    3.32
  -2  -8  25    5.17    3.92
   3   8 -25    0.25    8.19
   3   8 -25   12.64    7.85
  -3  -8  25   16.17    4.33
  -3  -8  25    0.82    3.93
   4   8 -25   80.84   12.42
   4   8 -25   14.56   11.18
  -4  -8  25   46.04    8.63
  -4  -8  25   22.19    9.03
   5   8 -25    9.57    8.89
   5   8 -25   30.32    8.38
  -5  -8  25   13.51    4.68
  -5  -8  25    4.52    4.86
   6   8 -25    7.20    7.42
   6   8 -25  -30.05    8.60
  -6  -8  25    0.19    4.10
  -6  -8  25    1.12    4.36
   7   8 -25    9.16    8.68
   7   8 -25    3.70    7.81
  -7  -8  25    0.19    4.12
  -7  -8  25    0.23    4.57
   8   8 -25   12.59    9.63
  -8  -8  25    0.20    4.38
   9   8 -25  -25.96   10.30
   9   8 -25    4.75    8.83
  -9  -8  25  -12.07    5.43
   9   7 -25    0.97    9.90
   9   7 -25   -3.19    7.81
  -9  -7  25    0.48    4.77
  -9  -7  25   -2.47    3.99
   9   6 -25   -1.90    7.25
   9   6 -25   -0.32    9.75
  -9  -6  25    0.20    4.08
  -9  -6  25    4.15    4.60
   9   5 -25    0.32    9.48
   9   5 -25   13.57    7.03
  -9  -5  25   18.76    5.36
  -9  -5  25    7.45    4.78
   9   4 -25   12.18    6.51
   9   4 -25    0.33    9.69
  -9  -4  25    6.91    4.38
   9   3 -25   -2.02    9.19
   9   3 -25   -9.80    6.14
  -9  -3  25   -8.66    3.78
   9   2 -25    0.74    5.73
  -9  -2  25    0.19    3.43
  -1   9 -25   -3.60    7.48
  -1   9 -25    9.67    7.23
   1  -9  25    4.25    3.63
   1  -9  25    5.85    3.49
   0   9 -25   40.13   10.12
   0   9 -25    4.35    9.54
   0  -9  25   20.31    6.53
   0  -9  25   23.72    6.51
   1   9 -25   -6.33    7.98
   1   9 -25   20.22    7.86
  -1  -9  25   10.46    3.99
  -1  -9  25    2.68    4.20
   2   9 -25    2.94    8.08
   2   9 -25  -18.58    8.01
  -2  -9  25   15.77    4.13
  -2  -9  25    0.17    3.87
   3   9 -25   -1.87    7.80
   3   9 -25   -7.63    7.96
  -3  -9  25   -2.91    4.13
  -3  -9  25   -2.77    3.75
   4   9 -25   10.17    7.82
   4   9 -25   20.96    8.45
  -4  -9  25   10.84    4.72
  -4  -9  25   -0.18    4.33
   5   9 -25    2.89    8.30
   5   9 -25    8.15    8.41
  -5  -9  25    6.13    4.41
  -5  -9  25    5.43    4.64
   6   9 -25    9.92    8.28
   6   9 -25  -18.70    8.45
  -6  -9  25    2.89    4.15
  -6  -9  25   -0.24    4.80
   7   9 -25    3.48    8.79
   7   9 -25   -1.63    8.44
  -7  -9  25    0.40    4.19
  -7  -9  25    2.44    4.37
   8   9 -25  -10.26    9.67
  -8  -9  25    0.21    4.60
   9   9 -25  -16.86   11.03
   9   9 -25  -13.53    9.83
  -9  -9  25  -16.25    5.91
  -9  -9  25  -22.75    6.56
  10   9 -25  -20.39   10.29
  10   9 -25    2.73    9.69
 -10  -9  25    0.23    4.92
 -10  -9  25   13.55    5.67
  10   8 -25   15.68    9.28
  10   8 -25  -12.80   10.86
 -10  -8  25    1.07    5.41
 -10  -8  25   -2.68    4.67
  10   7 -25  -22.34   10.03
  10   6 -25    1.72    7.80
  10   6 -25  -18.64    9.96
 -10  -6  25   10.08    5.04
 -10  -6  25    4.42    4.44
  10   5 -25   -5.03    9.79
  10   5 -25   11.34    7.40
 -10  -5  25    5.55    4.49
 -10  -5  25    1.85    4.24
  10   4 -25   -5.54    9.68
  10   4 -25   -3.87    6.70
 -10  -4  25    4.14    4.13
  10   3 -25    7.99    6.52
  10   3 -25    4.55    9.47
 -10  -3  25    1.85    3.98
  10   2 -25    7.70    6.08
 -10  -2  25   -0.61    3.61
  -1  10 -25    1.54    7.17
  -1  10 -25    0.41    7.85
   1 -10  25    1.47    3.23
   1 -10  25   -8.54    3.60
   0  10 -25   -2.45    7.89
   0  10 -25    0.23    7.18
   0 -10  25    2.55    3.80
   0 -10  25    2.82    3.44
   1  10 -25    7.13    8.40
   1  10 -25    0.24    7.56
  -1 -10  25    1.43    3.72
  -1 -10  25   -1.21    3.67
   2  10 -25    0.43    8.28
   2  10 -25   -0.24    7.82
  -2 -10  25   -0.18    3.63
  -2 -10  25    1.73    4.00
   3  10 -25    7.58    8.57
   3  10 -25   -1.76    8.13
  -3 -10  25    1.47    3.74
  -3 -10  25    5.70    4.22
   4  10 -25   -1.71    8.66
   4  10 -25   -2.32    7.98
  -4 -10  25    2.08    4.31
  -4 -10  25    0.76    4.03
   5  10 -25    0.44    8.77
   5  10 -25  -15.93    8.30
  -5 -10  25    8.67    4.72
  -5 -10  25   11.69    4.12
   6  10 -25    0.27    8.46
   6  10 -25   10.29    8.85
  -6 -10  25  -13.07    4.33
  -6 -10  25    0.25    4.69
   7  10 -25  -17.48    9.98
   7  10 -25   -5.97   10.12
  -7 -10  25  -15.02    5.33
  -7 -10  25   -7.84    5.87
   8  10 -25   -1.22    9.58
  -8 -10  25  -10.22    4.77
   9  10 -25   16.33   10.32
   9  10 -25   -0.98    9.77
  -9 -10  25    0.85    5.32
  -9 -10  25    0.46    4.91
  10  10 -25   18.00    9.66
  10  10 -25   -9.26   10.43
 -10 -10  25    0.31    4.65
 -10 -10  25    0.24    5.17
  11   9 -25  -13.60   11.12
 -11  -9  25   -4.13    5.82
 -11  -9  25   -7.54    5.31
  11   8 -25  -14.85   10.37
  11   8 -25    3.54    9.85
 -11  -8  25   -3.63    5.39
 -11  -8  25   -6.84    5.01
  11   7 -25  -12.52    8.91
  11   7 -25    4.71   11.32
 -11  -7  25    5.70    4.80
 -11  -7  25    3.66    4.96
  11   6 -25   -2.84   11.48
  11   6 -25  -19.09    9.03
 -11  -6  25  -15.04    5.91
 -11  -6  25  -16.90    5.96
  11   5 -25  -10.19    8.25
  11   5 -25  -37.47   11.22
 -11  -5  25   -5.06    5.41
 -11  -5  25  -14.30    5.05
  11   4 -25    7.13    7.01
  11   4 -25    1.44   10.22
 -11  -4  25    5.97    4.48
  11   3 -25    1.74    6.67
  11   3 -25    2.91    9.88
 -11  -3  25    1.08    4.09
  11   2 -25   -2.46    6.43
 -11  -2  25   -0.21    3.59
  -1  11 -25    0.45    7.25
  -1  11 -25   -1.81    8.00
   0  11 -25    0.47    8.49
   0  11 -25    1.87    7.59
   0 -11  25   -2.80    3.60
   0 -11  25    2.54    3.88
   1  11 -25   -4.76    9.04
   1  11 -25   -1.68    7.48
  -1 -11  25   -0.22    3.84
  -1 -11  25   -3.57    4.18
   2  11 -25   -8.31    9.20
   2  11 -25   -2.95    7.65
  -2 -11  25   -2.80    4.48
  -2 -11  25    2.30    4.06
   3  11 -25    7.79    7.92
   3  11 -25   -7.30    9.30
  -3 -11  25    4.32    4.30
  -3 -11  25    1.96    4.60
   4  11 -25   10.01    8.22
   4  11 -25    9.42    9.76
  -4 -11  25  -14.66    4.57
  -4 -11  25    2.50    4.39
   5  11 -25    1.08    8.70
   5  11 -25    1.01    9.72
  -5 -11  25   -0.26    5.29
  -5 -11  25  -14.20    5.07
   6  11 -25  -11.66    9.61
   6  11 -25  -28.51   10.57
  -6 -11  25   -7.89    5.75
  -6 -11  25   -5.92    5.39
   7  11 -25    1.76    9.11
   7  11 -25  -15.95   10.31
  -7 -11  25    0.28    5.04
  -7 -11  25   -8.96    4.61
   8  11 -25    0.31    9.73
  -8 -11  25   12.94    5.38
   9  11 -25   -8.95   10.12
  -9 -11  25    0.71    5.36
  12   8 -25    6.22   11.56
 -12  -8  25    0.30    5.01
 -12  -8  25    1.75    5.22
  12   7 -25    8.08    9.23
  12   7 -25  -15.55   11.04
 -12  -7  25    7.24    5.60
 -12  -7  25  -12.03    4.97
  12   6 -25   11.32   11.13
  12   6 -25   -8.31    9.12
 -12  -6  25    5.02    5.19
 -12  -6  25  -12.46    4.88
  12   5 -25    2.84    8.16
  12   5 -25    1.51   10.84
 -12  -5  25   -6.92    4.70
 -12  -5  25    8.59    5.21
  12   4 -25  -10.36    8.40
  12   4 -25  -31.54   12.11
 -12  -4  25  -16.04    5.99
  12   3 -25    8.47   11.01
 -12  -3  25   31.56    8.91
  12   2 -25   -6.15    7.59
   0  12 -25  -10.13    7.84
   0 -12  25    5.88    4.43
   0 -12  25    3.16    4.27
   1  12 -25   -3.16    9.20
   1  12 -25   -7.39    7.96
  -1 -12  25   -2.84    4.67
  -1 -12  25    1.78    4.57
   2  12 -25  -29.81    9.40
   2  12 -25   -7.60   10.81
  -2 -12  25  -17.67    5.43
  -2 -12  25  -11.46    5.84
   3  12 -25   40.48   14.17
   3  12 -25   32.29   14.53
  -3 -12  25   39.91   10.79
  -3 -12  25   48.32   10.78
   4  12 -25  -16.79   10.74
   4  12 -25  -19.82    9.30
  -4 -12  25  -13.88    6.19
   5  12 -25   11.22    8.64
   5  12 -25   -0.57   10.01
  -5 -12  25    1.45    5.52
  -5 -12  25   13.23    5.02
   6  12 -25    0.28    8.43
   6  12 -25    2.35   11.13
  -6 -12  25   -0.30    5.49
  -6 -12  25    1.13    5.05
   7  12 -25   23.23    9.64
   7  12 -25    0.60   10.72
  -7 -12  25   -0.95    5.95
  -7 -12  25    8.79    5.24
  13   7 -25    3.24   11.89
 -13  -7  25    4.59    5.52
  13   6 -25   10.00    9.11
  13   6 -25  -21.79   11.96
 -13  -6  25    9.16    5.66
 -13  -6  25   -7.91    5.30
  13   5 -25   -0.37    8.41
  13   5 -25    0.40   11.65
 -13  -5  25   -7.43    5.24
 -13  -5  25   10.09    5.00
  13   4 -25   -2.44    8.25
  13   4 -25   18.78   10.95
 -13  -4  25    1.27    5.08
 -13  -4  25    1.95    4.52
  13   3 -25    4.74    8.16
  13   3 -25    0.39   10.56
 -13  -3  25    3.76    4.63
  13   2 -25    6.91    7.15
   0  13 -25   -7.77    7.79
   0 -13  25    2.16    4.83
   1  13 -25   -7.63    8.22
  -1 -13  25    3.98    4.83
   2  13 -25    0.52    7.78
  -2 -13  25   -0.23    5.02
  -2 -13  25   -1.26    5.28
   3  13 -25  -18.52    8.12
  -3 -13  25  -22.81    5.47
  -3 -13  25    2.26    4.91
   4  13 -25    0.27    8.42
  -4 -13  25    0.33    5.53
  -4 -13  25  -10.84    5.00
   5  13 -25    0.28    8.55
  -5 -13  25    3.81    6.00
  -5 -13  25    6.83    5.33
   6  13 -25  -32.34    9.36
  -6 -13  25  -13.77    5.40
  14   6 -25    5.09   12.56
 -14  -6  25    7.10    5.44
  14   5 -25    0.42   11.79
  14   5 -25   -1.23    9.07
 -14  -5  25   -1.66    5.62
 -14  -5  25    7.33    5.37
  14   4 -25    3.72   11.52
  14   4 -25    5.63    8.62
 -14  -4  25   -3.53    5.09
 -14  -4  25    5.84    5.40
  14   3 -25    1.41    8.38
 -14  -3  25   -2.21    4.55
  14   2 -25   -0.33    7.62
  15   4 -25   -4.24   11.77
 -15  -4  25    4.96    5.20
  15   3 -25    0.38    8.66
 -15  -3  25    0.27    5.23
   0   2 -26    5.59    4.70
   1   2 -26   -0.58    4.31
   2   2 -26    1.98    4.53
   3   2 -26   -0.61    4.70
  -3  -2  26    0.63    2.81
  -1   3 -26    6.72    5.79
   0   3 -26   -1.30    5.95
   0   3 -26   34.55    7.41
   0  -3  26    6.82    3.45
   1   3 -26   11.25    5.90
   1   3 -26   18.73    8.19
  -1  -3  26   13.91    4.15
   2   3 -26    0.28    7.57
   2   3 -26    5.66    5.05
  -2  -3  26   -0.93    3.04
   3   3 -26   17.39    8.12
   3   3 -26    5.07    5.46
  -3  -3  26    8.01    3.77
   4   3 -26   -2.95    7.95
   4   3 -26    3.81    4.99
  -4  -3  26    0.17    2.98
   4   2 -26   -0.21    4.87
  -4  -2  26   -2.94    2.91
  -1   4 -26   -0.48    5.55
   0   4 -26   -5.67    5.80
   0   4 -26    2.82    7.22
   0  -4  26    0.88    2.79
   1   4 -26    0.47    5.47
   1   4 -26   -2.85    7.55
  -1  -4  26    4.47    2.95
   2   4 -26    1.41    5.46
   2   4 -26    0.54    7.73
  -2  -4  26    1.85    2.96
   3   4 -26    8.33    7.99
   3   4 -26   -2.61    5.30
  -3  -4  26    2.88    3.20
   4   4 -26    0.29    8.28
   4   4 -26   -3.36    5.52
  -4  -4  26   -8.84    3.57
   5   4 -26    7.99    5.88
   5   4 -26   19.71    9.01
  -5  -4  26    2.96    3.72
   5   3 -26    0.31    7.91
   5   3 -26   -0.92    5.11
  -5  -3  26    2.95    3.34
   5   2 -26    3.69    4.80
  -2   5 -26   -3.22    6.13
  -5  -2  26   -0.17    2.79
  -1   5 -26   -2.11    5.90
  -1   5 -26    0.23    6.64
   1  -5  26    2.89    2.80
   0   5 -26    1.32    6.08
   0   5 -26   -6.28    6.97
   0  -5  26   -0.43    2.82
   1   5 -26   12.99    7.28
   1   5 -26   -3.71    6.37
  -1  -5  26    0.44    3.02
   2   5 -26   -3.18    6.00
   2   5 -26    6.36    7.54
  -2  -5  26    8.21    3.36
   3   5 -26    3.70    7.85
   3   5 -26    3.99    6.25
  -3  -5  26    3.48    3.34
   4   5 -26    2.20    8.20
   4   5 -26   -0.81    6.12
  -4  -5  26    9.58    3.59
   5   5 -26    9.26    6.71
   5   5 -26  -10.01    8.96
  -5  -5  26   14.99    4.24
   6   5 -26   17.60    9.80
  -6  -5  26   23.59    5.64
   6   4 -26    0.31    8.66
   6   4 -26    2.30    6.00
  -6  -4  26    2.18    3.59
   6   3 -26    7.92    9.25
   6   3 -26    6.47    5.95
  -6  -3  26    3.80    4.02
   6   2 -26    5.15    4.92
  -6  -2  26    0.18    3.17
  -1   6 -26    3.78    6.75
  -1   6 -26   -2.85    6.11
   1  -6  26    2.58    2.77
   1  -6  26    4.74    3.48
   0   6 -26    4.04    6.45
   0   6 -26   -0.23    7.01
   0  -6  26    1.78    3.52
   0  -6  26    2.98    2.98
   1   6 -26    0.24    7.24
   1   6 -26    1.41    6.68
  -1  -6  26    2.42    3.61
  -1  -6  26    2.81    3.09
   2   6 -26   -2.27    6.37
   2   6 -26    0.75    7.29
  -2  -6  26    0.77    3.77
  -2  -6  26    5.23    3.35
   3   6 -26   15.38    7.70
   3   6 -26    6.53    8.92
  -3  -6  26   22.55    5.56
  -3  -6  26   17.66    4.90
   4   6 -26   -2.58    6.59
   4   6 -26    0.27    8.00
  -4  -6  26   -6.73    4.05
  -4  -6  26    0.17    3.50
   5   6 -26    9.90    7.26
   5   6 -26   21.24    9.55
  -5  -6  26   11.03    4.62
  -5  -6  26    8.82    5.26
   6   6 -26   -0.29    8.80
   6   6 -26    4.15    6.89
  -6  -6  26    0.22    4.06
  -6  -6  26   -0.18    3.67
   7   6 -26    4.61    8.95
   7   6 -26    0.30    7.14
  -7  -6  26   10.13    4.81
  -7  -6  26    7.68    4.19
   7   5 -26   12.48    8.88
  -7  -5  26    0.38    3.96
   7   4 -26    0.32    9.72
  -7  -4  26    1.33    4.10
   7   3 -26  -26.00    9.10
  -7  -3  26   -6.04    3.79
  -7  -2  26    7.01    3.62
  -1   7 -26  -13.29    7.66
  -1   7 -26    7.48    7.64
   1  -7  26   12.07    3.60
   1  -7  26    5.46    3.95
   0   7 -26   10.18    6.84
   0   7 -26   -0.23    7.42
   0  -7  26   -0.90    3.53
   0  -7  26    1.46    3.05
   1   7 -26   12.57    7.77
   1   7 -26    4.53    8.22
  -1  -7  26   18.45    4.55
  -1  -7  26   18.57    4.97
   2   7 -26    5.53    7.19
   2   7 -26    9.24    7.85
  -2  -7  26   -2.55    3.69
  -2  -7  26    6.91    4.20
   3   7 -26  -11.98    8.34
   3   7 -26   -8.47    7.43
  -3  -7  26  -13.27    4.21
  -3  -7  26   -2.25    4.50
   4   7 -26  -10.30    9.52
   4   7 -26    7.92    8.12
  -4  -7  26   24.76    5.03
  -4  -7  26   17.14    5.57
   5   7 -26    3.85    7.58
   5   7 -26   17.18    8.87
  -5  -7  26   18.59    5.23
  -5  -7  26    6.15    4.41
   6   7 -26   -0.29    8.59
   6   7 -26   -2.94    7.32
  -6  -7  26   -7.36    4.12
  -6  -7  26    0.23    4.39
   7   7 -26   -1.56    9.39
   7   7 -26    3.15    7.71
  -7  -7  26    5.38    4.83
  -7  -7  26    6.72    4.30
   8   7 -26    0.32    9.60
  -8  -7  26   -3.72    4.24
   8   6 -26    3.60    9.67
  -8  -6  26    0.81    4.34
   8   5 -26    5.13    6.68
   8   5 -26   -7.49    9.19
  -8  -5  26    0.20    3.94
   8   4 -26    7.42   10.16
   8   4 -26    7.90    7.18
  -8  -4  26   10.54    5.08
   8   3 -26   -3.59    5.91
   8   3 -26    1.03    9.31
  -8  -3  26   -0.20    3.68
   8   2 -26   -0.98    5.47
  -8  -2  26    0.39    3.17
  -1   8 -26   -5.17    8.03
  -1   8 -26   -0.22    7.14
   1  -8  26    8.18    3.33
   1  -8  26   -0.35    3.46
   0   8 -26   31.76    9.87
   0   8 -26   13.55    9.56
   0  -8  26   21.65    6.36
   0  -8  26   17.23    5.84
   1   8 -26   -7.44    7.92
   1   8 -26  -19.61    8.00
  -1  -8  26    5.23    3.70
  -1  -8  26    2.15    3.91
   2   8 -26  -15.09    8.09
   2   8 -26   13.66    7.84
  -2  -8  26    0.17    3.65
  -2  -8  26    0.82    4.19
   3   8 -26   -6.91    7.85
   3   8 -26    0.80    8.01
  -3  -8  26    1.55    3.65
  -3  -8  26    1.49    4.14
   4   8 -26    4.69    9.80
   4   8 -26   12.87    8.95
  -4  -8  26   22.07    5.84
  -4  -8  26   29.36    6.39
   5   8 -26   10.02    8.81
   5   8 -26    0.36    7.85
  -5  -8  26   -0.23    4.33
  -5  -8  26   -0.19    3.82
   6   8 -26    5.64    9.09
   6   8 -26   17.90    8.39
  -6  -8  26    4.03    5.15
  -6  -8  26    6.60    4.48
   7   8 -26  -16.65    9.56
   7   8 -26    0.39    8.32
  -7  -8  26    3.20    4.44
  -7  -8  26   -0.20    4.03
   8   8 -26   -0.33   10.65
  -8  -8  26  -14.69    5.26
   9   8 -26   -6.21   11.08
   9   8 -26   -7.49    9.23
  -9  -8  26  -14.29    5.42
  -9  -8  26   -0.27    5.69
   9   7 -26  -19.04    9.84
   9   6 -26    6.99    7.74
  -9  -6  26    0.21    4.34
  -9  -6  26    3.88    4.64
   9   5 -26   19.96    7.88
   9   5 -26    6.28   10.53
  -9  -5  26   23.42    6.28
  -9  -5  26    9.89    5.43
   9   4 -26    8.81    9.98
   9   4 -26   -4.10    6.90
  -9  -4  26    0.62    3.91
   9   3 -26  -12.27    6.24
   9   3 -26    6.76    9.89
  -9  -3  26    0.21    3.87
   9   2 -26   -4.95    5.92
  -9  -2  26   -7.28    3.69
  -1   9 -26   16.78    7.68
  -1   9 -26   20.91    8.59
   1  -9  26    4.41    4.28
   1  -9  26   10.82    4.16
   0   9 -26   -6.19    7.78
   0   9 -26   -9.43    7.60
   0  -9  26    0.19    3.50
   0  -9  26    9.62    3.63
   1   9 -26    3.46    8.14
   1   9 -26   13.30    8.70
  -1  -9  26   15.57    4.71
  -1  -9  26    9.40    4.43
   2   9 -26   11.00    8.02
   2   9 -26    0.78    7.75
  -2  -9  26    4.44    4.02
  -2  -9  26    0.17    3.70
   3   9 -26   20.69    9.00
   3   9 -26    1.85    8.09
  -3  -9  26    9.33    4.57
  -3  -9  26    6.34    4.03
   4   9 -26   -6.47    8.12
   4   9 -26   -0.27    8.22
  -4  -9  26  -10.21    4.51
  -4  -9  26    6.20    4.03
   5   9 -26    7.91    9.44
   5   9 -26   13.98    9.17
  -5  -9  26   13.77    6.02
  -5  -9  26   16.57    5.37
   6   9 -26   13.42    8.44
   6   9 -26   -9.92    9.11
  -6  -9  26   -0.40    4.30
  -6  -9  26    7.52    4.97
   7   9 -26  -25.77   10.52
  -7  -9  26  -16.61    6.04
   8   9 -26  -28.54   10.83
  -8  -9  26   -9.88    5.36
   9   9 -26    4.58    9.57
   9   9 -26    0.35   10.77
  -9  -9  26    3.45    4.90
  -9  -9  26    0.28    5.43
  10   9 -26    0.36   10.94
 -10  -9  26  -17.41    5.31
  10   8 -26    0.36   11.04
  10   8 -26   16.02    9.44
 -10  -8  26    5.19    4.98
 -10  -8  26   -0.85    5.68
  10   7 -26   11.66    8.92
  10   7 -26  -27.97   11.50
 -10  -7  26   -5.25    4.47
 -10  -7  26    5.56    5.30
  10   6 -26  209.05   32.04
  10   6 -26   78.14   28.70
 -10  -6  26  147.84   27.43
  10   5 -26    1.10   10.47
  10   5 -26    6.97    7.88
 -10  -5  26    0.44    4.48
 -10  -5  26   11.51    5.24
  10   4 -26    0.38   10.38
  10   4 -26   12.55    7.91
 -10  -4  26    8.23    5.03
  10   3 -26    8.12   10.19
  10   3 -26   -3.78    6.57
 -10  -3  26   -5.41    4.27
  10   2 -26    4.43    6.17
 -10  -2  26    1.91    3.81
  -1  10 -26    3.02    8.29
  -1  10 -26    0.23    7.42
   0  10 -26    6.92    8.12
   0  10 -26   -0.24    7.88
   0 -10  26  -11.31    3.80
   0 -10  26    1.84    3.79
   1  10 -26   -7.98    8.51
   1  10 -26    3.81    7.90
  -1 -10  26   -2.68    4.05
  -1 -10  26    0.87    4.07
   2  10 -26    0.44    8.80
   2  10 -26  -12.07    8.33
  -2 -10  26    4.85    4.15
  -2 -10  26    1.11    4.13
   3  10 -26    2.97    8.43
   3  10 -26   16.03    9.42
  -3 -10  26    0.23    4.71
  -3 -10  26   18.92    4.64
   4  10 -26    5.00    9.27
   4  10 -26   27.60    9.54
  -4 -10  26    7.88    5.04
  -4 -10  26   18.16    5.62
   5  10 -26    1.38    9.37
   5  10 -26   15.74    8.91
  -5 -10  26    5.49    4.52
  -5 -10  26    2.31    4.99
   6  10 -26   72.42   22.97
   6  10 -26   33.88   20.33
  -6 -10  26   76.07   17.25
  -6 -10  26   45.38   18.59
   7  10 -26   13.03   10.27
   7  10 -26   11.00    9.75
  -7 -10  26   -6.38    5.40
  -7 -10  26   -3.49    4.96
   8  10 -26    0.33   10.21
  -8 -10  26  -20.01    5.29
  -8 -10  26   -0.29    5.53
   9  10 -26   -6.70    9.30
   9  10 -26   -9.90   10.67
  -9 -10  26    0.24    5.02
  -9 -10  26   -0.30    4.62
  11   8 -26    0.39   11.59
 -11  -8  26   -8.47    5.30
 -11  -8  26   -8.27    5.49
  11   7 -26    4.67    9.18
  11   7 -26   -0.76   11.24
 -11  -7  26    6.08    5.54
 -11  -7  26    0.72    5.00
  11   6 -26    1.91   11.11
  11   6 -26   -4.54    8.70
 -11  -6  26    0.53    5.14
 -11  -6  26   -0.47    4.70
  11   5 -26   23.54    8.25
  11   5 -26  -13.76   11.21
 -11  -5  26    5.44    4.99
 -11  -5  26    1.02    4.95
  11   4 -26   12.43   14.53
  11   4 -26   95.89   18.32
 -11  -4  26   50.29   12.78
  11   3 -26  -36.80   11.62
  11   3 -26    1.53    7.14
 -11  -3  26  -15.84    4.99
  11   2 -26   -2.02    6.76
   0  11 -26    5.84    8.74
   0  11 -26  -10.97    8.32
   0 -11  26    2.58    4.04
   0 -11  26    0.68    3.98
   1  11 -26    3.52    9.12
   1  11 -26    5.66    8.44
  -1 -11  26    5.36    4.30
  -1 -11  26   -0.23    4.36
   2  11 -26   11.35    8.52
   2  11 -26   -5.02    9.20
  -2 -11  26  -11.09    4.75
  -2 -11  26    6.31    4.38
   3  11 -26   -4.61   10.59
   3  11 -26   -7.83    8.95
  -3 -11  26  -15.39    5.35
  -3 -11  26   -8.71    5.09
   4  11 -26   70.92   17.04
   4  11 -26   20.85   16.24
  -4 -11  26   34.61   13.06
  -4 -11  26   69.47   12.88
   5  11 -26  -12.75   10.55
   5  11 -26    0.29    8.93
  -5 -11  26    0.21    4.44
  -5 -11  26   15.46    5.35
   6  11 -26    0.60    9.30
   6  11 -26   -2.63   10.29
  -6 -11  26    0.22    4.85
  -6 -11  26    2.02    5.27
   7  11 -26  -10.47    9.52
   7  11 -26   -9.71   10.32
  -7 -11  26    0.30    5.78
  -7 -11  26   -0.23    4.67
   8  11 -26  -11.82   10.38
  -8 -11  26  -10.41    5.48
  12   7 -26    0.41   11.84
 -12  -7  26    6.39    5.64
  12   6 -26    3.97    9.03
  12   6 -26    7.22   11.87
 -12  -6  26    6.68    5.64
 -12  -6  26    6.94    5.19
  12   5 -26    3.35    8.40
  12   5 -26    4.09   11.77
 -12  -5  26   -5.59    5.39
 -12  -5  26   -1.24    4.91
  12   4 -26   10.55    8.10
  12   4 -26  -30.18   11.61
 -12  -4  26   10.54    4.81
 -12  -4  26    1.04    5.01
  12   3 -26  -12.30   10.95
  12   3 -26    2.31    7.96
 -12  -3  26    0.47    4.25
  12   2 -26    0.31    7.26
   0  12 -26    2.67    9.98
   0  12 -26  -16.12    9.07
   0 -12  26  -17.75    5.13
   0 -12  26   -5.05    5.30
   1  12 -26    0.27    8.43
   1  12 -26   -7.76    9.81
  -1 -12  26   -2.13    4.77
  -1 -12  26   -2.50    4.43
   2  12 -26    0.27    8.77
   2  12 -26   -6.74   10.14
  -2 -12  26   -2.35    4.68
  -2 -12  26    3.07    4.67
   3  12 -26    2.88   10.38
   3  12 -26  -14.38    8.80
  -3 -12  26    0.22    4.67
  -3 -12  26   -3.62    5.12
   4  12 -26    0.59   10.44
   4  12 -26   -9.82    8.99
  -4 -12  26   11.30    5.00
  -4 -12  26    0.58    5.18
   5  12 -26    4.42    9.02
   5  12 -26  -21.15   10.87
  -5 -12  26    0.31    5.61
  -5 -12  26  -12.91    5.32
   6  12 -26    0.60    9.37
   6  12 -26    7.21   11.15
  -6 -12  26   13.07    5.96
  -6 -12  26    0.23    5.53
  13   6 -26    3.87   12.54
 -13  -6  26   -0.26    5.31
  13   5 -26    3.84   12.52
  13   5 -26   -5.48    8.66
 -13  -5  26    0.28    5.80
 -13  -5  26    8.19    5.60
  13   4 -26    0.37    8.49
  13   4 -26  -14.81   11.95
 -13  -4  26    4.08    4.89
 -13  -4  26   -4.56    5.50
  13   3 -26   -6.77    8.28
 -13  -3  26   10.67    4.81
   0  13 -26   -3.75    8.79
   0 -13  26   -1.31    4.82
   1  13 -26    3.01    8.91
  -1 -13  26   10.81    5.30
   2  13 -26    6.65    8.58
  -2 -13  26   -8.94    5.44
  -2 -13  26    0.23    4.86
   3  13 -26    1.69    8.64
  -3 -13  26    1.17    5.07
  -3 -13  26   -1.99    5.70
   4  13 -26   17.24   11.11
   4  13 -26    0.29    8.99
  -4 -13  26    0.35    5.90
  -4 -13  26    0.95    5.22
   5  13 -26    4.81    9.36
  -5 -13  26    1.70    5.20
  14   4 -26    1.31   11.90
 -14  -4  26  -11.68    5.36
  14   3 -26    7.05    8.37
 -14  -3  26   -0.26    4.55
  -1   2 -27    5.04    5.09
   0   2 -27   -5.08    4.86
   1   2 -27    2.06    4.64
  -2   2 -27    4.10    4.92
   2   2 -27   -0.84    4.69
  -2   3 -27   -2.76    5.61
   3   2 -27   -1.96    5.18
  -1   3 -27   -2.06    5.33
   0   3 -27    3.20    6.36
   0  -3  27   18.02    4.26
   1   3 -27    0.28    7.63
   1   3 -27    0.46    5.41
  -1  -3  27   -3.95    2.86
   2   3 -27   16.32    8.47
   2   3 -27    1.38    5.70
  -2  -3  27   15.65    3.78
   3   3 -27   -6.33    8.11
   3   3 -27    1.87    5.35
  -3  -3  27    0.68    3.18
   4   3 -27    9.97    8.52
   4   3 -27    1.66    5.34
  -4  -3  27    0.35    3.34
  -2   4 -27   -1.04    6.50
   4   2 -27    0.89    5.23
  -1   4 -27    6.32    7.45
  -1   4 -27   -1.03    5.93
   1  -4  27   -3.30    2.78
   0   4 -27   -1.91    7.97
   0   4 -27  -17.93    6.46
   0  -4  27   -5.76    3.32
   1   4 -27    6.47    7.94
   1   4 -27   -3.25    5.62
  -1  -4  27    1.28    3.12
   2   4 -27    0.29    8.34
   2   4 -27    2.75    6.39
  -2  -4  27    8.31    3.82
   3   4 -27   -9.95    8.43
   3   4 -27    0.25    5.62
  -3  -4  27    0.69    3.40
   4   4 -27    0.31    8.42
   4   4 -27    8.92    6.10
  -4  -4  27   -6.83    3.63
   5   4 -27    3.81    8.96
   5   4 -27   -3.44    6.14
  -5  -4  27   -2.43    3.73
   5   3 -27   11.30    9.97
   5   3 -27   16.79    6.97
  -5  -3  27   19.49    5.17
   5   2 -27   -2.07    4.93
  -1   5 -27   -0.25    7.34
  -1   5 -27    3.39    6.39
   1  -5  27    0.74    2.93
   0   5 -27    2.06    7.42
   0   5 -27    0.56    6.69
   0  -5  27   -4.93    3.32
   1   5 -27    1.13    6.59
   1   5 -27   -4.01    7.85
  -1  -5  27   -0.31    3.18
   2   5 -27    2.50    8.04
   2   5 -27    0.28    6.56
  -2  -5  27   -5.89    3.51
   3   5 -27   12.41    9.27
   3   5 -27   12.16    7.22
  -3  -5  27   12.61    4.83
   4   5 -27    1.20    8.78
   4   5 -27   -0.29    6.53
  -4  -5  27    0.18    3.66
   5   5 -27   -8.66    6.91
   5   5 -27    0.31    9.18
  -5  -5  27   -7.23    3.95
   6   5 -27   -5.29    6.84
   6   5 -27  -20.83    9.28
  -6  -5  27   -0.19    3.91
   6   4 -27   11.14    6.20
   6   4 -27   10.56    9.59
  -6  -4  27    1.37    4.12
   6   3 -27   11.72   10.11
   6   3 -27   -1.02    6.81
  -6  -3  27   21.83    5.14
   6   2 -27    0.73    5.45
  -6  -2  27    8.37    3.55
  -1   6 -27    1.53    7.35
  -1   6 -27  -14.40    7.59
   1  -6  27    3.82    3.77
   1  -6  27    2.03    3.06
   0   6 -27    6.49    6.74
   0   6 -27   -6.40    7.44
   0  -6  27   -2.27    3.19
   0  -6  27    4.40    3.91
   1   6 -27   -1.81    7.18
   1   6 -27  -18.30    8.15
  -1  -6  27   -2.36    3.28
  -1  -6  27    1.99    3.98
   2   6 -27  -15.35    8.31
   2   6 -27   17.83    7.14
  -2  -6  27    3.44    3.80
  -2  -6  27    8.82    4.48
   3   6 -27    1.52    8.35
   3   6 -27   28.08    9.72
  -3  -6  27   12.26    6.08
  -3  -6  27   26.68    5.63
   4   6 -27   11.90    7.48
   4   6 -27    4.97    8.75
  -4  -6  27    3.04    4.80
  -4  -6  27    1.96    4.00
   5   6 -27   13.58    7.36
   5   6 -27    9.45    9.01
  -5  -6  27    0.19    4.00
  -5  -6  27    4.92    4.53
   6   6 -27   -2.20    6.98
   6   6 -27  -21.28    9.05
  -6  -6  27    0.23    4.44
  -6  -6  27   -0.19    4.06
   7   6 -27    1.61    7.33
   7   6 -27   13.90   10.00
  -7  -6  27    0.20    4.20
  -7  -6  27    0.24    4.92
   7   5 -27    8.42    7.24
   7   5 -27   13.23    9.90
  -7  -5  27   -9.11    4.27
   7   4 -27    5.04    6.51
   7   4 -27  -16.15    9.72
  -7  -4  27   15.72    4.62
   7   3 -27    1.74    9.63
  -7  -3  27    7.74    4.19
  -7  -2  27    6.99    3.70
  -1   7 -27   -8.72    7.98
  -1   7 -27  -23.35    7.74
   1  -7  27   -3.49    4.00
   1  -7  27   -7.17    3.35
   0   7 -27   10.60    7.90
   0   7 -27   -6.72    8.37
   0  -7  27    5.37    3.29
   0  -7  27    0.58    3.63
   1   7 -27   -3.11    8.16
   1   7 -27  -26.52    8.45
  -1  -7  27   -4.83    3.65
  -1  -7  27    1.42    4.06
   2   7 -27    0.27    8.35
   2   7 -27  -10.63    7.39
  -2  -7  27   10.57    4.30
  -2  -7  27   -0.17    3.56
   3   7 -27    0.28    8.67
   3   7 -27    5.68    7.53
  -3  -7  27    0.18    3.83
  -3  -7  27   19.04    4.86
   4   7 -27   10.45    9.20
   4   7 -27   11.44    7.73
  -4  -7  27    4.22    4.43
  -4  -7  27   16.59    5.16
   5   7 -27   12.60    7.80
   5   7 -27    0.30    9.17
  -5  -7  27    7.22    4.65
  -5  -7  27    2.10    4.06
   6   7 -27  -11.93    9.72
   6   7 -27    4.15    7.39
  -6  -7  27    6.58    4.19
  -6  -7  27    0.24    4.86
   7   7 -27    0.34   10.05
   7   7 -27    2.83    8.15
  -7  -7  27    5.22    4.99
  -7  -7  27   -0.21    4.24
   8   7 -27  -27.95   12.32
   8   6 -27    0.35   10.20
  -8  -6  27    5.79    4.54
   8   5 -27   18.79   10.72
  -8  -5  27    0.21    4.64
   8   4 -27    2.09    6.74
   8   4 -27    0.73   10.45
  -8  -4  27    1.49    4.13
   8   3 -27    0.36   10.14
   8   3 -27   12.21    6.66
  -8  -3  27    6.64    4.31
  -1   8 -27    0.24    7.43
  -1   8 -27    8.92    8.45
   1  -8  27    5.59    3.50
   1  -8  27    6.03    3.90
   0   8 -27    8.26    7.99
   0   8 -27   -1.86    8.02
   0  -8  27    3.98    3.41
   0  -8  27   -0.40    3.91
   1   8 -27   13.28    8.68
   1   8 -27   17.11    8.68
  -1  -8  27    9.42    4.61
  -1  -8  27   12.37    4.37
   2   8 -27    1.15    8.22
   2   8 -27    1.10    8.51
  -2  -8  27    2.84    4.67
  -2  -8  27    8.74    3.97
   3   8 -27   -4.73    8.59
   3   8 -27    8.65    8.49
  -3  -8  27    9.09    4.79
  -3  -8  27    7.11    4.24
   4   8 -27  -10.12    9.00
   4   8 -27   -6.45    8.33
  -4  -8  27   -8.48    4.77
  -4  -8  27    2.66    3.94
   5   8 -27   16.53    8.89
   5   8 -27   28.09   10.28
  -5  -8  27    4.93    5.32
  -5  -8  27   26.77    6.20
   6   8 -27   -8.33    9.77
   6   8 -27   -7.43    8.38
  -6  -8  27    1.44    4.23
  -6  -8  27    0.76    5.02
   7   8 -27   -3.20    9.66
  -7  -8  27  -22.72    6.77
   8   8 -27  -33.57   11.80
  -8  -8  27   -9.43    5.33
   9   8 -27  -21.43   11.59
   9   8 -27  -12.71   10.06
  -9  -8  27   -7.08    5.18
  -9  -8  27  -11.59    5.50
   9   7 -27   11.68   11.09
   9   7 -27   -9.84    8.71
  -9  -7  27    0.23    4.73
  -9  -7  27    5.35    5.40
   9   6 -27  124.63   22.20
   9   6 -27   46.38   18.40
  -9  -6  27   70.60   18.05
  -9  -6  27   72.27   16.76
   9   5 -27    0.99    7.89
   9   5 -27  -21.49   10.96
  -9  -5  27    0.44    4.46
  -9  -5  27    8.78    5.09
   9   4 -27    8.35    8.53
   9   4 -27    8.78   11.84
  -9  -4  27   31.29    6.55
   9   3 -27  -20.63   10.26
   9   3 -27    5.49    6.39
  -9  -3  27    8.68    3.99
  -1   9 -27   -1.20    8.11
   0   9 -27   -8.80    7.78
   0   9 -27    4.14    8.40
   0  -9  27    6.69    3.74
   0  -9  27    4.74    3.98
   1   9 -27  -12.65    8.50
   1   9 -27   -9.87    9.08
  -1  -9  27   11.76    3.89
  -1  -9  27   -2.57    4.00
   2   9 -27   13.37    9.56
   2   9 -27    0.27    8.48
  -2  -9  27    1.83    4.22
  -2  -9  27   10.19    4.54
   3   9 -27    1.27    9.00
   3   9 -27  -20.78    8.77
  -3  -9  27    2.66    4.10
  -3  -9  27    1.19    4.75
   4   9 -27   32.96   10.84
   4   9 -27   28.67   10.14
  -4  -9  27   15.59    6.49
  -4  -9  27   18.62    7.04
   5   9 -27  -25.84    9.51
   5   9 -27   -0.42    8.81
  -5  -9  27    0.20    4.33
  -5  -9  27    3.87    4.95
   6   9 -27   68.26   17.33
   6   9 -27   65.42   19.35
  -6  -9  27   47.09   14.20
  -6  -9  27   41.43   15.59
   7   9 -27    4.39    9.88
   7   9 -27    8.72   10.20
  -7  -9  27   -2.77    5.35
  -7  -9  27  -16.76    5.07
   8   9 -27    0.35   11.13
  -8  -9  27    7.14    5.25
  -8  -9  27    1.15    5.68
   9   9 -27    9.15   10.08
   9   9 -27   -7.65   11.34
  -9  -9  27  -13.60    5.28
  -9  -9  27    0.89    5.75
  10   8 -27  -14.30   11.71
 -10  -8  27   -7.96    5.13
 -10  -8  27    0.30    5.17
  10   7 -27   20.67   11.92
  10   7 -27    2.05    8.96
 -10  -7  27    2.42    5.21
 -10  -7  27    0.28    5.76
  10   6 -27    5.12    8.33
  10   6 -27  -30.89   11.43
 -10  -6  27   -6.15    4.85
 -10  -6  27   11.02    6.03
  10   5 -27   11.61    8.21
 -10  -5  27   -9.98    5.10
 -10  -5  27    2.33    5.38
  10   4 -27  -25.87   12.71
  10   4 -27   13.27    8.81
 -10  -4  27    7.72    5.40
  10   3 -27  -30.38   11.20
  10   3 -27    4.62    7.15
 -10  -3  27    0.23    4.06
   0  10 -27   -2.76    9.16
   0  10 -27    0.26    8.13
   0 -10  27    1.74    3.95
   0 -10  27   -2.13    3.85
   1  10 -27    9.54    8.46
   1  10 -27   -2.28    9.20
  -1 -10  27   -3.90    4.03
  -1 -10  27   -6.74    4.53
   2  10 -27  -23.16    9.04
   2  10 -27    3.72    9.36
  -2 -10  27   -2.70    4.33
  -2 -10  27   -3.09    4.66
   3  10 -27   11.80    9.91
   3  10 -27    0.29    8.98
  -3 -10  27   -4.26    4.74
  -3 -10  27    0.20    4.37
   4  10 -27   27.57   10.79
   4  10 -27   18.60   10.82
  -4 -10  27    5.36    5.94
  -4 -10  27   31.15    6.84
   5  10 -27   -9.92    9.75
   5  10 -27    0.31    9.67
  -5 -10  27    0.21    4.65
  -5 -10  27    9.82    5.29
   6  10 -27    7.32    9.55
   6  10 -27    8.67    9.96
  -6 -10  27    0.28    5.33
  -6 -10  27    3.09    4.70
   7  10 -27    0.33    9.94
   7  10 -27   -5.91   10.35
  -7 -10  27   14.21    5.27
  -7 -10  27    0.29    5.56
   8  10 -27    3.52   11.10
  -8 -10  27  -10.75    5.45
  11   7 -27   -0.41   11.86
 -11  -7  27   -5.62    5.30
  11   6 -27    2.79    8.84
  11   6 -27  -13.38   11.89
 -11  -6  27   15.67    5.98
 -11  -6  27   13.67    5.77
  11   5 -27    8.03    8.53
  11   5 -27    1.66   11.70
 -11  -5  27    3.76    5.49
 -11  -5  27   -0.25    4.98
  11   4 -27   -4.14    8.47
  11   4 -27    8.72   11.52
 -11  -4  27    6.65    4.74
  11   3 -27    8.08    7.38
 -11  -3  27   -4.99    4.34
   0  11 -27   -5.16   11.00
   0  11 -27   29.09   10.01
   0 -11  27    4.63    4.73
   0 -11  27    0.95    4.61
   1  11 -27  -19.21   11.75
  -1 -11  27   -4.94    5.13
  -1 -11  27   -7.13    4.87
   2  11 -27  -29.09   10.67
   2  11 -27  -17.01   11.35
  -2 -11  27  -17.05    5.97
  -2 -11  27  -18.02    5.84
   3  11 -27   -8.98    9.08
   3  11 -27   -9.73   11.32
  -3 -11  27   -6.11    4.52
  -3 -11  27    7.23    5.19
   4  11 -27   10.03    9.74
   4  11 -27   11.18   10.39
  -4 -11  27    3.37    5.41
  -4 -11  27    5.20    4.71
   5  11 -27  -18.10    9.80
   5  11 -27   -5.96   10.35
  -5 -11  27   -7.63    5.69
  -5 -11  27   -9.14    4.55
   6  11 -27    7.18   10.37
   6  11 -27   21.85   10.30
  -6 -11  27    0.31    5.86
  -6 -11  27    0.23    5.06
   7  11 -27   -0.33   10.24
  -7 -11  27   -3.34    5.26
  12   6 -27    5.67   12.75
 -12  -6  27   -1.33    5.18
  12   5 -27   13.01   12.27
  12   5 -27   10.19    9.32
 -12  -5  27   -0.28    5.58
 -12  -5  27    7.19    5.38
  12   4 -27    3.34    8.89
  12   4 -27   -9.05   12.12
 -12  -4  27   -0.27    5.42
 -12  -4  27  -14.39    4.77
  12   3 -27   -1.05    7.76
 -12  -3  27    4.00    4.71
   0  12 -27   11.84   10.28
   0  12 -27    8.04    9.03
   0 -12  27   -0.20    4.76
   0 -12  27   10.78    4.85
   1  12 -27   -5.18   10.15
   1  12 -27  -13.39    9.23
  -1 -12  27    3.61    4.66
  -1 -12  27   -3.63    4.93
   2  12 -27   -7.00    9.46
   2  12 -27    2.37   10.73
  -2 -12  27   -5.68    4.91
  -2 -12  27    2.24    5.03
   3  12 -27    0.59    9.50
   3  12 -27    9.70   10.88
  -3 -12  27    4.12    5.55
  -3 -12  27    2.46    4.87
   4  12 -27   -9.92    9.68
   4  12 -27    1.21   10.98
  -4 -12  27    8.94    5.02
  -4 -12  27   -6.17    5.87
   5  12 -27    0.32    9.35
  -5 -12  27    8.07    5.79
  -5 -12  27    0.23    5.14
  13   4 -27  -11.17   12.62
 -13  -4  27    3.49    5.06
  13   3 -27    2.25    8.56
 -13  -3  27    1.82    4.83
   1  13 -27    4.14    9.63
  -1 -13  27    0.23    4.82
  -1 -13  27    1.97    5.66
   2  13 -27    6.91    9.73
  -2 -13  27   -1.66    5.84
  -2 -13  27    1.18    5.12
   3  13 -27    6.41    9.71
   3  13 -27  -16.38   11.47
  -3 -13  27    1.39    6.04
  -3 -13  27    0.24    5.13
   4  13 -27   -0.32    9.82
  -4 -13  27    0.24    5.34
   1  14 -27   15.45    9.89
  -1 -14  27    8.98    6.44
   2  14 -27    2.15    9.80
  -2 -14  27  -14.45    5.62
  -1   2 -28   -1.73    5.15
  -2   2 -28   -1.29    5.28
  -1   3 -28   -2.66    5.57
   0   3 -28   -1.69    5.59
   1   3 -28   -1.94    5.46
  -1  -3  28    2.51    3.08
   2   3 -28    0.73    5.62
  -2  -3  28   -6.39    3.37
   3   3 -28  -16.20    8.79
   3   3 -28   -1.24    5.93
  -3  -3  28   -6.05    3.35
   4   3 -28   16.44    9.18
   4   3 -28    3.28    5.96
  -4  -3  28   -2.77    3.54
  -1   4 -28    1.09    6.67
  -1   4 -28  -12.76    8.00
   1  -4  28    5.22    3.03
   0   4 -28    5.97    6.50
   0   4 -28  -12.36    8.11
   0  -4  28   -0.16    3.15
   1   4 -28    3.97    6.16
   1   4 -28    0.89    8.51
  -1  -4  28    5.60    3.35
   2   4 -28    0.31    8.92
   2   4 -28   -2.92    6.04
  -2  -4  28    0.71    3.44
   3   4 -28    5.60    6.40
   3   4 -28    1.60    8.91
  -3  -4  28    3.64    3.41
   4   4 -28    0.33    8.76
   4   4 -28    2.20    6.08
  -4  -4  28    0.95    3.59
   5   4 -28    7.24    9.45
   5   4 -28    4.49    6.50
  -5  -4  28   -0.20    3.62
   5   3 -28   -0.52    5.83
   5   3 -28   -1.02    9.21
  -5  -3  28   -8.45    3.62
  -1   5 -28    3.01    7.58
  -1   5 -28   31.36    8.95
   1  -5  28    5.43    4.04
   0   5 -28   -0.30    7.18
   0   5 -28   12.02    8.39
   0  -5  28    0.49    3.28
   1   5 -28    1.80    7.63
   1   5 -28   22.93    9.65
  -1  -5  28   15.76    4.75
   2   5 -28    2.72    9.13
   2   5 -28    5.39    7.15
  -2  -5  28    4.76    3.68
   3   5 -28  -11.06    9.27
   3   5 -28   -3.30    6.71
  -3  -5  28    0.18    3.93
   4   5 -28   -4.84    7.19
   4   5 -28   -3.19    8.98
  -4  -5  28   -3.94    3.71
   5   5 -28  -12.24    7.53
   5   5 -28  -15.30    9.79
  -5  -5  28  -10.39    4.52
   6   5 -28    4.67    6.92
   6   5 -28    6.58    9.82
  -6  -5  28    0.21    4.12
   6   4 -28   -9.21    6.88
   6   4 -28    0.36    9.72
  -6  -4  28  -11.12    4.02
   6   3 -28   15.19   10.19
   6   3 -28    2.16    6.58
  -6  -3  28    8.20    4.27
  -1   6 -28    0.33    7.35
  -1   6 -28  -10.71    7.80
   1  -6  28   -4.67    3.38
   1  -6  28   -0.97    3.77
   0   6 -28   19.95    7.97
   0   6 -28    2.40    8.18
   0  -6  28    3.58    3.77
   0  -6  28   11.05    4.62
   1   6 -28    9.18    8.63
   1   6 -28    2.58    7.56
  -1  -6  28    0.17    3.54
  -1  -6  28    2.54    4.28
   2   6 -28    4.64    8.63
   2   6 -28   20.26    7.47
  -2  -6  28   -3.72    4.39
  -2  -6  28   -3.49    3.69
   3   6 -28   13.85    7.83
   3   6 -28   11.76    9.55
  -3  -6  28   11.50    5.24
  -3  -6  28    9.48    4.62
   4   6 -28    3.46    9.47
   4   6 -28    4.86    7.62
  -4  -6  28   -2.28    3.80
  -4  -6  28    5.79    4.84
   5   6 -28  -19.63    7.84
   5   6 -28    7.21    9.62
  -5  -6  28  -17.38    4.99
  -5  -6  28    0.20    3.96
   6   6 -28    8.98    7.95
   6   6 -28   21.18   10.08
  -6  -6  28    0.24    4.84
  -6  -6  28   -0.21    4.19
   7   6 -28    0.36   10.11
   7   6 -28  -11.56    7.79
  -7  -6  28    5.33    5.12
  -7  -6  28   -2.39    4.06
   7   5 -28    3.82    7.06
   7   5 -28    0.36   10.32
  -7  -5  28    0.22    4.37
   7   4 -28    7.11    6.91
   7   4 -28    7.46   10.46
  -7  -4  28    0.64    4.14
   7   3 -28    4.45    6.34
   7   3 -28    5.13   10.06
  -7  -3  28    5.01    4.03
  -1   7 -28   -7.83    7.72
  -1   7 -28    4.69    8.06
   0   7 -28    2.20    7.83
   0   7 -28    7.19    8.17
   0  -7  28    0.16    3.49
   0  -7  28   -3.74    3.81
   1   7 -28    7.68    8.45
   1   7 -28   -9.97    8.35
  -1  -7  28    4.79    4.44
  -1  -7  28    8.33    3.76
   2   7 -28    0.35    8.48
   2   7 -28    2.01    8.55
  -2  -7  28    0.18    3.62
  -2  -7  28    8.82    4.37
   3   7 -28    7.80    9.15
   3   7 -28    2.13    8.16
  -3  -7  28    1.67    3.92
  -3  -7  28   11.83    5.01
   4   7 -28    7.15    7.98
   4   7 -28    6.25    9.07
  -4  -7  28    4.45    3.99
  -4  -7  28   -0.24    4.63
   5   7 -28    8.78    9.82
   5   7 -28   -0.36    7.96
  -5  -7  28    0.25    4.77
  -5  -7  28    3.43    4.25
   6   7 -28  -11.37    8.00
   6   7 -28   13.20   10.53
  -6  -7  28    0.26    5.34
  -6  -7  28    0.42    4.28
   7   7 -28   24.35   11.01
   7   7 -28   61.30   13.92
  -7  -7  28   15.26    7.75
  -7  -7  28   25.89    8.80
   8   7 -28    0.38   11.32
  -8  -7  28   -1.09    5.14
  -8  -7  28   -0.23    4.75
  -8  -6  28   61.80   14.89
   8   5 -28   -0.39   10.92
  -8  -5  28   -7.76    4.79
   8   4 -28   -1.16   10.78
  -8  -4  28    6.56    4.45
   8   3 -28    2.66   10.53
  -8  -3  28   -2.18    3.82
   0   8 -28   -9.32    8.55
   0   8 -28    1.20    8.70
   0  -8  28    8.52    4.49
   0  -8  28    5.21    3.47
   1   8 -28    9.35    8.75
   1   8 -28    2.53    8.77
  -1  -8  28   -3.53    3.88
  -1  -8  28    6.27    4.39
   2   8 -28   10.33    8.98
   2   8 -28   15.13    8.77
  -2  -8  28   -5.35    3.97
  -2  -8  28    6.55    4.78
   3   8 -28   -0.30    8.95
   3   8 -28    0.80    8.61
  -3  -8  28    2.43    4.84
  -3  -8  28    0.58    4.03
   4   8 -28   11.82    9.43
   4   8 -28   22.18    9.09
  -4  -8  28    0.60    4.42
  -4  -8  28    7.78    5.08
   5   8 -28    2.85    8.69
   5   8 -28    0.33    9.78
  -5  -8  28    0.26    5.00
  -5  -8  28  -18.78    4.80
   6   8 -28   28.97   15.32
  -6  -8  28   20.91   13.96
  -6  -8  28   49.98   12.18
   7   8 -28   -8.45    8.98
   7   8 -28    0.36   10.76
  -7  -8  28    2.22    5.67
  -7  -8  28    0.23    4.67
   8   8 -28   -6.68   11.20
   8   8 -28   -4.02    9.95
  -8  -8  28    0.29    5.69
  -8  -8  28   -3.09    5.11
   9   8 -28   -1.99   12.34
  -9  -8  28   -0.25    5.17
   9   7 -28  -18.45   11.75
   9   7 -28   -9.14    9.47
  -9  -7  28    0.28    5.16
  -9  -7  28    7.31    5.31
   9   6 -28   -4.08    8.44
   9   6 -28    5.08   11.95
  -9  -6  28    0.48    4.83
  -9  -6  28    6.53    5.36
   9   5 -28    1.74    8.48
  -9  -5  28  -13.15    5.13
  -9  -5  28    2.13    5.51
   9   4 -28    0.40   12.44
   9   4 -28    7.53    8.12
  -9  -4  28   -5.44    4.76
   9   3 -28    8.58    7.42
  -9  -3  28   10.04    4.83
   0   9 -28    0.27    8.12
   0   9 -28    0.43    8.89
   0  -9  28   -5.59    3.79
   0  -9  28   -4.64    4.25
   1   9 -28    5.36    8.81
   1   9 -28    3.52    9.10
  -1  -9  28    1.38    4.42
  -1  -9  28    0.55    3.79
   2   9 -28   -4.91    9.53
   2   9 -28  -20.62    9.27
  -2  -9  28   -3.26    4.23
  -2  -9  28    2.19    5.02
   3   9 -28    4.81    9.18
   3   9 -28    4.89    9.40
  -3  -9  28   13.56    4.80
  -3  -9  28    5.10    5.36
   4   9 -28   32.23   10.47
   4   9 -28  -24.70   10.54
  -4  -9  28    9.82    6.24
  -4  -9  28    0.41    5.06
   5   9 -28    1.31   10.55
   5   9 -28   -8.50   10.09
  -5  -9  28    0.27    5.49
   6   9 -28   -9.09    9.97
   6   9 -28   -0.34   10.48
  -6  -9  28    0.28    5.77
  -6  -9  28    0.22    4.70
   7   9 -28   -7.42    9.97
   7   9 -28    1.09   10.97
  -7  -9  28    0.23    4.90
  -7  -9  28    0.59    5.83
   8   9 -28   -8.66   12.06
  -8  -9  28  -10.96    5.45
  10   7 -28   -9.04   12.50
 -10  -7  28  -16.41    5.69
  10   6 -28   -9.64    8.52
  10   6 -28   10.49   12.49
 -10  -6  28    1.78    4.93
 -10  -6  28   -3.13    6.32
  10   5 -28    0.42   11.64
  10   5 -28    4.69    8.41
 -10  -5  28    0.25    5.00
 -10  -5  28   -0.27    5.24
  10   4 -28    5.61    8.70
  10   4 -28   10.96   11.96
 -10  -4  28    6.43    5.33
  10   3 -28   -8.16    7.96
 -10  -3  28   -3.36    4.69
   0  10 -28   82.33   30.88
   0 -10  28   59.06   24.75
   0 -10  28  101.14   24.92
   1  10 -28   44.18   22.12
  -1 -10  28   89.81   17.68
   2  10 -28  -14.82   11.61
  -2 -10  28  -13.99    6.11
   3  10 -28  -14.41    9.84
   3  10 -28    1.46   10.22
  -3 -10  28  -20.10    4.95
  -3 -10  28   -0.27    5.45
   4  10 -28   14.85   10.47
   4  10 -28   12.33   10.92
  -4 -10  28   22.08    6.35
  -4 -10  28    9.96    5.71
   5  10 -28    8.50   10.48
   5  10 -28    0.66   10.21
  -5 -10  28    4.81    5.52
  -5 -10  28    6.05    5.20
   6  10 -28   11.31   10.82
   6  10 -28    4.07   10.65
  -6 -10  28    0.23    4.84
  -6 -10  28    1.17    5.45
   7  10 -28  -14.89   10.96
  -7 -10  28   -3.61    5.68
  11   5 -28   -1.35   12.74
  11   5 -28   19.64    9.10
 -11  -5  28   -4.02    5.45
 -11  -5  28    2.56    5.68
  11   4 -28    8.02    8.55
  11   4 -28    5.26   12.46
 -11  -4  28   15.49    5.40
  11   3 -28   13.32    8.16
 -11  -3  28    2.51    4.63
   0  11 -28    2.74   10.55
   0  11 -28    0.29    8.95
   0 -11  28  -10.25    4.64
   0 -11  28   -2.95    4.39
   1  11 -28    9.37   10.32
   1  11 -28   -0.29    9.06
  -1 -11  28   -2.47    4.53
  -1 -11  28   -5.87    4.39
   2  11 -28   14.57    9.51
   2  11 -28    0.56   10.68
  -2 -11  28    0.43    4.87
  -2 -11  28    1.35    4.97
   3  11 -28  -10.53   11.00
   3  11 -28  -15.28    9.95
  -3 -11  28    2.85    5.41
  -3 -11  28   11.23    4.88
   4  11 -28   12.37   10.73
   4  11 -28    1.64   10.16
  -4 -11  28   -9.29    5.06
  -4 -11  28   -0.30    5.78
   5  11 -28    9.70   11.46
   5  11 -28    2.02   10.28
  -5 -11  28   15.28    6.12
  -5 -11  28   -0.23    5.08
   6  11 -28   -6.58   10.75
  12   4 -28  -15.48   12.88
 -12  -4  28    1.08    5.20
 -12  -3  28   -0.26    4.76
   0  12 -28    4.18   10.45
   1  12 -28   15.85   10.91
   1  12 -28   -7.91    9.72
  -1 -12  28   -4.47    4.91
  -1 -12  28    0.88    4.73
   2  12 -28  -12.52   11.69
   2  12 -28   -4.06    9.99
  -2 -12  28   -8.16    5.00
  -2 -12  28   -2.07    5.35
   3  12 -28   -7.52   11.58
   3  12 -28   -0.32   10.05
  -3 -12  28   16.52    6.09
  -3 -12  28    1.40    4.95
   4  12 -28    5.86   10.11
   4  12 -28  -34.50    9.44
  -4 -12  28   -0.24    4.98
   1  13 -28    0.32    9.91
  -1 -13  28    9.87    5.33
  -1 -13  28    2.63    5.82
   2  13 -28   10.95   10.29
  -2 -13  28    1.69    5.36
  -2 -13  28    1.74    5.96
  -1   3 -29    2.54    6.13
   0   3 -29    3.81    6.07
   1   3 -29    2.04    5.80
   2   3 -29   -2.58    6.09
  -2  -3  29    0.18    3.39
   3   3 -29    3.14    5.98
  -3  -3  29   -5.27    3.30
   4   3 -29    0.27    6.17
  -4  -3  29  -11.53    3.67
  -1   4 -29   -6.06    7.22
   1  -4  29    1.51    3.16
   0   4 -29    2.29    6.82
   0   4 -29  -17.54    8.83
   0  -4  29    3.10    3.30
   1   4 -29  -19.46   10.14
   1   4 -29    0.29    6.83
  -1  -4  29   -3.75    3.27
   2   4 -29    6.30    6.55
   2   4 -29   10.43    9.52
  -2  -4  29   -0.18    3.65
   3   4 -29    4.90    6.80
   3   4 -29    5.75    9.49
  -3  -4  29   -3.66    3.85
   4   4 -29   -7.73    9.39
   4   4 -29   -3.80    6.83
  -4  -4  29    0.20    3.70
   5   4 -29  -15.18    7.07
   5   4 -29    5.84    9.82
  -5  -4  29   -0.21    3.94
   5   3 -29   10.56    6.28
  -5  -3  29    0.20    3.52
  -1   5 -29   -4.36    8.19
  -1   5 -29    6.38    7.26
   1  -5  29    5.57    3.47
   0   5 -29  -22.38    9.02
   0   5 -29   -7.65    7.82
   0  -5  29    1.05    3.46
   1   5 -29   -1.89    9.19
   1   5 -29   -6.67    7.43
  -1  -5  29   -0.36    3.52
   2   5 -29    7.29    7.49
   2   5 -29   21.13    9.55
  -2  -5  29   -0.19    3.78
   3   5 -29    5.33    9.78
   3   5 -29   11.76    7.67
  -3  -5  29    2.91    4.07
   4   5 -29    1.60    7.19
   4   5 -29    6.59   10.04
  -4  -5  29    0.20    3.97
   5   5 -29    1.62    7.18
   5   5 -29    0.36   10.14
  -5  -5  29    0.21    4.16
   6   5 -29   -9.78   10.60
   6   5 -29    4.62    7.84
  -6  -5  29    4.85    4.28
   6   4 -29   -3.66    6.97
   6   4 -29    0.38    9.90
  -6  -4  29    1.31    4.28
   6   3 -29   -3.43    6.58
  -6  -3  29   -5.29    3.79
  -1   6 -29   -5.94    8.43
  -1   6 -29    2.81    7.98
   0   6 -29   -3.77    8.06
   0   6 -29   -2.02    8.84
   0  -6  29   -2.40    4.50
   0  -6  29    2.23    3.49
   1   6 -29  -12.69    9.45
   1   6 -29    7.87    7.69
  -1  -6  29   -3.61    4.75
  -1  -6  29    0.72    3.54
   2   6 -29   -7.86    8.16
   2   6 -29    9.14    9.43
  -2  -6  29   10.13    4.27
  -2  -6  29    9.56    5.35
   3   6 -29    0.32    9.36
   3   6 -29   -6.84    7.92
  -3  -6  29   -4.89    3.94
  -3  -6  29    8.88    5.15
   4   6 -29   -6.69    9.54
   4   6 -29   -1.03    7.77
  -4  -6  29    0.25    4.68
  -4  -6  29    0.20    4.17
   5   6 -29  -10.06    7.98
   5   6 -29   -2.44   10.12
  -5  -6  29    0.21    4.33
  -5  -6  29    0.25    5.06
   6   6 -29  -27.66   11.31
   6   6 -29   -0.35    8.68
  -6  -6  29   -8.07    6.13
  -6  -6  29  -20.04    5.17
   7   6 -29  -15.84    9.00
  -7  -6  29    0.23    5.27
   7   5 -29  -32.06    8.74
  -7  -5  29   -5.30    5.11
   7   4 -29   -6.91    7.44
   7   4 -29    1.58   10.88
  -7  -4  29    3.64    4.37
   7   3 -29   -6.49    7.10
  -7  -3  29   -0.22    4.06
   0   7 -29    1.68    8.70
   0   7 -29   -1.96    8.68
   0  -7  29   -8.00    4.48
   0  -7  29   -7.08    3.80
   1   7 -29   10.18    9.29
   1   7 -29    6.77    9.14
  -1  -7  29    4.88    4.32
  -1  -7  29   10.00    5.08
   2   7 -29    6.78    8.96
   2   7 -29    0.76    8.36
  -2  -7  29   -0.97    4.62
  -2  -7  29   -0.19    3.99
   3   7 -29  -27.38    9.87
   3   7 -29  -12.85    8.47
  -3  -7  29    0.79    4.12
  -3  -7  29    0.25    5.10
   4   7 -29    3.42    8.67
   4   7 -29    5.71    9.49
  -4  -7  29    6.59    4.56
  -4  -7  29   -0.25    5.27
   5   7 -29   -2.30    9.20
  -5  -7  29  -18.89    6.37
   6   7 -29  -13.21    9.18
  -6  -7  29  -15.66    5.80
   7   7 -29    3.57    9.05
   7   7 -29   28.08   11.31
  -7  -7  29   10.57    5.15
  -7  -7  29   -7.02    5.65
   8   7 -29   -2.98    9.55
   8   7 -29  -19.81   12.28
  -8  -7  29    0.29    5.63
  -8  -7  29    2.72    5.27
   8   6 -29    2.03   12.09
  -8  -6  29    9.75    5.44
  -8  -6  29    1.22    4.83
   8   5 -29    9.40   11.87
  -8  -5  29    0.25    5.00
  -8  -3  29   -0.23    4.47
   0   8 -29   -3.01    8.77
   0   8 -29    2.56    8.92
   0  -8  29   -8.28    3.77
   0  -8  29   -2.28    4.82
   1   8 -29    9.13    9.39
   1   8 -29  -22.52    9.72
  -1  -8  29   -1.68    4.59
  -1  -8  29    8.15    4.00
   2   8 -29    5.09    9.03
   2   8 -29   -3.68    9.39
  -2  -8  29   -3.75    4.67
  -2  -8  29   -2.52    4.00
   3   8 -29    5.96   10.40
   3   8 -29  -26.58   10.63
   4   8 -29  134.32   28.12
   4   8 -29   34.27   25.19
  -4  -8  29   66.47   24.37
  -4  -8  29  113.67   21.94
   5   8 -29    0.35   10.73
   5   8 -29   19.02    9.67
  -5  -8  29   -2.45    5.64
  -5  -8  29   -8.15    4.59
   6   8 -29   13.15    9.70
   6   8 -29    5.39   10.76
  -6  -8  29  -10.68    5.55
   7   8 -29   -6.26    9.99
   7   8 -29    0.38   11.83
  -7  -8  29    6.48    5.83
  -7  -8  29    5.99    5.13
   8   8 -29    0.40   11.79
  -8  -8  29    1.76    5.24
   9   7 -29    0.42   12.66
  -9  -7  29    0.26    5.48
   9   6 -29  -15.32   12.58
   9   6 -29    2.35    8.86
  -9  -6  29   -3.84    5.10
  -9  -6  29   -0.29    5.56
   9   5 -29    4.42    8.32
   9   5 -29  -20.08   12.78
  -9  -5  29    0.28    5.72
  -9  -5  29    1.28    5.11
   9   4 -29   12.82    8.29
   9   4 -29   18.81   12.51
  -9  -4  29    1.74    4.89
   9   3 -29   12.02    7.66
  -9  -3  29   -6.03    4.25
   0   9 -29  400.01   65.24
   0   9 -29   80.28   62.16
   0  -9  29  216.96   53.80
  -1  -9  29   44.18   15.49
   2   9 -29  -32.74   12.71
  -2  -9  29  -21.10    7.16
   3   9 -29    1.40   10.21
   3   9 -29  -23.69   10.68
  -3  -9  29    1.09    5.71
  -3  -9  29   -9.47    4.84
   4   9 -29   19.73   10.59
   4   9 -29    9.56   10.67
  -4  -9  29    0.22    5.08
  -4  -9  29   15.29    6.15
   5   9 -29   22.61   11.19
   5   9 -29    4.75   10.44
  -5  -9  29    2.27    5.05
  -5  -9  29    0.29    5.70
   6   9 -29   10.24   11.24
   6   9 -29   -3.37   10.05
  -6  -9  29   -7.75    5.85
  -6  -9  29    0.24    4.83
   7   9 -29  -17.07   11.61
  -7  -9  29    1.97    5.18
  10   5 -29    1.52    8.80
  10   5 -29    2.28   13.03
 -10  -5  29   -4.57    5.27
 -10  -5  29    0.58    5.84
  10   4 -29    2.97    8.61
  10   4 -29    0.44   12.50
 -10  -4  29    5.72    5.12
  10   3 -29   18.69    8.23
 -10  -3  29    0.25    4.42
   0  10 -29    9.61   10.31
   0  10 -29   -9.81    9.86
   1  10 -29   -1.04   10.29
   1  10 -29   -4.99    9.36
  -1 -10  29    0.26    4.65
  -1 -10  29    1.62    4.41
   2  10 -29   -2.63   10.83
   2  10 -29    9.09   10.21
  -2 -10  29    0.21    4.57
  -2 -10  29   -9.53    5.32
   3  10 -29   29.91   10.85
   3  10 -29    4.14   10.77
  -3 -10  29   -2.00    5.60
  -3 -10  29   -2.19    4.62
   4  10 -29    1.05   11.36
   4  10 -29   -6.60   10.86
  -4 -10  29   -2.90    5.61
  -4 -10  29   -4.77    5.07
   5  10 -29   18.54   11.26
   5  10 -29   25.06   11.35
  -5 -10  29    0.30    5.70
   6  10 -29  -11.08   11.21
  -6 -10  29   -0.24    5.21
  11   4 -29    0.93   12.33
 -11  -4  29    1.63    5.09
  11   3 -29   12.30    8.23
   0  11 -29   -3.42   10.86
   1  11 -29  -11.31   10.03
   1  11 -29    0.59   11.05
  -1 -11  29   -1.63    4.87
  -1 -11  29   -4.50    4.81
   2  11 -29  -25.36   10.94
   2  11 -29   -7.18   12.10
  -2 -11  29  -13.83    5.33
  -2 -11  29   -5.19    5.96
   3  11 -29    5.87   11.36
   3  11 -29    0.33   10.40
  -3 -11  29    3.23    4.78
  -3 -11  29   -0.30    5.60
   4  11 -29    0.34   10.16
  -4 -11  29    0.62    5.88
  -4 -11  29    5.00    5.02
   1  12 -29  -23.11   10.57
   1  12 -29   11.01   11.90
  -1 -12  29    1.36    4.85
  -1 -12  29   -0.30    5.06
   2  12 -29   -1.95   12.12
   2  12 -29    7.70   10.77
  -2 -12  29   -6.27    5.53
  -2 -12  29    2.12    5.16
   3  12 -29   -6.52   10.91
   1  13 -29    3.37   10.65
  -1 -13  29  -13.35    5.49
  -1   3 -30    7.58    6.65
   0   3 -30    9.23    6.79
   1   3 -30    2.42    6.14
   2   3 -30    3.80    6.62
   3   3 -30   -3.65    6.31
   4   3 -30    0.57    6.62
  -1   4 -30    3.95    7.62
   0   4 -30    2.42    6.99
   0  -4  30    5.27    3.62
   1   4 -30    1.51    7.24
  -1  -4  30   -2.63    3.90
   2   4 -30   -5.74    7.12
   2   4 -30   -4.46    9.90
  -2  -4  30    7.59    3.69
   3   4 -30    3.56    9.76
   3   4 -30   -3.35    7.08
  -3  -4  30  -10.12    3.95
   4   4 -30    0.37   10.03
   4   4 -30    3.09    7.10
  -4  -4  30    5.06    4.08
   5   4 -30   -4.42    7.11
   5   4 -30   -5.01   10.30
  -5  -4  30    0.22    4.24
   5   3 -30   -7.36    6.83
  -5  -3  30    4.06    3.94
  -1   5 -30    4.05    7.82
   0   5 -30    0.32    9.08
   0   5 -30    2.69    8.36
   0  -5  30   11.79    4.04
   1   5 -30   -7.05    8.06
   1   5 -30   -0.33    9.23
  -1  -5  30    3.47    3.62
   2   5 -30    7.62    9.88
   2   5 -30   12.40    7.73
  -2  -5  30   -3.59    3.74
   3   5 -30  -18.78   10.41
   3   5 -30   -0.67    7.73
  -3  -5  30   -4.16    3.90
   4   5 -30    4.40    7.96
   4   5 -30    4.14   10.44
  -4  -5  30   12.60    4.72
   5   5 -30    0.39   10.76
   5   5 -30   -2.74    7.86
  -5  -5  30    0.23    4.45
   6   4 -30  -23.30    8.26
  -6  -4  30   -1.15    4.61
   6   3 -30    1.82    7.15
  -6  -3  30   -0.67    4.18
   0   6 -30    8.75    8.25
   0   6 -30    0.31    9.18
   0  -6  30    7.74    3.87
   0  -6  30   -1.16    4.55
   1   6 -30   21.44    8.68
   1   6 -30    0.66    9.68
  -1  -6  30    0.19    3.89
  -1  -6  30    3.36    4.82
   2   6 -30    5.43    8.38
   2   6 -30   10.38    9.93
  -2  -6  30   -6.86    4.12
  -2  -6  30    1.98    4.83
   3   6 -30  -11.52   10.23
   3   6 -30    5.07    8.87
  -3  -6  30   -7.86    4.22
  -3  -6  30    1.79    5.27
   4   6 -30   -6.91    8.54
   4   6 -30  -21.51   11.34
  -4  -6  30   -0.26    5.44
  -4  -6  30   -9.94    4.91
   5   6 -30   91.05   18.48
  -5  -6  30   13.72   13.86
  -5  -6  30   60.90   12.77
   6   6 -30    1.19   11.28
   6   6 -30   -4.48    9.18
  -6  -6  30   -0.24    4.61
  -6  -6  30  -19.35    6.08
   7   6 -30   15.63    9.42
   7   6 -30  -17.78   11.94
  -7  -6  30    0.29    5.94
  -7  -6  30    0.25    4.80
   7   5 -30  -17.14    8.61
   7   5 -30   -6.37   11.72
  -7  -5  30   -0.28    5.61
  -7  -5  30   11.62    4.96
   7   4 -30  -23.31    9.24
  -7  -4  30   -2.39    5.37
   7   3 -30   59.43   13.39
   0   7 -30   -1.26    9.70
   0   7 -30    5.43    8.96
   0  -7  30    0.18    3.93
   0  -7  30    1.66    4.51
   1   7 -30   -5.22    8.92
   1   7 -30    0.95    9.50
  -1  -7  30   -0.19    4.10
  -1  -7  30    1.49    4.89
   2   7 -30  -15.66   10.32
  -2  -7  30   -5.88    5.69
   3   7 -30   18.68   12.26
   3   7 -30   47.36   10.75
  -3  -7  30    0.53    6.49
   4   7 -30   -8.46    9.60
  -4  -7  30  -20.63    6.44
   5   7 -30   -9.02   11.02
   5   7 -30  -12.99    9.28
  -5  -7  30  -12.56    5.78
  -5  -7  30   -7.55    4.79
   6   7 -30   -0.41    8.95
   6   7 -30  -31.74   11.60
  -6  -7  30    0.29    5.92
  -6  -7  30   -6.45    4.90
   7   7 -30    7.36   11.98
   7   7 -30    9.65    9.60
  -7  -7  30    0.30    5.94
  -7  -7  30   -0.75    5.14
   8   6 -30   20.28   12.91
   8   6 -30   -1.21    9.47
  -8  -6  30  -10.05    5.88
  -8  -6  30  -10.24    5.42
   8   5 -30   -0.38    8.32
   8   5 -30    1.33   12.42
  -8  -5  30   -9.27    6.01
  -8  -5  30    3.10    5.43
   8   4 -30    1.30   11.86
  -8  -4  30    6.00    4.91
  -8  -3  30   -7.77    4.60
   0   8 -30  -31.28   12.74
   0  -8  30   -8.57    5.58
   0  -8  30  -14.86    6.20
   1   8 -30  -37.60   12.78
  -1  -8  30  -13.30    7.12
   2   8 -30   -3.62   10.16
  -2  -8  30  -11.74    5.90
   3   8 -30  -15.15   10.14
   3   8 -30   11.33    9.87
  -3  -8  30   -0.27    5.56
  -3  -8  30   -9.21    4.77
   4   8 -30  -16.15   10.61
   4   8 -30   10.46    9.96
  -4  -8  30    0.84    5.45
  -4  -8  30    7.37    4.82
   5   8 -30   10.54    9.87
   5   8 -30   -0.37   11.15
  -5  -8  30  -10.48    4.83
  -5  -8  30    0.29    5.42
   6   8 -30   -1.86    9.99
   6   8 -30   14.35   11.61
  -6  -8  30    0.73    5.10
  -6  -8  30    0.60    6.16
   7   8 -30    0.81   12.05
  -7  -8  30  -11.71    5.64
   9   5 -30  -12.96   13.55
  -9  -5  30    0.27    5.12
   9   4 -30   -9.55    8.38
   9   4 -30   -9.93   12.72
  -9  -4  30    5.23    5.02
   0   9 -30   -1.22    9.45
   0   9 -30   -5.93   10.40
   1   9 -30    0.32    9.76
   1   9 -30    2.52   10.53
  -1  -9  30    1.83    4.28
  -1  -9  30    4.23    5.38
   2   9 -30    1.97   10.34
   2   9 -30   -4.38   10.21
  -2  -9  30    2.77    4.45
  -2  -9  30  -10.88    5.41
   3   9 -30  -15.82   10.74
   3   9 -30    4.96   10.66
  -3  -9  30    5.72    5.91
  -3  -9  30   -8.01    4.69
   4   9 -30    4.50   10.79
   4   9 -30   -5.11   10.83
  -4  -9  30    0.30    5.76
  -4  -9  30    3.24    4.82
   5   9 -30    3.53   11.11
   5   9 -30  -21.20   11.42
  -5  -9  30   12.30    6.04
  -5  -9  30    1.44    4.92
   6   9 -30    0.39   11.74
  -6  -9  30    9.02    5.61
   1  10 -30   -6.09   11.57
   1  10 -30   12.03   10.30
  -1 -10  30   -3.29    5.23
  -1 -10  30    0.21    4.63
   2  10 -30   22.33   11.09
   2  10 -30   -4.36   11.12
  -2 -10  30    0.87    5.39
  -2 -10  30   -6.67    4.86
   3  10 -30   -0.55   11.27
   3  10 -30    0.35   10.49
  -3 -10  30    1.48    5.83
  -3 -10  30    3.24    4.88
   4  10 -30    6.67   11.67
   4  10 -30   16.10   11.56
  -4 -10  30    1.86    5.88
  -4 -10  30    0.48    5.24
   1  11 -30   16.77   10.85
   1  11 -30   -3.12   11.99
  -1 -11  30   11.29    5.56
  -1 -11  30  -11.38    5.08
   2  11 -30    0.35   10.67
   2  11 -30   -9.24   11.88
  -2 -11  30  -10.15    5.77
  -2 -11  30    5.12    5.00
   3  11 -30  -12.59   11.24
  -3 -11  30    2.17    5.03
   1  12 -30   -1.04   11.01
   1  12 -30    4.13   12.70
  -1 -12  30    7.52    5.59
  -1 -12  30   12.77    5.50
   2  12 -30    0.72   11.15
  -1   3 -31  -11.88    6.91
   0   3 -31   -8.53    6.94
   1   3 -31    4.59    6.63
   2   3 -31   -4.37    6.71
   0   4 -31   -7.62    7.55
   1   4 -31    3.17    7.30
  -1  -4  31    6.73    3.96
   2   4 -31   10.84    7.63
  -2  -4  31    5.96    4.31
   3   4 -31    3.22    7.38
  -3  -4  31   -5.99    4.04
   4   4 -31  -11.46    8.59
  -4  -4  31  -15.30    4.82
   5   4 -31   44.45   21.63
  -5  -4  31   98.45   18.71
   0   5 -31   -4.26    8.63
   0   5 -31    4.69    9.34
   0  -5  31    0.39    3.75
   1   5 -31    4.95    8.54
   1   5 -31   18.22   10.19
  -1  -5  31    4.84    4.09
   2   5 -31   -2.93   10.74
   2   5 -31   -1.06    8.31
  -2  -5  31    0.21    4.02
   3   5 -31  -10.99    9.21
   4   5 -31    9.66   20.80
   4   5 -31  113.32   25.14
  -4  -5  31   67.37   17.61
   5   5 -31    1.24   11.48
   5   5 -31   -3.99    8.24
  -5  -5  31    0.24    4.40
   6   5 -31  -12.53   12.33
   6   5 -31    0.37    8.45
  -6  -5  31   -4.77    4.67
   6   4 -31  -10.97    7.86
   6   4 -31    0.42   11.42
  -6  -4  31  -13.02    4.64
   0   6 -31   12.73    9.65
   0  -6  31   -5.92    5.24
   0  -6  31  -12.22    4.39
   1   6 -31   28.46    9.84
   1   6 -31    2.77   12.10
  -1  -6  31   -5.89    5.44
  -1  -6  31   -5.79    4.30
   2   6 -31  227.48   30.46
   2   6 -31   31.82   27.99
  -2  -6  31  129.78   24.18
  -2  -6  31   56.52   26.88
   3   6 -31   -3.83    9.12
   4   6 -31    6.33   11.76
   4   6 -31   -5.78    9.65
  -4  -6  31   -9.29    4.90
  -4  -6  31   -0.28    6.08
   5   6 -31    5.35   11.79
   5   6 -31    4.28    9.38
  -5  -6  31   -1.43    5.52
  -5  -6  31    9.47    5.09
   6   6 -31    0.40    9.50
   6   6 -31    0.43   12.14
  -6  -6  31    0.25    4.93
  -6  -6  31   -0.29    5.62
   7   6 -31    0.40    8.55
   7   6 -31  -14.37   12.84
  -7  -6  31    2.65    5.29
   7   5 -31   12.49    8.81
   7   5 -31  -30.68   12.61
  -7  -5  31    0.52    5.09
  -7  -5  31    1.19    6.20
   7   4 -31   -0.36    8.05
   7   4 -31  -30.31   12.46
  -7  -4  31   -5.54    4.74
   0   7 -31   -2.61    9.83
   0   7 -31   -2.23   10.51
   1   7 -31    2.99    9.62
   1   7 -31    0.34   10.31
  -1  -7  31  -17.83    4.36
  -1  -7  31    0.26    5.31
   2   7 -31   24.08   11.14
   2   7 -31    9.80    9.92
  -2  -7  31   -2.79    4.60
  -2  -7  31   10.06    5.50
   3   7 -31    2.55    9.68
   3   7 -31  -15.43   10.60
  -3  -7  31   -9.23    4.55
  -3  -7  31    4.49    5.89
   4   7 -31    1.28    9.42
   4   7 -31  -20.74   11.45
  -4  -7  31   -0.29    5.97
  -4  -7  31    2.82    4.85
   5   7 -31   -1.20   11.79
   5   7 -31    0.43    9.52
  -5  -7  31    6.88    5.12
  -5  -7  31    0.30    5.79
   6   7 -31    6.98    9.58
   6   7 -31    9.18   12.12
  -6  -7  31    0.26    5.08
  -6  -7  31    0.31    5.96
   8   5 -31    7.52   13.24
  -8  -5  31    0.27    5.25
   8   4 -31    9.14   13.15
  -8  -4  31    0.26    4.88
   0   8 -31   -0.49   10.88
   1   8 -31   -4.70   10.33
   1   8 -31    1.92   10.34
  -1  -8  31    4.37    5.63
  -1  -8  31    1.03    4.38
   2   8 -31   -7.06   10.52
   2   8 -31   -4.33   10.69
  -2  -8  31    2.84    5.74
  -2  -8  31    9.57    4.76
   3   8 -31    0.37   10.66
   3   8 -31    1.44   10.36
  -3  -8  31    4.06    5.75
  -3  -8  31   -2.96    4.84
   4   8 -31  -13.99   10.64
   4   8 -31  -15.81   11.44
  -4  -8  31   -6.90    5.03
  -4  -8  31   -0.30    5.92
   5   8 -31   -9.72   10.34
   5   8 -31   -8.03   11.47
  -5  -8  31    0.31    5.97
  -5  -8  31    0.25    5.13
   1   9 -31  -12.04   10.60
   1   9 -31    8.07   11.74
  -1  -9  31   -2.55    5.44
  -1  -9  31   -4.91    4.58
   2   9 -31   11.92   11.31
   2   9 -31    1.05   11.34
  -2  -9  31    0.90    5.69
  -2  -9  31    5.60    4.67
   3   9 -31   12.14   11.81
   3   9 -31   -2.26   11.06
  -3  -9  31    9.13    4.82
  -3  -9  31   -2.44    5.92
   4   9 -31   26.30   12.27
  -4  -9  31   -3.49    6.17
  -4  -9  31    0.24    5.15
   1  10 -31   14.79   13.03
   1  10 -31   21.65   11.58
  -1 -10  31    8.91    5.48
  -1 -10  31    8.23    6.23
   2  10 -31    1.81   10.85
   2  10 -31   -1.74   11.87
  -2 -10  31    0.31    5.47
  -2 -10  31    0.23    4.97
   3  10 -31    1.17   10.14
   3  10 -31   -9.44   11.89
  -3 -10  31  -11.94    5.71
   1  11 -31  -10.39   11.07
   1  11 -31   -5.33   13.14
  -1 -11  31   12.18    5.10
  -1 -11  31   -2.16    5.49
   2  11 -31  -10.82   11.52
  -2 -11  31    6.57    5.33
   0   4 -32    5.66    8.06
   1   4 -32   22.68    9.84
   2   4 -32   -8.72    8.30
   3   4 -32  -13.58    8.54
   4   4 -32   -0.35    8.07
  -4  -4  32    1.40    4.05
   5   4 -32   -1.06    7.65
  -5  -4  32    0.49    4.31
   0   5 -32   -0.37    9.15
   0  -5  32  -16.66    4.57
   1   5 -32  -10.03    8.98
   1   5 -32   -6.25   11.00
  -1  -5  32  -10.78    4.55
   2   5 -32   -4.46    8.73
   2   5 -32  -19.23   10.67
  -2  -5  32   12.59    4.49
   3   5 -32   18.89   11.52
   3   5 -32   -7.85    9.01
  -3  -5  32   -3.23    4.39
   4   5 -32  -16.79   11.85
   4   5 -32   -7.93    9.09
  -4  -5  32    5.54    4.67
   5   5 -32    5.25   12.52
   5   5 -32   12.65    9.26
  -5  -5  32    7.30    5.39
   6   5 -32    2.74    8.98
   6   5 -32   15.52   12.56
  -6  -5  32    0.26    5.15
   6   4 -32   16.34    8.31
  -6  -4  32    5.10    4.90
   0   6 -32   -2.93    9.77
   0   6 -32  -12.10   10.61
   1   6 -32   12.32   10.77
   1   6 -32   -4.87    9.42
  -1  -6  32   -2.60    4.22
  -1  -6  32    2.70    5.78
   2   6 -32   13.36    9.29
   2   6 -32    0.39   10.87
  -2  -6  32    3.89    5.73
  -2  -6  32    0.45    4.44
   3   6 -32   -4.10   11.65
   3   6 -32    8.10    9.37
  -3  -6  32    3.72    5.84
  -3  -6  32    0.24    4.76
   4   6 -32    0.41    9.53
   4   6 -32    5.56   12.15
  -4  -6  32   -4.41    5.67
  -4  -6  32    1.50    5.07
   5   6 -32    0.45   12.60
   5   6 -32    6.59    9.83
  -5  -6  32    0.60    6.25
  -5  -6  32    5.21    5.22
   6   6 -32    1.40   13.05
  -6  -6  32    1.09    5.46
  -7  -4  32   -0.27    4.81
   1   7 -32    2.60   10.73
   1   7 -32   -3.62   10.18
  -1  -7  32   -3.36    5.82
  -1  -7  32    4.39    4.56
   2   7 -32   -5.41   10.61
   2   7 -32    0.38   11.33
  -2  -7  32    7.38    4.94
  -2  -7  32    5.48    6.08
   3   7 -32    4.06    9.99
   3   7 -32    4.79   11.80
  -3  -7  32    4.98    4.84
  -3  -7  32   -0.30    5.88
   4   7 -32   -0.42   12.16
   4   7 -32    1.81   10.26
  -4  -7  32    0.31    6.00
  -4  -7  32  -10.68    4.94
   5   7 -32   16.55   12.72
  -5  -7  32    0.52    5.29
   1   8 -32    3.97   10.77
   1   8 -32    1.53   11.70
  -1  -8  32    0.29    5.41
  -1  -8  32    0.66    4.66
   2   8 -32  -17.44   11.06
   2   8 -32   -1.53   11.06
  -2  -8  32    0.89    5.91
  -2  -8  32   -0.23    4.73
   3   8 -32   -0.40   11.70
   3   8 -32    6.13   11.20
  -3  -8  32   -3.40    6.32
  -3  -8  32   -7.49    4.90
   4   8 -32    0.51    8.46
   4   8 -32    7.47   12.35
  -4  -8  32   -0.25    5.11
   1   9 -32  -23.49   11.18
   1   9 -32   19.44   12.03
  -1  -9  32   -0.90    4.74
  -1  -9  32    6.34    5.69
   2   9 -32    5.03   12.49
   2   9 -32   -4.25   11.50
  -2  -9  32    0.24    4.91
  -2  -9  32   -6.25    5.93
   3   9 -32  -26.27   12.03
  -3  -9  32   -7.82    6.24
  -3  -9  32   18.85    5.34
   1  10 -32    8.58   12.76
   1  10 -32    0.37   11.53
  -1 -10  32  -16.58    5.08
  -2 -10  32   -7.12    5.24
   0   4 -33   -2.08    7.91
   1   4 -33   -0.70    8.33
   2   4 -33  -12.70    8.73
   3   4 -33   -5.01    8.43
   4   4 -33    4.38    8.46
   5   4 -33  -12.34    8.65
   0   5 -33    5.06    8.97
   1   5 -33    6.23    9.10
  -1  -5  33  -10.45    4.39
   2   5 -33  -13.28    9.26
  -2  -5  33   12.27    4.71
   3   5 -33  -19.85   11.88
   3   5 -33   -0.39    9.35
  -3  -5  33    0.24    4.49
   4   5 -33   -8.83   12.28
   4   5 -33   -7.17    9.10
  -4  -5  33    2.28    4.69
   5   5 -33   -0.46   12.69
   5   5 -33   -9.71    7.84
  -5  -5  33  -12.45    5.18
   1   6 -33   22.76   11.68
   1   6 -33    5.97    9.91
  -1  -6  33   -1.43    5.72
  -1  -6  33   -3.64    4.50
   2   6 -33   15.68   11.66
   2   6 -33    6.82   10.41
  -2  -6  33   11.73    6.20
  -2  -6  33    0.48    4.73
   3   6 -33   19.48   12.90
   3   6 -33  -20.50   10.70
  -3  -6  33   22.14    5.46
  -3  -6  33    1.21    6.13
   4   6 -33   19.45   13.03
   4   6 -33    3.87   10.61
  -4  -6  33    4.22    5.24
  -4  -6  33    1.24    6.01
   1   7 -33    6.64   11.29
   1   7 -33   -4.78   11.08
  -1  -7  33   -3.56    5.74
  -1  -7  33   15.01    4.95
   2   7 -33    6.99   12.04
   2   7 -33    2.38   10.98
  -2  -7  33    0.31    6.03
  -2  -7  33   -5.82    4.82
   3   7 -33    3.02   12.57
   3   7 -33    3.33   10.88
  -3  -7  33    1.26    6.37
  -3  -7  33    2.55    5.14
   4   7 -33    6.77   13.44
  -4  -7  33    2.93    5.52
   1   8 -33    8.67   12.34
   1   8 -33   -0.39   11.45
  -1  -8  33    1.54    5.99
  -1  -8  33    3.04    4.74
   2   8 -33  -23.87   12.30
   2   8 -33    3.25   12.08
  -2  -8  33    0.32    5.89
  -2  -8  33   -1.97    4.96
   3   8 -33   -7.77   12.58
  -3  -8  33    2.59    5.14
   1   9 -33   23.06   13.62
   1   9 -33  -24.67   12.08
   2   9 -33   -5.67   12.13
  -2  -9  33    8.78    5.26
   1   4 -34    7.30    8.94
   1   5 -34    0.81    9.51
   2   5 -34    4.09    9.38
  -2  -5  34   -5.12    4.50
   3   5 -34  -13.21    9.98
  -3  -5  34   -1.28    4.83
  -4  -5  34    0.53    4.77
   1   6 -34    0.41   11.73
   1   6 -34   12.53   10.61
  -1  -6  34  -18.08    4.66
  -1  -6  34    2.10    6.14
   2   6 -34    0.90   10.51
   2   6 -34   -3.90   12.26
  -2  -6  34    0.25    4.86
  -2  -6  34    4.96    5.99
   3   6 -34    0.45   13.03
  -3  -6  34   20.51    5.85
  -3  -6  34    4.16    7.01
   1   7 -34   13.08   11.44
   1   7 -34  -18.93   12.01
  -1  -7  34    3.43    4.82
   2   7 -34   -9.75   12.79
   2   7 -34    6.02    9.89
  -2  -7  34    4.87    6.63
  -2  -7  34   -1.04    5.00
   1   8 -34   -1.15   11.86
   1   5 -35   -0.44   10.17
  -1  -5  35    9.39    6.33
   2   5 -35    0.43    7.95
  -2  -5  35    8.49    6.33
   1   6 -35    3.36   11.13
  -2  -6  35    7.08    5.01
   0   0   0    0.00    0.00
;
_shelx_hkl_checksum              80803
_shelx_fab_checksum              76001
_shelx_fab_file
;
    0    2    0   -369.44      0.00
    1    2    0    356.27      0.00
    1    3    0     10.33      0.00
    2    3    0    201.12      0.00
    0    4    0     13.19      0.00
    1    4    0     40.52      0.00
    2    4    0     34.99      0.00
    1    5    0    -68.10      0.00
    2    5    0     20.96      0.00
    3    5    0     -0.45      0.00
    0    6    0     55.77      0.00
    1    6    0    -63.92      0.00
    2    6    0     55.22      0.00
    3    6    0     10.03      0.00
    4    6    0    -12.17      0.00
    1    7    0     11.51      0.00
    2    7    0    -21.27      0.00
    3    7    0     50.76      0.00
    4    7    0     22.51      0.00
    0    8    0      1.92      0.00
    1    8    0     -3.66      0.00
    2    8    0    -29.07      0.00
    3    8    0    -48.34      0.00
    4    8    0      0.40      0.00
    5    8    0    -13.29      0.00
    1    9    0     24.98      0.00
    2    9    0     14.12      0.00
    3    9    0    -14.69      0.00
    4    9    0      1.49      0.00
    5    9    0      2.58      0.00
    0   10    0     12.06      0.00
    1   10    0    -11.45      0.00
    2   10    0     -3.44      0.00
    3   10    0      2.17      0.00
    4   10    0    -14.57      0.00
    5   10    0      8.57      0.00
    1   11    0     -8.61      0.00
    2   11    0     -5.47      0.00
    3   11    0      6.96      0.00
    4   11    0    -42.62      0.00
    5   11    0     10.47      0.00
    6   11    0      9.65      0.00
    0   12    0     22.60      0.00
    1   12    0     28.39      0.00
    2   12    0    -15.61      0.00
    3   12    0      8.21      0.00
    4   12    0      7.01      0.00
    5   12    0    -13.93      0.00
    6   12    0    -10.37      0.00
    1   13    0     28.07      0.00
    2   13    0     21.19      0.00
    3   13    0     -2.75      0.00
    4   13    0      5.89      0.00
    5   13    0     18.47      0.00
    1   14    0    -31.50      0.00
    2   14    0     -5.86      0.00
    3   14    0     15.26      0.00
    4   14    0    -10.95      0.00
    5   14    0    -14.20      0.00
    6   14    0     -1.47      0.00
    1   15    0    -22.68      0.00
    2   15    0    -19.98      0.00
    3   15    0      9.13      0.00
    4   15    0    -25.79      0.00
    5   15    0      0.52      0.00
    6   15    0    -11.15      0.00
    0   16    0    -56.26      0.00
    1   16    0     19.54      0.00
    2   16    0     -6.95      0.00
    3   16    0      5.53      0.00
    4   16    0     26.01      0.00
    5   16    0     -6.93      0.00
    6   16    0     63.07      0.00
    7   16    0     10.16      0.00
    1   17    0     50.58      0.00
    2   17    0     63.07      0.00
    3   17    0     -9.15      0.00
    4   17    0      4.49      0.00
    5   17    0    -14.22      0.00
    6   17    0     -5.42      0.00
    7   17    0    -23.63      0.00
    0   18    0    -26.45      0.00
    1   18    0    -12.87      0.00
    2   18    0   -167.41      0.00
    3   18    0    -35.87      0.00
    4   18    0     -2.24      0.00
    5   18    0     14.15      0.00
    6   18    0    -16.34      0.00
    7   18    0      6.12      0.00
    1   19    0    -55.29      0.00
    2   19    0    186.28      0.00
    3   19    0    -49.01      0.00
    4   19    0      4.57      0.00
    5   19    0     -1.48      0.00
    6   19    0    -11.13      0.00
    0   20    0    -24.24      0.00
    1   20    0    -80.31      0.00
    2   20    0    -73.93      0.00
    3   20    0    -33.08      0.00
    4   20    0      4.74      0.00
    5   20    0     20.09      0.00
    6   20    0    -16.10      0.00
    1    2    1     85.62      0.00
    0    3    1    -52.86      0.00
    1    3    1    165.09      0.00
    2    3    1     24.50      0.00
    1    4    1     10.93      0.00
    2    4    1     35.61      0.00
    3    4    1     28.27      0.00
    0    5    1     21.80      0.00
    1    5    1    -28.09      0.00
    2    5    1     35.53      0.00
    3    5    1      9.62      0.00
    1    6    1      9.24      0.00
    2    6    1    -56.51      0.00
    3    6    1     18.30      0.00
    4    6    1     19.10      0.00
    0    7    1    -40.88      0.00
    1    7    1    -25.71      0.00
    2    7    1     -0.07      0.00
    3    7    1     20.70      0.00
    4    7    1      8.25      0.00
    1    8    1      3.97      0.00
    2    8    1      6.61      0.00
    3    8    1     16.89      0.00
    4    8    1      7.69      0.00
    5    8    1     42.57      0.00
    0    9    1    -27.25      0.00
    1    9    1     19.33      0.00
    2    9    1      3.11      0.00
    3    9    1     15.46      0.00
    4    9    1     -2.90      0.00
    5    9    1     -8.76      0.00
    1   10    1     24.15      0.00
    2   10    1    -24.36      0.00
    3   10    1    -13.34      0.00
    4   10    1     -3.05      0.00
    5   10    1     -9.33      0.00
    6   10    1     10.34      0.00
    0   11    1     -6.22      0.00
    1   11    1      1.72      0.00
    2   11    1     11.18      0.00
    3   11    1      7.52      0.00
    4   11    1      3.37      0.00
    5   11    1     20.68      0.00
    6   11    1    -15.39      0.00
    1   12    1    -36.87      0.00
    2   12    1    -18.78      0.00
    3   12    1      2.34      0.00
    4   12    1      6.61      0.00
    5   12    1      8.44      0.00
    6   12    1      8.46      0.00
    0   13    1     33.43      0.00
    1   13    1      0.06      0.00
    2   13    1     23.58      0.00
    3   13    1     -8.67      0.00
    4   13    1     -6.22      0.00
    5   13    1     -5.16      0.00
    6   13    1    -28.46      0.00
    1   14    1    -11.99      0.00
    2   14    1      6.96      0.00
    3   14    1      7.80      0.00
    4   14    1     -2.86      0.00
    5   14    1      2.88      0.00
    6   14    1    -15.94      0.00
    7   14    1    -10.10      0.00
    0   15    1    -15.71      0.00
    1   15    1     -7.35      0.00
    2   15    1     -0.85      0.00
    3   15    1     -8.26      0.00
    4   15    1      6.43      0.00
    5   15    1     22.38      0.00
    6   15    1    -32.22      0.00
    7   15    1     18.38      0.00
    1   16    1    -10.24      0.00
    2   16    1      0.00      0.00
    3   16    1    -20.63      0.00
    4   16    1     10.18      0.00
    5   16    1     -3.15      0.00
    6   16    1    -35.50      0.00
    7   16    1     31.01      0.00
    0   17    1     -0.54      0.00
    1   17    1     90.15      0.00
    2   17    1     12.86      0.00
    3   17    1     -9.54      0.00
    4   17    1     36.65      0.00
    5   17    1     -2.86      0.00
    6   17    1     -1.84      0.00
    7   17    1    -33.09      0.00
    1   18    1    -34.13      0.00
    2   18    1   -147.96      0.00
    3   18    1    -22.39      0.00
    4   18    1     21.26      0.00
    5   18    1      4.37      0.00
    6   18    1      6.92      0.00
    7   18    1    -38.32      0.00
    1   19    1     29.34      0.00
    2   19    1    260.17      0.00
    3   19    1    -34.78      0.00
    4   19    1    -23.30      0.00
    5   19    1     -9.53      0.00
    6   19    1     -6.01      0.00
    7   19    1     36.41      0.00
    1   20    1    -33.62      0.00
    2   20    1    -20.33      0.00
    3   20    1    -35.88      0.00
    4   20    1    -16.65      0.00
    5   20    1     -8.81      0.00
    6   20    1    -10.21      0.00
    1    1    2   -608.93      0.00
    0    2    2     17.67      0.00
    1    2    2   -124.46      0.00
    2    2    2     45.54      0.00
    1    3    2     22.27      0.00
    2    3    2    -45.36      0.00
    3    3    2    -90.23      0.00
    0    4    2    -10.25      0.00
    1    4    2     51.82      0.00
    2    4    2    -19.36      0.00
    3    4    2    -34.01      0.00
    1    5    2      7.05      0.00
    2    5    2    -34.31      0.00
    3    5    2     -8.45      0.00
    0    6    2    -29.39      0.00
    1    6    2    -22.66      0.00
    2    6    2     20.46      0.00
    3    6    2     -9.89      0.00
    4    6    2     -2.80      0.00
    1    7    2    -30.00      0.00
    2    7    2     18.34      0.00
    3    7    2     -4.27      0.00
    4    7    2      1.00      0.00
    5    7    2    -14.56      0.00
    0    8    2    -14.04      0.00
    1    8    2     -4.91      0.00
    2    8    2    -24.90      0.00
    3    8    2    -16.44      0.00
    4    8    2    -12.97      0.00
    5    8    2    -16.49      0.00
    1    9    2     -8.61      0.00
    2    9    2      5.57      0.00
    3    9    2     -8.90      0.00
    4    9    2      6.20      0.00
    5    9    2      3.36      0.00
    6    9    2      0.73      0.00
    0   10    2      0.78      0.00
    1   10    2     -2.16      0.00
    2   10    2      1.27      0.00
    3   10    2      1.37      0.00
    4   10    2     -0.08      0.00
    5   10    2     -3.03      0.00
    6   10    2    -15.69      0.00
    1   11    2      2.37      0.00
    2   11    2     -6.50      0.00
    3   11    2     -0.06      0.00
    4   11    2     -8.87      0.00
    5   11    2     10.52      0.00
    6   11    2      5.70      0.00
    0   12    2    -27.80      0.00
    1   12    2     34.75      0.00
    2   12    2      8.53      0.00
    3   12    2     -0.87      0.00
    4   12    2      1.77      0.00
    5   12    2     30.16      0.00
    6   12    2    -14.82      0.00
    7   12    2      9.04      0.00
    1   13    2      6.52      0.00
    2   13    2      4.12      0.00
    3   13    2     -2.90      0.00
    4   13    2     -6.74      0.00
    5   13    2      1.93      0.00
    6   13    2     15.21      0.00
    0   14    2     -9.68      0.00
    1   14    2    -43.68      0.00
    2   14    2     24.83      0.00
    3   14    2     -7.42      0.00
    4   14    2    -29.50      0.00
    5   14    2      7.99      0.00
    6   14    2     10.29      0.00
    7   14    2     30.71      0.00
    1   15    2     13.34      0.00
    2   15    2    -58.44      0.00
    3   15    2    -11.58      0.00
    4   15    2     16.79      0.00
    5   15    2     -8.86      0.00
    6   15    2      1.84      0.00
    7   15    2     17.02      0.00
    0   16    2     12.43      0.00
    1   16    2    -22.86      0.00
    2   16    2      2.25      0.00
    3   16    2     -0.12      0.00
    4   16    2     -3.56      0.00
    5   16    2      7.22      0.00
    6   16    2     55.56      0.00
    7   16    2     20.93      0.00
    1   17    2     79.33      0.00
    2   17    2     -6.96      0.00
    3   17    2    -21.46      0.00
    4   17    2     18.34      0.00
    5   17    2     23.42      0.00
    6   17    2      7.43      0.00
    7   17    2     16.36      0.00
    0   18    2    -10.50      0.00
    1   18    2    -54.09      0.00
    2   18    2    -16.38      0.00
    3   18    2      9.98      0.00
    4   18    2     20.85      0.00
    5   18    2      1.23      0.00
    6   18    2    -16.87      0.00
    7   18    2     28.60      0.00
    1   19    2     54.09      0.00
    2   19    2    185.02      0.00
    3   19    2    -10.75      0.00
    4   19    2    -34.50      0.00
    5   19    2     23.40      0.00
    6   19    2     -9.49      0.00
    7   19    2     13.44      0.00
    0   20    2     -7.27      0.00
    1   20    2    -83.27      0.00
    2   20    2     12.39      0.00
    3   20    2     -4.49      0.00
    4   20    2     -7.32      0.00
    5   20    2      8.59      0.00
    6   20    2    -29.76      0.00
    7   20    2    -37.23      0.00
    0    1    3    127.23      0.00
    1    2    3   -109.47      0.00
    0    3    3    128.97      0.00
    1    3    3   -109.38      0.00
    2    3    3    -11.23      0.00
    1    4    3    -23.02      0.00
    2    4    3    -35.05      0.00
    3    4    3    -19.30      0.00
    0    5    3      9.52      0.00
    1    5    3     19.54      0.00
    2    5    3   -102.72      0.00
    3    5    3    -12.22      0.00
    4    5    3     22.25      0.00
    1    6    3     21.79      0.00
    2    6    3      8.28      0.00
    3    6    3      2.95      0.00
    4    6    3     -6.42      0.00
    5    6    3      5.38      0.00
    0    7    3     18.61      0.00
    1    7    3      5.30      0.00
    2    7    3      2.71      0.00
    3    7    3     -4.64      0.00
    4    7    3     -0.91      0.00
    5    7    3    -15.23      0.00
    1    8    3    -17.71      0.00
    2    8    3     18.57      0.00
    3    8    3    -16.48      0.00
    4    8    3     -2.61      0.00
    5    8    3     -7.29      0.00
    6    8    3      8.68      0.00
    0    9    3     30.01      0.00
    1    9    3     -9.31      0.00
    2    9    3     -1.78      0.00
    3    9    3     13.69      0.00
    4    9    3      5.77      0.00
    5    9    3     16.60      0.00
    6    9    3     -1.94      0.00
    1   10    3      5.88      0.00
    2   10    3      6.58      0.00
    3   10    3     12.07      0.00
    4   10    3     -5.35      0.00
    5   10    3     11.61      0.00
    6   10    3     -2.26      0.00
    0   11    3     -3.61      0.00
    1   11    3     19.02      0.00
    2   11    3     -8.30      0.00
    3   11    3     10.60      0.00
    4   11    3     -8.41      0.00
    5   11    3    -13.89      0.00
    6   11    3     -5.15      0.00
    7   11    3     -4.63      0.00
    1   12    3    -11.34      0.00
    2   12    3     -7.75      0.00
    3   12    3    -15.19      0.00
    4   12    3     -3.84      0.00
    5   12    3      7.89      0.00
    6   12    3     -3.42      0.00
    7   12    3      7.17      0.00
    0   13    3     35.67      0.00
    1   13    3     -8.78      0.00
    2   13    3    -27.58      0.00
    3   13    3      9.78      0.00
    4   13    3     10.52      0.00
    5   13    3     19.62      0.00
    6   13    3     -7.95      0.00
    1   14    3    -28.03      0.00
    2   14    3     50.22      0.00
    3   14    3     11.55      0.00
    4   14    3     10.58      0.00
    5   14    3     -7.62      0.00
    6   14    3    -14.26      0.00
    7   14    3     -2.56      0.00
    0   15    3      1.97      0.00
    1   15    3    -10.93      0.00
    2   15    3     -8.72      0.00
    3   15    3     16.17      0.00
    4   15    3    -18.03      0.00
    5   15    3     -6.17      0.00
    6   15    3    -15.34      0.00
    7   15    3     -0.12      0.00
    1   16    3     -1.01      0.00
    2   16    3     24.31      0.00
    3   16    3     -2.61      0.00
    4   16    3     -1.37      0.00
    5   16    3    -35.11      0.00
    6   16    3    -14.38      0.00
    7   16    3     -1.11      0.00
    0   17    3     57.65      0.00
    1   17    3     40.91      0.00
    2   17    3    -12.55      0.00
    3   17    3     14.90      0.00
    4   17    3      9.72      0.00
    5   17    3      8.03      0.00
    6   17    3      1.08      0.00
    7   17    3      6.26      0.00
    1   18    3    -23.50      0.00
    2   18    3    -30.68      0.00
    3   18    3    -23.09      0.00
    4   18    3    -12.04      0.00
    5   18    3     19.04      0.00
    6   18    3     -7.43      0.00
    7   18    3      0.12      0.00
    0   19    3    150.96      0.00
    1   19    3    181.86      0.00
    2   19    3    -50.71      0.00
    3   19    3    -58.93      0.00
    4   19    3     24.82      0.00
    5   19    3     12.51      0.00
    6   19    3     28.86      0.00
    1   20    3    -23.75      0.00
    2   20    3      0.82      0.00
    3   20    3    -29.91      0.00
    4   20    3     40.06      0.00
    5   20    3     -0.49      0.00
    6   20    3    -25.92      0.00
    0    0    4     16.67      0.00
    1    1    4      9.65      0.00
    0    2    4    106.56      0.00
    1    2    4    -14.56      0.00
    2    2    4     -6.30      0.00
    1    3    4     58.41      0.00
    2    3    4     23.20      0.00
    3    3    4    -46.81      0.00
    0    4    4    -96.25      0.00
    1    4    4    -41.13      0.00
    2    4    4     21.56      0.00
    3    4    4     23.81      0.00
    4    4    4    -10.67      0.00
    1    5    4    -53.12      0.00
    2    5    4    -32.48      0.00
    3    5    4     30.72      0.00
    4    5    4      0.36      0.00
    5    5    4     12.47      0.00
    0    6    4     30.02      0.00
    1    6    4     27.07      0.00
    2    6    4     -5.93      0.00
    3    6    4     15.33      0.00
    4    6    4      6.99      0.00
    5    6    4    -11.06      0.00
    1    7    4     15.03      0.00
    2    7    4      5.78      0.00
    3    7    4    -16.58      0.00
    4    7    4     -1.98      0.00
    5    7    4     -1.20      0.00
    6    7    4     -0.58      0.00
    0    8    4     -5.06      0.00
    1    8    4     30.53      0.00
    2    8    4     21.31      0.00
    3    8    4     10.42      0.00
    4    8    4     -5.03      0.00
    5    8    4      0.33      0.00
    6    8    4    -15.63      0.00
    1    9    4     16.21      0.00
    2    9    4     -9.17      0.00
    3    9    4      5.76      0.00
    4    9    4     -1.48      0.00
    5    9    4     -6.36      0.00
    6    9    4     13.98      0.00
    0   10    4     -8.86      0.00
    1   10    4    -39.41      0.00
    2   10    4     13.58      0.00
    3   10    4      7.58      0.00
    4   10    4     -1.53      0.00
    5   10    4     -5.00      0.00
    6   10    4     -3.28      0.00
    7   10    4      2.05      0.00
    1   11    4     -0.92      0.00
    2   11    4     10.99      0.00
    3   11    4     -0.07      0.00
    4   11    4     -2.05      0.00
    5   11    4     -3.20      0.00
    6   11    4     -0.87      0.00
    7   11    4     -0.60      0.00
    0   12    4      0.13      0.00
    1   12    4      6.40      0.00
    2   12    4     -0.95      0.00
    3   12    4      2.08      0.00
    4   12    4      7.14      0.00
    5   12    4    -21.18      0.00
    6   12    4      4.97      0.00
    7   12    4     16.24      0.00
    1   13    4      2.51      0.00
    2   13    4    -12.97      0.00
    3   13    4      4.54      0.00
    4   13    4     -9.12      0.00
    5   13    4     -1.48      0.00
    6   13    4      1.22      0.00
    7   13    4    -28.96      0.00
    0   14    4    -23.10      0.00
    1   14    4     25.90      0.00
    2   14    4     17.65      0.00
    3   14    4      3.42      0.00
    4   14    4     32.38      0.00
    5   14    4     13.82      0.00
    6   14    4     -7.99      0.00
    7   14    4     32.74      0.00
    8   14    4      8.54      0.00
    1   15    4      8.12      0.00
    2   15    4      8.90      0.00
    3   15    4      5.06      0.00
    4   15    4      1.99      0.00
    5   15    4     14.17      0.00
    6   15    4     -5.81      0.00
    7   15    4    -11.42      0.00
    0   16    4    -28.88      0.00
    1   16    4     -8.29      0.00
    2   16    4     -5.04      0.00
    3   16    4     17.72      0.00
    4   16    4      6.46      0.00
    5   16    4    -15.36      0.00
    6   16    4     -2.38      0.00
    7   16    4      3.81      0.00
    1   17    4     -7.36      0.00
    2   17    4    -18.68      0.00
    3   17    4      1.73      0.00
    4   17    4     14.29      0.00
    5   17    4    -24.71      0.00
    6   17    4     -5.51      0.00
    0   18    4    -50.87      0.00
    1   18    4   -107.05      0.00
    2   18    4    -11.00      0.00
    3   18    4     -9.97      0.00
    4   18    4     -7.03      0.00
    5   18    4    -10.27      0.00
    6   18    4    -77.47      0.00
    1   19    4    -86.85      0.00
    2   19    4    -17.38      0.00
    3   19    4     30.28      0.00
    4   19    4     -7.84      0.00
    5   19    4     12.40      0.00
    6   19    4      4.12      0.00
    0   20    4    -37.00      0.00
    1   20    4     -0.62      0.00
    2   20    4     -0.53      0.00
    3   20    4     14.13      0.00
    4   20    4      4.18      0.00
    5   20    4      7.63      0.00
    2   21    4    -28.11      0.00
    3   21    4    -15.54      0.00
    0    1    5    -36.28      0.00
    1    2    5     97.41      0.00
    0    3    5     24.56      0.00
    1    3    5    -70.41      0.00
    2    3    5     61.14      0.00
    1    4    5      6.92      0.00
    2    4    5     59.77      0.00
    3    4    5    -37.86      0.00
    0    5    5     12.05      0.00
    1    5    5      3.77      0.00
    2    5    5     23.48      0.00
    3    5    5     -2.57      0.00
    4    5    5     29.34      0.00
    1    6    5     31.04      0.00
    2    6    5     12.81      0.00
    3    6    5      6.95      0.00
    4    6    5      7.04      0.00
    5    6    5     26.47      0.00
    0    7    5     22.25      0.00
    1    7    5     16.15      0.00
    2    7    5     -1.93      0.00
    3    7    5      8.64      0.00
    4    7    5     13.29      0.00
    5    7    5     -2.79      0.00
    6    7    5      4.18      0.00
    1    8    5    -29.62      0.00
    2    8    5     21.48      0.00
    3    8    5     -8.31      0.00
    4    8    5    -15.89      0.00
    5    8    5      6.67      0.00
    6    8    5     -0.75      0.00
    7    8    5     14.42      0.00
    0    9    5     -2.81      0.00
    1    9    5      0.78      0.00
    2    9    5     15.28      0.00
    3    9    5    -15.72      0.00
    4    9    5     -5.73      0.00
    5    9    5      9.23      0.00
    6    9    5      6.23      0.00
    7    9    5     16.85      0.00
    1   10    5     -4.21      0.00
    2   10    5     -1.41      0.00
    3   10    5      0.68      0.00
    4   10    5      0.83      0.00
    5   10    5      9.33      0.00
    6   10    5     -3.21      0.00
    7   10    5     -1.07      0.00
    0   11    5    -14.45      0.00
    1   11    5     -3.54      0.00
    2   11    5     12.30      0.00
    3   11    5      5.12      0.00
    4   11    5    -16.90      0.00
    5   11    5     -7.98      0.00
    6   11    5     -4.69      0.00
    7   11    5     -3.39      0.00
    1   12    5     10.20      0.00
    2   12    5     -2.26      0.00
    3   12    5    -13.11      0.00
    4   12    5      8.14      0.00
    5   12    5      9.89      0.00
    6   12    5      8.53      0.00
    7   12    5     13.81      0.00
    8   12    5      0.47      0.00
    0   13    5     10.42      0.00
    1   13    5    -20.20      0.00
    2   13    5     -1.94      0.00
    3   13    5     -0.08      0.00
    4   13    5     10.94      0.00
    5   13    5     -9.65      0.00
    6   13    5     19.42      0.00
    7   13    5     18.70      0.00
    1   14    5     -5.07      0.00
    2   14    5     -7.19      0.00
    3   14    5      1.54      0.00
    4   14    5    -14.57      0.00
    5   14    5     10.83      0.00
    6   14    5      1.48      0.00
    7   14    5      0.57      0.00
    0   15    5      6.65      0.00
    1   15    5     13.35      0.00
    2   15    5     -5.09      0.00
    3   15    5     -4.72      0.00
    4   15    5    -16.60      0.00
    5   15    5     -4.18      0.00
    6   15    5      1.92      0.00
    7   15    5     30.49      0.00
    1   16    5     11.45      0.00
    2   16    5     14.74      0.00
    3   16    5      1.61      0.00
    4   16    5     11.95      0.00
    5   16    5    -24.10      0.00
    6   16    5      6.65      0.00
    7   16    5     42.73      0.00
    0   17    5    -14.12      0.00
    1   17    5     -2.92      0.00
    2   17    5      7.48      0.00
    3   17    5    -11.98      0.00
    4   17    5     10.92      0.00
    5   17    5     25.59      0.00
    6   17    5     30.47      0.00
    7   17    5     10.02      0.00
    1   18    5     -4.16      0.00
    2   18    5     -4.54      0.00
    3   18    5     -1.02      0.00
    4   18    5    -10.25      0.00
    5   18    5     -2.00      0.00
    6   18    5    -15.98      0.00
    0   19    5     34.46      0.00
    1   19    5     -0.49      0.00
    2   19    5      4.12      0.00
    3   19    5      2.43      0.00
    4   19    5     16.30      0.00
    5   19    5      9.39      0.00
    6   19    5    -17.82      0.00
    1   20    5    -19.74      0.00
    2   20    5     -1.90      0.00
    3   20    5     -0.01      0.00
    4   20    5      2.48      0.00
    1   21    5      6.84      0.00
    2   21    5    -25.24      0.00
    3   21    5     -0.56      0.00
    0    0    6    -72.76      0.00
    1    1    6     19.31      0.00
    0    2    6    -66.51      0.00
    1    2    6    -33.92      0.00
    2    2    6    -22.16      0.00
    1    3    6     70.77      0.00
    2    3    6    -47.93      0.00
    3    3    6     45.24      0.00
    0    4    6     66.80      0.00
    1    4    6    -60.27      0.00
    2    4    6     -3.66      0.00
    3    4    6      9.61      0.00
    4    4    6     29.90      0.00
    1    5    6    -27.91      0.00
    2    5    6     -1.53      0.00
    3    5    6    -14.13      0.00
    4    5    6    -12.33      0.00
    5    5    6     17.69      0.00
    0    6    6     26.46      0.00
    1    6    6     -8.92      0.00
    2    6    6     -9.95      0.00
    3    6    6     21.24      0.00
    4    6    6      3.38      0.00
    5    6    6    -20.13      0.00
    6    6    6     -7.69      0.00
    1    7    6     -0.05      0.00
    2    7    6     -3.56      0.00
    3    7    6     12.68      0.00
    4    7    6     -5.09      0.00
    5    7    6    -14.81      0.00
    6    7    6     -4.59      0.00
    7    7    6      0.24      0.00
    0    8    6     16.03      0.00
    1    8    6     14.29      0.00
    2    8    6     -1.77      0.00
    3    8    6    -10.64      0.00
    4    8    6    -33.97      0.00
    5    8    6      6.43      0.00
    6    8    6      4.24      0.00
    7    8    6    -21.12      0.00
    1    9    6      4.19      0.00
    2    9    6    -18.56      0.00
    3    9    6      8.48      0.00
    4    9    6     -2.81      0.00
    5    9    6    -14.88      0.00
    6    9    6     15.95      0.00
    7    9    6      5.45      0.00
    0   10    6      1.09      0.00
    1   10    6     -6.11      0.00
    2   10    6      4.99      0.00
    3   10    6      0.93      0.00
    4   10    6     21.93      0.00
    5   10    6     -4.88      0.00
    6   10    6      0.16      0.00
    7   10    6    -14.96      0.00
    8   10    6      3.74      0.00
    1   11    6     -7.10      0.00
    2   11    6      3.21      0.00
    3   11    6     14.06      0.00
    4   11    6    -18.69      0.00
    5   11    6      3.41      0.00
    6   11    6     -6.02      0.00
    7   11    6    -10.48      0.00
    8   11    6      1.34      0.00
    0   12    6      0.24      0.00
    1   12    6    -26.09      0.00
    2   12    6      0.30      0.00
    3   12    6     -3.14      0.00
    4   12    6     -4.79      0.00
    5   12    6     10.96      0.00
    6   12    6      8.56      0.00
    7   12    6    -19.54      0.00
    8   12    6     10.90      0.00
    1   13    6     18.74      0.00
    2   13    6    -15.99      0.00
    3   13    6    -14.75      0.00
    4   13    6      5.20      0.00
    5   13    6    -40.84      0.00
    6   13    6    -12.77      0.00
    7   13    6    -27.25      0.00
    0   14    6    -11.91      0.00
    1   14    6      7.17      0.00
    2   14    6    -24.76      0.00
    3   14    6    -27.46      0.00
    4   14    6     -5.10      0.00
    5   14    6      7.06      0.00
    6   14    6     24.44      0.00
    7   14    6      3.10      0.00
    1   15    6     -7.73      0.00
    2   15    6    -14.16      0.00
    3   15    6     18.61      0.00
    4   15    6    -20.01      0.00
    5   15    6     17.34      0.00
    6   15    6     -3.44      0.00
    7   15    6    -19.16      0.00
    0   16    6    -14.91      0.00
    1   16    6      1.62      0.00
    2   16    6     12.88      0.00
    3   16    6      2.96      0.00
    4   16    6      1.31      0.00
    5   16    6    -64.16      0.00
    6   16    6    -17.76      0.00
    7   16    6     -0.14      0.00
    1   17    6     -2.99      0.00
    2   17    6     18.37      0.00
    3   17    6     -2.98      0.00
    4   17    6     -8.70      0.00
    5   17    6     29.18      0.00
    6   17    6    -17.89      0.00
    7   17    6     -0.16      0.00
    0   18    6     54.87      0.00
    1   18    6     18.58      0.00
    2   18    6     12.90      0.00
    3   18    6     -6.76      0.00
    4   18    6     16.04      0.00
    5   18    6      1.36      0.00
    6   18    6     17.92      0.00
    7   18    6     28.99      0.00
    1   19    6     -2.88      0.00
    2   19    6    -26.64      0.00
    3   19    6      0.23      0.00
    4   19    6     29.80      0.00
    5   19    6     34.51      0.00
    6   19    6     27.28      0.00
    0   20    6      7.32      0.00
    1   20    6      2.27      0.00
    2   20    6      9.98      0.00
    3   20    6      3.34      0.00
    1   21    6     14.18      0.00
    2   21    6     -7.26      0.00
    0    1    7    -45.98      0.00
    1    2    7    -23.45      0.00
    0    3    7     44.39      0.00
    1    3    7    -56.55      0.00
    2    3    7    -66.22      0.00
    1    4    7     -5.36      0.00
    2    4    7     21.95      0.00
    3    4    7    -11.77      0.00
    0    5    7    -87.02      0.00
    1    5    7     11.31      0.00
    2    5    7     -4.92      0.00
    3    5    7     -7.68      0.00
    4    5    7     14.40      0.00
    1    6    7      7.43      0.00
    2    6    7      0.53      0.00
    3    6    7     -8.44      0.00
    4    6    7      3.76      0.00
    5    6    7     -3.78      0.00
    0    7    7      8.95      0.00
    1    7    7     11.86      0.00
    2    7    7     -1.32      0.00
    3    7    7      9.33      0.00
    4    7    7     -9.27      0.00
    5    7    7      5.21      0.00
    6    7    7    -19.49      0.00
    1    8    7     -7.00      0.00
    2    8    7     -6.89      0.00
    3    8    7    -20.45      0.00
    4    8    7      6.11      0.00
    5    8    7      8.84      0.00
    6    8    7     -5.91      0.00
    7    8    7      2.76      0.00
    0    9    7      4.37      0.00
    1    9    7    -13.71      0.00
    2    9    7      3.93      0.00
    3    9    7    -16.24      0.00
    4    9    7      7.82      0.00
    5    9    7     -8.08      0.00
    6    9    7     -7.74      0.00
    7    9    7      7.37      0.00
    8    9    7    -17.03      0.00
    1   10    7     -8.89      0.00
    2   10    7     -3.99      0.00
    3   10    7    -14.21      0.00
    4   10    7     -3.51      0.00
    5   10    7     13.67      0.00
    6   10    7     -0.50      0.00
    7   10    7     -2.81      0.00
    8   10    7    -11.37      0.00
    0   11    7      6.53      0.00
    1   11    7     -1.66      0.00
    2   11    7      0.40      0.00
    3   11    7     24.63      0.00
    4   11    7     -3.04      0.00
    5   11    7      3.77      0.00
    6   11    7    -10.64      0.00
    7   11    7     -7.36      0.00
    8   11    7    -11.38      0.00
    1   12    7     -6.30      0.00
    2   12    7      9.18      0.00
    3   12    7     -1.59      0.00
    4   12    7      1.03      0.00
    5   12    7      0.79      0.00
    6   12    7     -6.83      0.00
    7   12    7    -21.67      0.00
    8   12    7     15.95      0.00
    0   13    7     10.06      0.00
    1   13    7    -12.08      0.00
    2   13    7      1.99      0.00
    3   13    7     13.19      0.00
    4   13    7     15.90      0.00
    5   13    7    -29.91      0.00
    6   13    7     28.54      0.00
    7   13    7     38.79      0.00
    1   14    7     27.36      0.00
    2   14    7    -14.06      0.00
    3   14    7     -0.09      0.00
    4   14    7      8.64      0.00
    5   14    7     18.86      0.00
    6   14    7     -8.56      0.00
    7   14    7     28.34      0.00
    0   15    7     12.70      0.00
    1   15    7     23.17      0.00
    2   15    7    -19.60      0.00
    3   15    7     12.64      0.00
    4   15    7    -14.21      0.00
    5   15    7     15.01      0.00
    6   15    7     -2.98      0.00
    7   15    7    -26.90      0.00
    1   16    7      0.85      0.00
    2   16    7     18.90      0.00
    3   16    7     20.88      0.00
    4   16    7      1.82      0.00
    5   16    7     15.47      0.00
    6   16    7     10.40      0.00
    7   16    7     -2.25      0.00
    0   17    7     27.74      0.00
    1   17    7     -8.88      0.00
    2   17    7     -0.46      0.00
    3   17    7     16.40      0.00
    4   17    7     11.39      0.00
    5   17    7    -13.91      0.00
    6   17    7     -1.91      0.00
    7   17    7    -23.16      0.00
    1   18    7      6.76      0.00
    2   18    7     16.07      0.00
    3   18    7      2.75      0.00
    4   18    7      0.98      0.00
    5   18    7   -144.45      0.00
    6   18    7     20.22      0.00
    7   18    7     -5.40      0.00
    0   19    7      6.86      0.00
    1   19    7    -19.63      0.00
    2   19    7      6.20      0.00
    3   19    7     -8.77      0.00
    4   19    7     29.76      0.00
    5   19    7     -1.03      0.00
    6   19    7      5.85      0.00
    1   20    7      9.67      0.00
    2   20    7    -10.56      0.00
    3   20    7     20.69      0.00
    0   21    7     29.45      0.00
    1   21    7      2.47      0.00
    0    0    8    -88.82      0.00
    1    1    8      7.37      0.00
    0    2    8     19.22      0.00
    1    2    8     59.13      0.00
    2    2    8      1.70      0.00
    1    3    8    -31.30      0.00
    2    3    8    -27.52      0.00
    3    3    8    -56.98      0.00
    0    4    8    -77.75      0.00
    1    4    8      0.88      0.00
    2    4    8    -13.80      0.00
    3    4    8     -4.77      0.00
    4    4    8    -11.57      0.00
    1    5    8    -15.60      0.00
    2    5    8      8.26      0.00
    3    5    8      8.65      0.00
    4    5    8      6.79      0.00
    5    5    8      5.23      0.00
    0    6    8      3.13      0.00
    1    6    8      4.13      0.00
    2    6    8     18.48      0.00
    3    6    8     -3.57      0.00
    4    6    8     -6.93      0.00
    5    6    8    -19.40      0.00
    6    6    8     -6.92      0.00
    1    7    8      0.28      0.00
    2    7    8      6.85      0.00
    3    7    8     -2.33      0.00
    4    7    8     -5.73      0.00
    5    7    8      6.46      0.00
    6    7    8     -4.91      0.00
    7    7    8     -6.71      0.00
    0    8    8      6.13      0.00
    1    8    8    -21.11      0.00
    2    8    8     -1.34      0.00
    3    8    8     -2.04      0.00
    4    8    8     -3.74      0.00
    5    8    8      6.77      0.00
    6    8    8      8.97      0.00
    7    8    8      9.15      0.00
    8    8    8     18.66      0.00
    1    9    8     -1.31      0.00
    2    9    8     -4.06      0.00
    3    9    8     -4.98      0.00
    4    9    8      5.62      0.00
    5    9    8     12.46      0.00
    6    9    8     -1.66      0.00
    7    9    8     -2.08      0.00
    8    9    8     -0.98      0.00
    0   10    8    -19.51      0.00
    1   10    8     20.76      0.00
    2   10    8     -4.98      0.00
    3   10    8     -5.60      0.00
    4   10    8    -11.70      0.00
    5   10    8     32.99      0.00
    6   10    8     -5.90      0.00
    7   10    8      0.71      0.00
    8   10    8    -12.12      0.00
    1   11    8     -3.92      0.00
    2   11    8      9.67      0.00
    3   11    8     -6.36      0.00
    4   11    8    -10.10      0.00
    5   11    8     -0.25      0.00
    6   11    8     -1.38      0.00
    7   11    8     11.23      0.00
    8   11    8     24.35      0.00
    0   12    8     11.70      0.00
    1   12    8      5.20      0.00
    2   12    8     -6.99      0.00
    3   12    8     13.83      0.00
    4   12    8      6.72      0.00
    5   12    8     -5.23      0.00
    6   12    8      6.80      0.00
    7   12    8      3.02      0.00
    8   12    8     30.50      0.00
    1   13    8    -10.35      0.00
    2   13    8      9.02      0.00
    3   13    8     -6.91      0.00
    4   13    8      8.86      0.00
    5   13    8    -10.78      0.00
    6   13    8     -6.38      0.00
    7   13    8     -4.61      0.00
    0   14    8    -68.48      0.00
    1   14    8     71.58      0.00
    2   14    8     14.75      0.00
    3   14    8    -13.80      0.00
    4   14    8      7.69      0.00
    5   14    8      6.28      0.00
    6   14    8     -9.75      0.00
    7   14    8     10.21      0.00
    1   15    8      4.74      0.00
    2   15    8     -9.16      0.00
    3   15    8    -14.90      0.00
    4   15    8     -0.48      0.00
    5   15    8      8.33      0.00
    6   15    8     34.14      0.00
    7   15    8      8.31      0.00
    0   16    8     -0.80      0.00
    1   16    8     -1.18      0.00
    2   16    8      5.49      0.00
    3   16    8      2.79      0.00
    4   16    8    -29.57      0.00
    5   16    8     -1.57      0.00
    6   16    8    -12.81      0.00
    7   16    8     16.05      0.00
    1   17    8     -1.46      0.00
    2   17    8    -22.45      0.00
    3   17    8    -26.20      0.00
    4   17    8     -9.64      0.00
    5   17    8    -13.09      0.00
    6   17    8     55.08      0.00
    7   17    8     24.90      0.00
    0   18    8    -21.26      0.00
    1   18    8    -15.04      0.00
    2   18    8      3.44      0.00
    3   18    8    -13.03      0.00
    4   18    8     15.62      0.00
    5   18    8    -12.40      0.00
    6   18    8     41.23      0.00
    7   18    8     67.15      0.00
    1   19    8     -2.89      0.00
    2   19    8     11.61      0.00
    3   19    8     12.87      0.00
    4   19    8      7.16      0.00
    5   19    8     35.70      0.00
    6   19    8     -5.52      0.00
    0   20    8    -32.58      0.00
    1   20    8    -11.87      0.00
    2   20    8     11.79      0.00
    0    1    9    -23.50      0.00
    1    2    9     -9.49      0.00
    0    3    9     42.70      0.00
    1    3    9    -14.61      0.00
    2    3    9      5.26      0.00
    1    4    9     32.52      0.00
    2    4    9     18.95      0.00
    3    4    9      5.76      0.00
    0    5    9    -34.64      0.00
    1    5    9     -3.39      0.00
    2    5    9      5.59      0.00
    3    5    9      1.54      0.00
    4    5    9     -9.49      0.00
    1    6    9      7.33      0.00
    2    6    9     -4.26      0.00
    3    6    9      1.41      0.00
    4    6    9     -3.28      0.00
    5    6    9     -8.41      0.00
    0    7    9     25.38      0.00
    1    7    9      6.96      0.00
    2    7    9     -3.67      0.00
    3    7    9     -2.77      0.00
    4    7    9     -8.39      0.00
    5    7    9      9.01      0.00
    6    7    9      5.43      0.00
    1    8    9     -3.09      0.00
    2    8    9      0.95      0.00
    3    8    9     -3.85      0.00
    4    8    9      0.72      0.00
    5    8    9     12.26      0.00
    6    8    9      3.11      0.00
    7    8    9      0.08      0.00
    0    9    9     -3.26      0.00
    1    9    9     16.40      0.00
    2    9    9      3.83      0.00
    3    9    9     12.44      0.00
    4    9    9      5.65      0.00
    5    9    9     -5.69      0.00
    6    9    9     -1.62      0.00
    7    9    9      4.33      0.00
    8    9    9    -14.61      0.00
    1   10    9      5.75      0.00
    2   10    9     -1.33      0.00
    3   10    9      8.34      0.00
    4   10    9    -15.66      0.00
    5   10    9    -16.34      0.00
    6   10    9      5.52      0.00
    7   10    9     -1.71      0.00
    8   10    9     -3.46      0.00
    0   11    9      0.41      0.00
    1   11    9     -3.12      0.00
    2   11    9     -3.08      0.00
    3   11    9      1.86      0.00
    4   11    9     21.35      0.00
    5   11    9     -7.04      0.00
    6   11    9     12.91      0.00
    7   11    9     -4.13      0.00
    8   11    9     35.92      0.00
    1   12    9     -2.22      0.00
    2   12    9     -0.45      0.00
    3   12    9     -7.55      0.00
    4   12    9     -0.98      0.00
    5   12    9     -1.33      0.00
    6   12    9     13.35      0.00
    7   12    9     -9.47      0.00
    8   12    9      0.84      0.00
    9   12    9     25.12      0.00
    0   13    9     -2.53      0.00
    1   13    9      5.76      0.00
    2   13    9      5.00      0.00
    3   13    9     14.91      0.00
    4   13    9    -42.85      0.00
    5   13    9     25.75      0.00
    6   13    9     -5.27      0.00
    7   13    9      5.39      0.00
    8   13    9    -48.45      0.00
    9   13    9    -10.88      0.00
    1   14    9     17.69      0.00
    2   14    9     -1.72      0.00
    3   14    9     -2.22      0.00
    4   14    9      2.31      0.00
    5   14    9     -5.34      0.00
    6   14    9     -0.34      0.00
    7   14    9      8.60      0.00
    8   14    9     15.33      0.00
    0   15    9      1.79      0.00
    1   15    9     -7.24      0.00
    2   15    9     11.53      0.00
    3   15    9     11.41      0.00
    4   15    9     -9.93      0.00
    5   15    9     -0.85      0.00
    6   15    9    -41.21      0.00
    7   15    9     14.67      0.00
    8   15    9      8.06      0.00
    1   16    9    -26.80      0.00
    2   16    9     -2.57      0.00
    3   16    9     76.39      0.00
    4   16    9      1.41      0.00
    5   16    9     -6.45      0.00
    6   16    9    -10.70      0.00
    7   16    9    -17.63      0.00
    8   16    9    -25.44      0.00
    0   17    9    -73.78      0.00
    1   17    9    -21.73      0.00
    2   17    9      2.81      0.00
    3   17    9    -16.75      0.00
    4   17    9     12.14      0.00
    5   17    9     24.58      0.00
    6   17    9     40.01      0.00
    7   17    9   -264.97      0.00
    8   17    9     10.76      0.00
    1   18    9    -11.25      0.00
    2   18    9    -40.10      0.00
    3   18    9    -19.69      0.00
    4   18    9     74.08      0.00
    5   18    9    -48.19      0.00
    6   18    9    -17.84      0.00
    7   18    9     -2.22      0.00
    0   19    9      2.68      0.00
    1   19    9    -16.31      0.00
    2   19    9    -26.89      0.00
    3   19    9      1.54      0.00
    4   19    9     19.58      0.00
    5   19    9     -2.20      0.00
    6   19    9     24.72      0.00
    1   20    9      6.25      0.00
    2   20    9     11.82      0.00
    0    0   10     26.89      0.00
    1    1   10     -4.01      0.00
    0    2   10     91.28      0.00
    1    2   10      9.61      0.00
    2    2   10    -36.38      0.00
    1    3   10      5.43      0.00
    2    3   10    -15.60      0.00
    3    3   10    -13.48      0.00
    0    4   10     15.90      0.00
    1    4   10    -10.56      0.00
    2    4   10     30.68      0.00
    3    4   10      5.25      0.00
    4    4   10      2.67      0.00
    1    5   10      1.92      0.00
    2    5   10     -3.53      0.00
    3    5   10     12.57      0.00
    4    5   10      5.39      0.00
    5    5   10      4.27      0.00
    0    6   10      5.51      0.00
    1    6   10     -7.08      0.00
    2    6   10     -3.00      0.00
    3    6   10    -13.98      0.00
    4    6   10      3.47      0.00
    5    6   10     -6.73      0.00
    6    6   10     -3.94      0.00
    1    7   10     -0.92      0.00
    2    7   10     -0.75      0.00
    3    7   10     -2.82      0.00
    4    7   10     -1.90      0.00
    5    7   10     13.30      0.00
    6    7   10      2.60      0.00
    7    7   10      3.49      0.00
    0    8   10      2.04      0.00
    1    8   10    -11.32      0.00
    2    8   10      1.09      0.00
    3    8   10     11.36      0.00
    4    8   10      3.13      0.00
    5    8   10      0.45      0.00
    6    8   10      7.30      0.00
    7    8   10      9.84      0.00
    8    8   10     16.79      0.00
    1    9   10     -2.11      0.00
    2    9   10      6.33      0.00
    3    9   10     -1.10      0.00
    4    9   10     -3.65      0.00
    5    9   10      7.03      0.00
    6    9   10    -11.69      0.00
    7    9   10     -3.14      0.00
    8    9   10    -17.84      0.00
    9    9   10     53.39      0.00
    0   10   10     -2.71      0.00
    1   10   10      6.85      0.00
    2   10   10     -6.67      0.00
    3   10   10    -12.57      0.00
    4   10   10      2.20      0.00
    5   10   10     10.23      0.00
    6   10   10      2.52      0.00
    7   10   10     -1.39      0.00
    8   10   10     -6.21      0.00
    1   11   10      2.69      0.00
    2   11   10     -7.41      0.00
    3   11   10      5.69      0.00
    4   11   10     12.56      0.00
    5   11   10      0.84      0.00
    6   11   10     -9.64      0.00
    7   11   10     11.30      0.00
    9   11   10    -69.52      0.00
    0   12   10     12.57      0.00
    1   12   10    -10.86      0.00
    2   12   10      2.48      0.00
    3   12   10     11.30      0.00
    4   12   10     10.26      0.00
    5   12   10     -5.12      0.00
    6   12   10    -19.23      0.00
    7   12   10     19.63      0.00
    8   12   10    -12.97      0.00
    9   12   10    -17.16      0.00
    1   13   10     -2.39      0.00
    2   13   10    -35.51      0.00
    3   13   10    -10.92      0.00
    4   13   10    -55.46      0.00
    5   13   10     11.96      0.00
    6   13   10     25.24      0.00
    7   13   10     15.97      0.00
    8   13   10     -0.03      0.00
    9   13   10     -3.62      0.00
    0   14   10     36.15      0.00
    1   14   10      2.82      0.00
    2   14   10      7.62      0.00
    3   14   10    -21.28      0.00
    4   14   10     22.92      0.00
    5   14   10     16.38      0.00
    6   14   10    -12.97      0.00
    7   14   10     15.98      0.00
    8   14   10    -24.95      0.00
    1   15   10    -11.28      0.00
    2   15   10    -10.06      0.00
    3   15   10     -1.53      0.00
    4   15   10     -6.05      0.00
    5   15   10     -3.89      0.00
    6   15   10     -1.40      0.00
    7   15   10     -5.19      0.00
    8   15   10      9.18      0.00
    0   16   10     25.67      0.00
    1   16   10     78.68      0.00
    2   16   10      7.36      0.00
    3   16   10     -8.86      0.00
    4   16   10     -7.65      0.00
    5   16   10     19.00      0.00
    6   16   10     -1.84      0.00
    7   16   10     21.21      0.00
    8   16   10     16.61      0.00
    1   17   10     26.84      0.00
    2   17   10      2.77      0.00
    3   17   10     11.01      0.00
    4   17   10    -11.75      0.00
    5   17   10    -20.63      0.00
    6   17   10     22.95      0.00
    7   17   10      7.73      0.00
    8   17   10     39.99      0.00
    0   18   10    -31.40      0.00
    1   18   10    -24.51      0.00
    2   18   10     -4.89      0.00
    3   18   10    109.40      0.00
    4   18   10    -23.96      0.00
    5   18   10    -40.26      0.00
    6   18   10     22.62      0.00
    7   18   10     21.33      0.00
    8   18   10    -13.62      0.00
    1   19   10      6.24      0.00
    2   19   10     15.97      0.00
    3   19   10      9.61      0.00
    4   19   10     -1.17      0.00
    5   19   10     -1.40      0.00
    2   20   10    -32.61      0.00
    0    1   11     -3.53      0.00
    1    2   11     27.36      0.00
    0    3   11    -26.17      0.00
    1    3   11     11.44      0.00
    2    3   11      9.91      0.00
    1    4   11     -2.50      0.00
    2    4   11     -5.63      0.00
    3    4   11      8.55      0.00
    0    5   11     11.95      0.00
    1    5   11      4.08      0.00
    2    5   11     10.83      0.00
    3    5   11     13.16      0.00
    4    5   11      5.62      0.00
    1    6   11      1.22      0.00
    2    6   11      4.68      0.00
    3    6   11      3.04      0.00
    4    6   11     -0.91      0.00
    5    6   11     -4.50      0.00
    0    7   11    -15.93      0.00
    1    7   11      1.25      0.00
    2    7   11     -3.44      0.00
    3    7   11     -4.88      0.00
    4    7   11      2.64      0.00
    5    7   11      2.08      0.00
    6    7   11      2.15      0.00
    1    8   11     -0.27      0.00
    2    8   11      4.61      0.00
    3    8   11      1.97      0.00
    4    8   11      4.39      0.00
    5    8   11     23.12      0.00
    6    8   11    -13.89      0.00
    7    8   11      0.56      0.00
    0    9   11     20.67      0.00
    1    9   11     -2.37      0.00
    2    9   11     16.88      0.00
    3    9   11     -2.09      0.00
    4    9   11      0.07      0.00
    5    9   11      6.94      0.00
    6    9   11      4.69      0.00
    7    9   11      0.30      0.00
    8    9   11    -10.19      0.00
    1   10   11     15.51      0.00
    2   10   11    -12.46      0.00
    3   10   11    -11.96      0.00
    4   10   11     -5.13      0.00
    5   10   11     -6.58      0.00
    6   10   11     -4.68      0.00
    7   10   11    -14.11      0.00
    8   10   11    -20.44      0.00
    9   10   11    -67.69      0.00
    0   11   11     -8.76      0.00
    1   11   11     12.24      0.00
    2   11   11      4.84      0.00
    3   11   11     -1.46      0.00
    4   11   11      4.88      0.00
    5   11   11     -3.95      0.00
    6   11   11     -9.37      0.00
    7   11   11    -17.41      0.00
    8   11   11      1.55      0.00
    9   11   11     -8.02      0.00
   10   11   11     32.23      0.00
    1   12   11     10.20      0.00
    2   12   11     11.64      0.00
    3   12   11     -1.41      0.00
    4   12   11      0.42      0.00
    5   12   11     26.12      0.00
    6   12   11    -12.14      0.00
    7   12   11      9.75      0.00
    8   12   11     16.66      0.00
    9   12   11    -12.77      0.00
   10   12   11    -11.42      0.00
    0   13   11    -22.54      0.00
    1   13   11     20.92      0.00
    2   13   11     11.52      0.00
    3   13   11     51.45      0.00
    4   13   11      3.19      0.00
    5   13   11      5.30      0.00
    6   13   11    -18.48      0.00
    7   13   11    -35.36      0.00
    8   13   11    -15.18      0.00
    9   13   11     44.10      0.00
   10   13   11    -34.12      0.00
    1   14   11      6.83      0.00
    2   14   11      4.12      0.00
    3   14   11     20.77      0.00
    4   14   11     14.17      0.00
    5   14   11     13.15      0.00
    6   14   11    -32.05      0.00
    7   14   11      7.12      0.00
    8   14   11      5.96      0.00
    0   15   11    -21.90      0.00
    1   15   11    -17.41      0.00
    2   15   11    -21.58      0.00
    3   15   11     -6.80      0.00
    4   15   11     10.57      0.00
    5   15   11    -15.86      0.00
    6   15   11     -3.49      0.00
    7   15   11     14.88      0.00
    8   15   11    -26.66      0.00
    1   16   11    -30.05      0.00
    2   16   11    -28.52      0.00
    3   16   11     23.75      0.00
    4   16   11      3.78      0.00
    5   16   11     -7.15      0.00
    6   16   11     29.76      0.00
    7   16   11     -1.33      0.00
    8   16   11     33.58      0.00
    0   17   11      8.40      0.00
    1   17   11    -12.04      0.00
    2   17   11    -17.30      0.00
    3   17   11    -18.37      0.00
    4   17   11     -0.67      0.00
    5   17   11     -8.03      0.00
    6   17   11     58.58      0.00
    7   17   11    -26.25      0.00
    8   17   11     -1.40      0.00
    1   18   11     77.75      0.00
    2   18   11    -18.32      0.00
    3   18   11    -23.76      0.00
    4   18   11     -1.76      0.00
    5   18   11     -9.09      0.00
    6   18   11     22.04      0.00
    7   18   11    -18.75      0.00
    8   18   11     41.17      0.00
    0   19   11     26.55      0.00
    1   19   11      8.77      0.00
    2   19   11     13.38      0.00
    3   19   11     -3.74      0.00
    4   19   11      9.47      0.00
    5   19   11      6.59      0.00
    0    0   12     -3.13      0.00
    1    1   12    -10.63      0.00
    0    2   12     15.01      0.00
    1    2   12     -1.72      0.00
    2    2   12     -5.55      0.00
    1    3   12     -2.25      0.00
    2    3   12     -0.94      0.00
    3    3   12    -13.00      0.00
    0    4   12      4.60      0.00
    1    4   12      2.77      0.00
    2    4   12     -6.52      0.00
    3    4   12     -2.46      0.00
    4    4   12     14.37      0.00
    1    5   12    -13.40      0.00
    2    5   12     13.49      0.00
    3    5   12      1.87      0.00
    4    5   12    -11.73      0.00
    5    5   12     -9.13      0.00
    0    6   12     -9.56      0.00
    1    6   12      3.74      0.00
    2    6   12     -9.70      0.00
    3    6   12     -1.93      0.00
    4    6   12      0.93      0.00
    5    6   12      3.91      0.00
    6    6   12     -4.88      0.00
    1    7   12     -3.18      0.00
    2    7   12     -5.05      0.00
    3    7   12     -5.35      0.00
    4    7   12      7.45      0.00
    5    7   12    -19.67      0.00
    6    7   12      9.32      0.00
    7    7   12      5.17      0.00
    0    8   12      4.49      0.00
    1    8   12      1.74      0.00
    2    8   12      2.84      0.00
    3    8   12      4.57      0.00
    4    8   12     -5.27      0.00
    5    8   12      5.26      0.00
    6    8   12    -14.88      0.00
    7    8   12     -2.51      0.00
    8    8   12    -10.02      0.00
    1    9   12     -2.09      0.00
    2    9   12     -0.33      0.00
    3    9   12     -2.87      0.00
    4    9   12     11.72      0.00
    5    9   12     -7.16      0.00
    6    9   12     10.37      0.00
    7    9   12     -2.80      0.00
    8    9   12    -18.67      0.00
    9    9   12     53.71      0.00
    0   10   12      1.27      0.00
    1   10   12     -3.55      0.00
    2   10   12     -3.01      0.00
    3   10   12      0.54      0.00
    4   10   12     -9.83      0.00
    5   10   12      8.63      0.00
    6   10   12      1.54      0.00
    7   10   12    -20.03      0.00
    8   10   12     16.55      0.00
    9   10   12     -9.67      0.00
   10   10   12      5.76      0.00
    1   11   12     22.46      0.00
    2   11   12     -0.49      0.00
    3   11   12     -0.91      0.00
    4   11   12    -18.42      0.00
    5   11   12    -13.21      0.00
    6   11   12      0.24      0.00
    7   11   12     29.13      0.00
    8   11   12      2.99      0.00
    9   11   12    -18.34      0.00
   10   11   12     -5.05      0.00
    0   12   12     -2.77      0.00
    1   12   12     10.07      0.00
    2   12   12     -3.88      0.00
    3   12   12    -17.12      0.00
    4   12   12      2.06      0.00
    5   12   12    -42.09      0.00
    6   12   12     -1.77      0.00
    7   12   12     10.77      0.00
    8   12   12     -7.39      0.00
    9   12   12      0.35      0.00
   10   12   12     23.21      0.00
    1   13   12    -47.33      0.00
    2   13   12    -18.24      0.00
    3   13   12    -14.55      0.00
    4   13   12    -32.68      0.00
    5   13   12     17.04      0.00
    6   13   12     -7.16      0.00
    7   13   12     13.23      0.00
    8   13   12     -7.09      0.00
    9   13   12      2.35      0.00
   10   13   12     18.95      0.00
    0   14   12    -33.65      0.00
    1   14   12      1.35      0.00
    2   14   12     23.74      0.00
    3   14   12     19.58      0.00
    4   14   12    -28.85      0.00
    5   14   12     20.30      0.00
    6   14   12     25.75      0.00
    7   14   12    -17.42      0.00
    8   14   12     -7.74      0.00
    9   14   12    -35.01      0.00
   10   14   12    -12.76      0.00
    1   15   12     21.18      0.00
    2   15   12    -33.05      0.00
    3   15   12    -12.20      0.00
    4   15   12    -47.91      0.00
    5   15   12    -12.68      0.00
    6   15   12    -25.92      0.00
    7   15   12     -0.73      0.00
    8   15   12      5.62      0.00
    9   15   12     42.81      0.00
    0   16   12     11.55      0.00
    1   16   12     13.53      0.00
    2   16   12    -13.79      0.00
    3   16   12     -5.72      0.00
    4   16   12    -31.98      0.00
    5   16   12      5.83      0.00
    6   16   12     -9.50      0.00
    7   16   12     -2.18      0.00
    8   16   12     27.46      0.00
    9   16   12     25.63      0.00
    1   17   12    -30.76      0.00
    2   17   12    -13.35      0.00
    3   17   12     26.08      0.00
    4   17   12    -13.21      0.00
    5   17   12     15.61      0.00
    6   17   12     -0.89      0.00
    7   17   12     19.76      0.00
    8   17   12      0.86      0.00
    0   18   12     -0.75      0.00
    1   18   12     -7.07      0.00
    2   18   12    -36.34      0.00
    3   18   12     12.75      0.00
    4   18   12     -2.34      0.00
    5   18   12     13.77      0.00
    6   18   12     10.89      0.00
    7   18   12     11.38      0.00
    8   18   12     26.51      0.00
    1   19   12    -23.26      0.00
    2   19   12    -16.25      0.00
    3   19   12     17.48      0.00
    4   19   12    -23.92      0.00
    0    1   13     -3.57      0.00
    1    2   13     -1.76      0.00
    0    3   13    -20.80      0.00
    1    3   13     -4.04      0.00
    2    3   13    -21.18      0.00
    1    4   13      4.79      0.00
    2    4   13     12.07      0.00
    3    4   13      4.72      0.00
    0    5   13     10.27      0.00
    1    5   13      1.44      0.00
    2    5   13      8.33      0.00
    3    5   13     -3.44      0.00
    4    5   13     -8.63      0.00
    1    6   13     -3.24      0.00
    2    6   13     -0.07      0.00
    3    6   13     -0.24      0.00
    4    6   13    -14.24      0.00
    5    6   13    -12.08      0.00
    0    7   13      8.85      0.00
    1    7   13     -2.01      0.00
    2    7   13     -3.12      0.00
    3    7   13     -6.14      0.00
    4    7   13      4.99      0.00
    5    7   13     -7.13      0.00
    6    7   13      0.07      0.00
    1    8   13     -2.20      0.00
    2    8   13      3.68      0.00
    3    8   13     -8.20      0.00
    4    8   13      2.47      0.00
    5    8   13      2.11      0.00
    6    8   13     11.91      0.00
    7    8   13    -29.19      0.00
    0    9   13     -7.84      0.00
    1    9   13     -2.54      0.00
    2    9   13     -6.52      0.00
    3    9   13    -15.19      0.00
    4    9   13    -15.40      0.00
    5    9   13     -0.90      0.00
    6    9   13    -11.60      0.00
    7    9   13     16.34      0.00
    8    9   13     12.10      0.00
    1   10   13    -35.31      0.00
    2   10   13      0.41      0.00
    3   10   13     16.18      0.00
    4   10   13    -11.74      0.00
    5   10   13      9.56      0.00
    6   10   13      1.59      0.00
    7   10   13      6.00      0.00
    8   10   13     -5.46      0.00
    9   10   13      6.44      0.00
    0   11   13     -5.37      0.00
    1   11   13     20.13      0.00
    2   11   13     -4.82      0.00
    3   11   13      1.62      0.00
    4   11   13     -2.67      0.00
    5   11   13     22.71      0.00
    6   11   13     -4.65      0.00
    7   11   13     -0.68      0.00
    8   11   13      7.81      0.00
    9   11   13    -19.26      0.00
   10   11   13     -2.30      0.00
    1   12   13     -0.75      0.00
    2   12   13    -16.54      0.00
    3   12   13    -21.20      0.00
    4   12   13     24.10      0.00
    6   12   13      6.27      0.00
    7   12   13     33.86      0.00
    8   12   13      4.11      0.00
    9   12   13    -14.15      0.00
   10   12   13     -0.87      0.00
    0   13   13     -2.37      0.00
    1   13   13     -1.93      0.00
    2   13   13     27.86      0.00
    3   13   13    -10.56      0.00
    4   13   13    -21.35      0.00
    5   13   13      8.04      0.00
    6   13   13    -13.00      0.00
    7   13   13      0.01      0.00
    8   13   13     12.12      0.00
    9   13   13     -3.08      0.00
   10   13   13     -8.07      0.00
    1   14   13      9.12      0.00
    2   14   13      9.76      0.00
    3   14   13     17.76      0.00
    4   14   13     -4.38      0.00
    5   14   13     14.10      0.00
    6   14   13    -19.80      0.00
    7   14   13     -4.69      0.00
    8   14   13     -3.92      0.00
    9   14   13      8.03      0.00
   10   14   13    -12.68      0.00
    0   15   13      5.49      0.00
    1   15   13     -3.48      0.00
    2   15   13    -32.50      0.00
    3   15   13     72.93      0.00
    4   15   13      4.22      0.00
    5   15   13     -7.32      0.00
    6   15   13      2.44      0.00
    7   15   13     -1.14      0.00
    8   15   13    -26.04      0.00
    1   16   13     18.90      0.00
    2   16   13    -18.73      0.00
    3   16   13     -8.10      0.00
    4   16   13     20.77      0.00
    5   16   13     -3.28      0.00
    6   16   13      8.13      0.00
    8   16   13    -14.29      0.00
    9   16   13     -9.35      0.00
    0   17   13     13.57      0.00
    1   17   13     14.31      0.00
    2   17   13    -10.65      0.00
    3   17   13    -10.05      0.00
    4   17   13     21.56      0.00
    5   17   13    -13.54      0.00
    6   17   13     -6.87      0.00
    7   17   13    -26.29      0.00
    8   17   13     -9.69      0.00
    9   17   13    -12.21      0.00
    1   18   13      7.04      0.00
    2   18   13     31.36      0.00
    3   18   13      8.35      0.00
    4   18   13     10.30      0.00
    5   18   13      2.83      0.00
    6   18   13     10.31      0.00
    7   18   13    -33.11      0.00
    8   18   13    -25.08      0.00
    0   19   13    -24.97      0.00
    1   19   13     -7.87      0.00
    2   19   13    -25.08      0.00
    3   19   13     30.11      0.00
    0    0   14    -30.71      0.00
    1    1   14      1.00      0.00
    0    2   14    -11.04      0.00
    1    2   14      5.47      0.00
    2    2   14      1.73      0.00
    1    3   14    -17.52      0.00
    2    3   14     -3.02      0.00
    3    3   14     -4.71      0.00
    0    4   14     -5.04      0.00
    1    4   14     -5.57      0.00
    2    4   14    -11.06      0.00
    3    4   14     -4.58      0.00
    4    4   14     12.25      0.00
    1    5   14      6.52      0.00
    2    5   14     -5.83      0.00
    3    5   14    -11.56      0.00
    4    5   14      6.37      0.00
    5    5   14      3.01      0.00
    0    6   14     -1.47      0.00
    1    6   14      7.58      0.00
    2    6   14     -5.91      0.00
    3    6   14     -6.24      0.00
    4    6   14      3.95      0.00
    5    6   14      6.13      0.00
    6    6   14     14.90      0.00
    1    7   14      1.70      0.00
    2    7   14     -2.97      0.00
    3    7   14     -6.21      0.00
    4    7   14     -6.71      0.00
    5    7   14     -7.70      0.00
    6    7   14      0.92      0.00
    7    7   14     23.57      0.00
    0    8   14     -8.05      0.00
    1    8   14      7.26      0.00
    2    8   14      9.57      0.00
    3    8   14     -1.09      0.00
    4    8   14     11.71      0.00
    5    8   14    -15.71      0.00
    6    8   14     -5.20      0.00
    7    8   14      3.79      0.00
    1    9   14      3.21      0.00
    2    9   14      1.73      0.00
    3    9   14      5.55      0.00
    4    9   14      7.50      0.00
    5    9   14      0.40      0.00
    6    9   14     14.61      0.00
    7    9   14     13.18      0.00
    8    9   14     34.10      0.00
    9    9   14    -18.33      0.00
    0   10   14    -26.21      0.00
    1   10   14    -11.25      0.00
    2   10   14      2.03      0.00
    3   10   14    -12.16      0.00
    4   10   14     -6.86      0.00
    5   10   14      3.43      0.00
    6   10   14      5.87      0.00
    7   10   14    -16.97      0.00
    8   10   14    -13.65      0.00
    9   10   14     13.57      0.00
   10   10   14     -8.21      0.00
    1   11   14     12.45      0.00
    2   11   14      1.21      0.00
    3   11   14     -2.55      0.00
    4   11   14     20.45      0.00
    5   11   14     -4.69      0.00
    6   11   14     -1.51      0.00
    7   11   14     -6.39      0.00
    8   11   14      4.42      0.00
    9   11   14      9.14      0.00
   10   11   14     -5.26      0.00
    0   12   14    -10.44      0.00
    1   12   14     -8.11      0.00
    2   12   14      6.31      0.00
    3   12   14     36.64      0.00
    5   12   14      8.29      0.00
    6   12   14    -15.26      0.00
    7   12   14     40.76      0.00
    8   12   14     -5.91      0.00
    9   12   14     26.37      0.00
   10   12   14      7.88      0.00
    1   13   14      2.52      0.00
    2   13   14    -20.08      0.00
    3   13   14     19.60      0.00
    4   13   14     14.06      0.00
    5   13   14     13.43      0.00
    6   13   14     -5.63      0.00
    7   13   14    -14.49      0.00
    8   13   14     -0.99      0.00
    9   13   14      8.59      0.00
   10   13   14      9.31      0.00
   11   13   14    -53.37      0.00
    0   14   14     21.73      0.00
    1   14   14     16.32      0.00
    2   14   14    -13.43      0.00
    3   14   14      4.10      0.00
    4   14   14     12.57      0.00
    5   14   14     19.65      0.00
    6   14   14     -5.07      0.00
    7   14   14     10.83      0.00
    8   14   14      4.96      0.00
    9   14   14     -9.42      0.00
   10   14   14     13.58      0.00
    1   15   14     58.60      0.00
    2   15   14      3.25      0.00
    3   15   14    -10.85      0.00
    4   15   14    -10.77      0.00
    5   15   14     11.25      0.00
    6   15   14     33.23      0.00
    7   15   14      2.74      0.00
    8   15   14      3.05      0.00
    0   16   14     -3.76      0.00
    1   16   14    -13.97      0.00
    2   16   14      8.96      0.00
    3   16   14     16.23      0.00
    4   16   14      6.60      0.00
    5   16   14     15.89      0.00
    6   16   14      1.96      0.00
    7   16   14     18.72      0.00
    8   16   14    -10.98      0.00
    9   16   14     33.27      0.00
    1   17   14    -44.19      0.00
    2   17   14    -15.86      0.00
    3   17   14    123.49      0.00
    4   17   14     -7.33      0.00
    5   17   14     -9.60      0.00
    6   17   14    -16.28      0.00
    7   17   14     30.23      0.00
    8   17   14     39.03      0.00
    9   17   14      7.99      0.00
    0   18   14      3.33      0.00
    1   18   14     -4.73      0.00
    2   18   14      0.85      0.00
    3   18   14    -23.73      0.00
    4   18   14    -15.52      0.00
    5   18   14    -15.83      0.00
    6   18   14     -7.81      0.00
    7   18   14     -3.60      0.00
    8   18   14     26.64      0.00
    1   19   14    -14.85      0.00
    0    1   15     -3.69      0.00
    1    2   15      0.96      0.00
    0    3   15      5.66      0.00
    1    3   15    -14.36      0.00
    2    3   15     -8.35      0.00
    1    4   15     -2.31      0.00
    2    4   15     -7.10      0.00
    3    4   15      4.57      0.00
    0    5   15     16.27      0.00
    1    5   15      3.36      0.00
    2    5   15     -8.29      0.00
    3    5   15      5.73      0.00
    4    5   15     12.33      0.00
    1    6   15     -4.85      0.00
    2    6   15     20.03      0.00
    3    6   15     -2.97      0.00
    4    6   15      0.58      0.00
    5    6   15      6.58      0.00
    0    7   15      7.83      0.00
    1    7   15      0.76      0.00
    2    7   15     -2.68      0.00
    3    7   15     -8.94      0.00
    4    7   15     -1.01      0.00
    5    7   15     -0.29      0.00
    6    7   15      9.79      0.00
    1    8   15      9.60      0.00
    2    8   15     -2.20      0.00
    3    8   15      3.05      0.00
    4    8   15    -11.67      0.00
    5    8   15     -5.97      0.00
    6    8   15     18.75      0.00
    0    9   15    -11.27      0.00
    1    9   15     -5.32      0.00
    2    9   15     15.30      0.00
    3    9   15     -8.08      0.00
    4    9   15     12.99      0.00
    5    9   15     -0.88      0.00
    6    9   15      0.32      0.00
    7    9   15    -15.70      0.00
    8    9   15     -7.01      0.00
    1   10   15     -3.03      0.00
    2   10   15      9.10      0.00
    3   10   15     14.47      0.00
    4   10   15     12.60      0.00
    5   10   15      5.43      0.00
    6   10   15    -20.70      0.00
    7   10   15     -7.77      0.00
    8   10   15      8.94      0.00
    9   10   15     -6.18      0.00
    0   11   15     29.95      0.00
    1   11   15     -0.79      0.00
    2   11   15     14.07      0.00
    3   11   15      1.99      0.00
    4   11   15    -29.13      0.00
    5   11   15     -6.57      0.00
    6   11   15      8.98      0.00
    7   11   15     -8.12      0.00
    8   11   15      3.14      0.00
    9   11   15     10.47      0.00
   10   11   15     -3.89      0.00
    1   12   15    -11.54      0.00
    2   12   15    -28.91      0.00
    4   12   15    -21.30      0.00
    5   12   15     -0.83      0.00
    6   12   15     17.31      0.00
    7   12   15     -5.19      0.00
    8   12   15     -4.97      0.00
    9   12   15     13.42      0.00
   10   12   15     18.26      0.00
   11   12   15    -22.27      0.00
    0   13   15     26.92      0.00
    1   13   15      5.43      0.00
    2   13   15      1.20      0.00
    3   13   15     45.01      0.00
    4   13   15     -3.32      0.00
    5   13   15      3.69      0.00
    6   13   15     13.30      0.00
    7   13   15      8.50      0.00
    8   13   15      1.14      0.00
    9   13   15     -6.11      0.00
   10   13   15    -14.09      0.00
   11   13   15     48.61      0.00
    1   14   15      1.68      0.00
    2   14   15     20.58      0.00
    3   14   15     -1.39      0.00
    4   14   15     19.88      0.00
    5   14   15     -6.95      0.00
    6   14   15      7.71      0.00
    7   14   15     -9.75      0.00
    8   14   15     -2.27      0.00
    9   14   15     15.30      0.00
   10   14   15    -13.66      0.00
   11   14   15    -16.08      0.00
    0   15   15     -8.13      0.00
    1   15   15    -14.75      0.00
    2   15   15    -33.88      0.00
    3   15   15     -0.23      0.00
    4   15   15    -28.59      0.00
    5   15   15    -17.53      0.00
    6   15   15     24.94      0.00
    7   15   15     -3.78      0.00
    1   16   15    -10.52      0.00
    2   16   15      0.69      0.00
    3   16   15    -23.52      0.00
    4   16   15      2.04      0.00
    5   16   15      5.61      0.00
    6   16   15     18.41      0.00
    7   16   15     -7.98      0.00
    8   16   15    -46.63      0.00
    0   17   15    100.98      0.00
    1   17   15    111.20      0.00
    2   17   15    -43.13      0.00
    3   17   15     -4.21      0.00
    4   17   15    -43.93      0.00
    5   17   15     17.79      0.00
    6   17   15    -13.76      0.00
    7   17   15     -9.49      0.00
    8   17   15     42.98      0.00
    1   18   15     39.43      0.00
    2   18   15     -0.21      0.00
    3   18   15    -10.11      0.00
    4   18   15      1.57      0.00
    5   18   15      8.90      0.00
    6   18   15     31.74      0.00
    7   18   15    -18.31      0.00
    1    1   16     14.35      0.00
    0    2   16      9.04      0.00
    1    2   16     -2.38      0.00
    2    2   16     57.02      0.00
    1    3   16     15.90      0.00
    2    3   16     -1.82      0.00
    3    3   16     -4.52      0.00
    0    4   16    -21.94      0.00
    1    4   16     -4.75      0.00
    2    4   16      4.32      0.00
    3    4   16      3.83      0.00
    4    4   16     19.87      0.00
    1    5   16      5.92      0.00
    2    5   16     15.48      0.00
    3    5   16     17.43      0.00
    4    5   16      5.45      0.00
    5    5   16      5.52      0.00
    0    6   16     12.07      0.00
    1    6   16     -2.63      0.00
    2    6   16     -3.46      0.00
    3    6   16      5.67      0.00
    4    6   16      0.87      0.00
    5    6   16    -20.52      0.00
    6    6   16    -10.70      0.00
    1    7   16      2.83      0.00
    2    7   16      4.38      0.00
    3    7   16      8.17      0.00
    4    7   16      0.51      0.00
    5    7   16    -10.08      0.00
    6    7   16     15.96      0.00
    0    8   16     13.46      0.00
    1    8   16      8.71      0.00
    2    8   16     -0.50      0.00
    3    8   16     -5.43      0.00
    4    8   16      7.86      0.00
    5    8   16     16.44      0.00
    7    8   16      8.45      0.00
    8    8   16     -3.93      0.00
    1    9   16     -6.09      0.00
    2    9   16     -1.81      0.00
    3    9   16      7.79      0.00
    4    9   16     14.31      0.00
    5    9   16     -8.71      0.00
    6    9   16     -2.40      0.00
    7    9   16     -4.45      0.00
    8    9   16      6.65      0.00
    9    9   16      3.42      0.00
    0   10   16    -13.51      0.00
    1   10   16      0.55      0.00
    2   10   16      2.36      0.00
    3   10   16     -2.14      0.00
    4   10   16     13.50      0.00
    5   10   16     -8.59      0.00
    6   10   16     18.16      0.00
    7   10   16    -14.18      0.00
    8   10   16      0.82      0.00
    9   10   16      5.32      0.00
   10   10   16     -6.53      0.00
    1   11   16     16.56      0.00
    2   11   16      6.20      0.00
    3   11   16     32.65      0.00
    4   11   16     -3.09      0.00
    5   11   16     20.55      0.00
    6   11   16     -3.07      0.00
    7   11   16     -0.84      0.00
    8   11   16    -19.24      0.00
    9   11   16      1.56      0.00
   10   11   16     -8.66      0.00
   11   11   16     -6.49      0.00
    0   12   16    -21.44      0.00
    1   12   16    -12.85      0.00
    2   12   16     -2.50      0.00
    3   12   16     12.20      0.00
    4   12   16     -2.15      0.00
    5   12   16     10.29      0.00
    6   12   16      8.32      0.00
    7   12   16     20.21      0.00
    8   12   16     -7.58      0.00
    9   12   16    -23.13      0.00
   10   12   16     -8.65      0.00
   11   12   16    -27.64      0.00
    1   13   16    -15.72      0.00
    2   13   16     -6.79      0.00
    3   13   16      6.71      0.00
    4   13   16     -4.64      0.00
    5   13   16     14.28      0.00
    6   13   16    -63.74      0.00
    7   13   16      1.17      0.00
    8   13   16      4.31      0.00
    9   13   16     -3.58      0.00
   10   13   16     -8.55      0.00
   11   13   16     -8.31      0.00
    0   14   16    -25.81      0.00
    1   14   16    -13.37      0.00
    2   14   16    -12.73      0.00
    3   14   16    -76.16      0.00
    4   14   16    -12.65      0.00
    5   14   16     -1.22      0.00
    6   14   16    -12.04      0.00
    7   14   16     -6.48      0.00
    8   14   16     -4.35      0.00
    9   14   16    -18.19      0.00
   10   14   16    -15.36      0.00
   11   14   16      1.75      0.00
    1   15   16      0.69      0.00
    2   15   16     -8.38      0.00
    3   15   16      5.48      0.00
    4   15   16    -15.00      0.00
    5   15   16      6.73      0.00
    6   15   16     24.38      0.00
   10   15   16     22.56      0.00
   11   15   16     -9.44      0.00
    0   16   16    -20.84      0.00
    1   16   16     -9.37      0.00
    2   16   16    -12.66      0.00
    3   16   16     19.73      0.00
    4   16   16    -26.77      0.00
    5   16   16    -94.92      0.00
    6   16   16      0.57      0.00
    7   16   16     18.93      0.00
    1   17   16    -39.91      0.00
    2   17   16     -9.34      0.00
    3   17   16     21.92      0.00
    4   17   16    -15.64      0.00
    5   17   16     -9.76      0.00
    6   17   16     -2.79      0.00
    7   17   16     10.31      0.00
    0   18   16    -23.80      0.00
    1   18   16    -12.91      0.00
    2   18   16    -16.65      0.00
    3   18   16      3.40      0.00
    4   18   16     -1.74      0.00
    5   18   16     20.45      0.00
    6   18   16      1.81      0.00
    7   18   16      8.54      0.00
    0    1   17    -14.39      0.00
    1    2   17      2.45      0.00
    0    3   17      2.76      0.00
    1    3   17      3.18      0.00
    2    3   17     -5.20      0.00
    1    4   17      6.11      0.00
    2    4   17     -8.42      0.00
    3    4   17     -7.18      0.00
    0    5   17      6.81      0.00
    1    5   17      6.00      0.00
    2    5   17    -13.14      0.00
    3    5   17      1.34      0.00
    4    5   17      4.72      0.00
    1    6   17      2.70      0.00
    2    6   17     19.11      0.00
    3    6   17     -1.12      0.00
    4    6   17      6.99      0.00
    5    6   17     -5.43      0.00
    0    7   17     23.32      0.00
    1    7   17     -5.72      0.00
    2    7   17     -3.50      0.00
    3    7   17    -12.59      0.00
    4    7   17      0.60      0.00
    5    7   17     -4.87      0.00
    1    8   17     -1.77      0.00
    2    8   17     -1.23      0.00
    3    8   17     -8.02      0.00
    4    8   17     -8.77      0.00
    6    8   17     -0.94      0.00
    7    8   17     10.25      0.00
    0    9   17    -17.24      0.00
    1    9   17     -0.29      0.00
    2    9   17     -6.75      0.00
    3    9   17      3.07      0.00
    4    9   17      0.67      0.00
    5    9   17      8.27      0.00
    6    9   17      7.40      0.00
    7    9   17     -0.96      0.00
    8    9   17     -2.58      0.00
    1   10   17    -12.48      0.00
    2   10   17    -36.00      0.00
    3   10   17     -1.87      0.00
    4   10   17      8.18      0.00
    5   10   17    -11.67      0.00
    6   10   17    -22.10      0.00
    7   10   17      3.02      0.00
    8   10   17      7.85      0.00
    9   10   17    -10.43      0.00
    1   11   17     61.18      0.00
    2   11   17      2.68      0.00
    3   11   17     -1.02      0.00
    4   11   17     -2.24      0.00
    5   11   17    -10.40      0.00
    6   11   17     11.28      0.00
    7   11   17      6.95      0.00
    8   11   17      2.31      0.00
    9   11   17    -10.85      0.00
   10   11   17     12.28      0.00
    1   12   17      2.09      0.00
    2   12   17     12.50      0.00
    3   12   17    -20.75      0.00
    4   12   17     -4.96      0.00
    5   12   17     -4.67      0.00
    6   12   17     -7.98      0.00
    7   12   17    -49.85      0.00
    8   12   17     -0.35      0.00
    9   12   17      6.52      0.00
   10   12   17     19.74      0.00
   11   12   17     21.58      0.00
    0   13   17     52.93      0.00
    1   13   17    -18.39      0.00
    2   13   17     11.73      0.00
    3   13   17     -2.01      0.00
    4   13   17      7.56      0.00
    5   13   17    -43.18      0.00
    6   13   17      5.13      0.00
    7   13   17    -13.44      0.00
    8   13   17     -1.32      0.00
    9   13   17      7.05      0.00
   10   13   17     14.97      0.00
   11   13   17      5.43      0.00
    1   14   17     17.19      0.00
    2   14   17      8.32      0.00
    3   14   17     -6.22      0.00
    4   14   17    -12.11      0.00
    5   14   17      5.02      0.00
    6   14   17      1.90      0.00
    7   14   17    -22.20      0.00
    8   14   17      9.67      0.00
    9   14   17     19.63      0.00
   10   14   17     -3.21      0.00
   11   14   17     -6.33      0.00
    0   15   17    -21.52      0.00
    1   15   17    -24.12      0.00
    2   15   17      1.14      0.00
    3   15   17     18.20      0.00
    4   15   17      0.53      0.00
    5   15   17     44.72      0.00
    8   15   17      2.70      0.00
    9   15   17     33.33      0.00
   10   15   17    -16.97      0.00
   11   15   17    -13.04      0.00
    1   16   17    -38.76      0.00
    2   16   17    -16.30      0.00
    3   16   17     82.52      0.00
    4   16   17     10.63      0.00
    5   16   17      9.11      0.00
    6   16   17     19.84      0.00
    0   17   17     27.02      0.00
    1   17   17    -20.89      0.00
    2   17   17     -1.60      0.00
    3   17   17      7.30      0.00
    4   17   17      5.00      0.00
    5   17   17    -10.43      0.00
    6   17   17      6.51      0.00
    1   18   17     -4.15      0.00
    2   18   17    -13.67      0.00
    3   18   17     -3.64      0.00
    4   18   17     10.29      0.00
    5   18   17     -0.75      0.00
    6   18   17     -9.58      0.00
    1    1   18     -8.03      0.00
    0    2   18     -4.64      0.00
    1    2   18     -4.90      0.00
    2    2   18      0.44      0.00
    1    3   18    -15.59      0.00
    2    3   18      0.83      0.00
    3    3   18    -15.37      0.00
    0    4   18     -6.35      0.00
    1    4   18     -4.85      0.00
    2    4   18    -13.28      0.00
    3    4   18     -8.43      0.00
    4    4   18     -5.24      0.00
    1    5   18      2.27      0.00
    2    5   18      3.10      0.00
    3    5   18      5.77      0.00
    4    5   18     12.87      0.00
    5    5   18      1.47      0.00
    0    6   18    -18.31      0.00
    1    6   18     -3.57      0.00
    2    6   18      9.89      0.00
    3    6   18     -4.48      0.00
    4    6   18    -15.47      0.00
    5    6   18    -17.85      0.00
    1    7   18     -8.04      0.00
    2    7   18     -2.54      0.00
    3    7   18     -1.94      0.00
    4    7   18     -5.68      0.00
    6    7   18     -2.41      0.00
    7    7   18     -1.77      0.00
    0    8   18     -2.90      0.00
    1    8   18     -3.95      0.00
    2    8   18     10.50      0.00
    3    8   18     -6.39      0.00
    5    8   18      9.53      0.00
    6    8   18     -1.88      0.00
    7    8   18      1.16      0.00
    8    8   18      0.81      0.00
    1    9   18     -4.17      0.00
    2    9   18     -2.25      0.00
    3    9   18      0.37      0.00
    4    9   18      2.69      0.00
    5    9   18    -26.00      0.00
    6    9   18     -2.57      0.00
    7    9   18     -7.21      0.00
    8    9   18     15.05      0.00
    9    9   18      3.06      0.00
    0   10   18     -2.41      0.00
    1   10   18    -16.49      0.00
    2   10   18     -8.40      0.00
    3   10   18     23.55      0.00
    4   10   18      0.94      0.00
    5   10   18     -7.81      0.00
    6   10   18     -3.05      0.00
    7   10   18    -11.21      0.00
    8   10   18     10.08      0.00
    9   10   18     21.36      0.00
   10   10   18    -15.72      0.00
    1   11   18      5.65      0.00
    2   11   18     10.34      0.00
    3   11   18     -3.06      0.00
    4   11   18     -8.00      0.00
    5   11   18    -12.04      0.00
    6   11   18      2.44      0.00
    7   11   18     -4.93      0.00
    8   11   18     -3.93      0.00
    9   11   18      0.41      0.00
   10   11   18     -0.46      0.00
   11   11   18    -12.16      0.00
    0   12   18     19.30      0.00
    1   12   18    -24.45      0.00
    2   12   18     -3.04      0.00
    3   12   18     -0.20      0.00
    4   12   18    -21.05      0.00
    5   12   18     24.29      0.00
    6   12   18     -9.10      0.00
    7   12   18     -2.42      0.00
    8   12   18     -2.80      0.00
    9   12   18     -7.39      0.00
   10   12   18      9.23      0.00
   11   12   18    -12.35      0.00
   12   12   18    -20.92      0.00
    1   13   18     -1.60      0.00
    2   13   18     -3.57      0.00
    3   13   18     16.99      0.00
    4   13   18     28.29      0.00
    5   13   18     14.87      0.00
    6   13   18      4.28      0.00
    7   13   18      8.08      0.00
    8   13   18      1.76      0.00
    9   13   18      6.04      0.00
   10   13   18     -9.84      0.00
   11   13   18    -15.21      0.00
   12   13   18     25.45      0.00
    0   14   18     -1.86      0.00
    1   14   18    -53.72      0.00
    2   14   18    -20.48      0.00
    3   14   18    -35.51      0.00
    4   14   18     -6.63      0.00
    5   14   18      6.82      0.00
    6   14   18      6.32      0.00
    7   14   18     27.72      0.00
    8   14   18     30.46      0.00
    9   14   18     -6.37      0.00
   10   14   18    -21.26      0.00
   11   14   18    -14.54      0.00
    1   15   18     -7.73      0.00
    2   15   18     13.18      0.00
    3   15   18     10.42      0.00
    4   15   18     29.49      0.00
    6   15   18     30.59      0.00
    7   15   18     14.63      0.00
    8   15   18     -0.53      0.00
    9   15   18      8.73      0.00
   10   15   18     -1.35      0.00
   11   15   18    -13.63      0.00
    0   16   18    119.23      0.00
    1   16   18     83.08      0.00
    2   16   18    -21.23      0.00
    3   16   18    -21.26      0.00
    4   16   18      2.85      0.00
    1   17   18     25.91      0.00
    2   17   18     20.88      0.00
    3   17   18    -13.72      0.00
    4   17   18     -4.89      0.00
    5   17   18     -9.25      0.00
    0   18   18     18.96      0.00
    1   18   18      2.62      0.00
    2   18   18     39.38      0.00
    3   18   18    -25.27      0.00
    4   18   18     -6.48      0.00
    0    1   19    -17.64      0.00
    1    2   19      6.73      0.00
    0    3   19    -21.95      0.00
    1    3   19      8.97      0.00
    2    3   19      5.75      0.00
    1    4   19     -0.39      0.00
    2    4   19      0.39      0.00
    3    4   19     11.60      0.00
    0    5   19     -9.02      0.00
    1    5   19      1.76      0.00
    2    5   19     -7.45      0.00
    3    5   19     -6.05      0.00
    4    5   19    -10.07      0.00
    1    6   19      2.61      0.00
    2    6   19     -2.57      0.00
    3    6   19     -5.02      0.00
    4    6   19      6.62      0.00
    0    7   19     -7.29      0.00
    1    7   19     -4.74      0.00
    2    7   19      2.98      0.00
    3    7   19      1.89      0.00
    5    7   19      6.75      0.00
    6    7   19     10.22      0.00
    1    8   19     -2.97      0.00
    2    8   19     -2.14      0.00
    3    8   19      3.67      0.00
    4    8   19    -11.35      0.00
    5    8   19     11.43      0.00
    6    8   19     -4.62      0.00
    7    8   19      1.52      0.00
    0    9   19     -3.85      0.00
    1    9   19     -4.67      0.00
    2    9   19     -5.47      0.00
    3    9   19     29.62      0.00
    4    9   19     14.48      0.00
    5    9   19      5.66      0.00
    6    9   19      7.73      0.00
    7    9   19     -8.90      0.00
    8    9   19    -12.85      0.00
    1   10   19      6.88      0.00
    2   10   19     10.63      0.00
    3   10   19     -4.34      0.00
    4   10   19      1.73      0.00
    5   10   19     -1.78      0.00
    6   10   19     -4.23      0.00
    7   10   19    -18.01      0.00
    8   10   19     -6.11      0.00
    9   10   19     14.70      0.00
    0   11   19     28.47      0.00
    1   11   19     11.49      0.00
    2   11   19      1.84      0.00
    3   11   19      3.10      0.00
    4   11   19      2.62      0.00
    5   11   19    -12.13      0.00
    6   11   19     20.74      0.00
    7   11   19     47.64      0.00
    8   11   19    -13.58      0.00
    9   11   19     -8.54      0.00
   10   11   19     -6.23      0.00
    1   12   19      2.94      0.00
    2   12   19    -15.61      0.00
    3   12   19      9.55      0.00
    4   12   19     14.45      0.00
    5   12   19    -33.37      0.00
    6   12   19    -10.04      0.00
    7   12   19      7.00      0.00
    8   12   19     13.51      0.00
    9   12   19     -2.53      0.00
   10   12   19     44.25      0.00
   11   12   19     21.88      0.00
    0   13   19    -28.58      0.00
    1   13   19     23.35      0.00
    2   13   19     17.68      0.00
    3   13   19     -1.02      0.00
    4   13   19      1.58      0.00
    5   13   19     -0.18      0.00
    6   13   19      2.18      0.00
    7   13   19      1.58      0.00
    8   13   19     31.82      0.00
    9   13   19    -23.97      0.00
   10   13   19      2.20      0.00
   11   13   19    -10.03      0.00
   12   13   19     -7.90      0.00
    1   14   19    -11.92      0.00
    2   14   19     -2.73      0.00
    3   14   19      5.02      0.00
    4   14   19      3.10      0.00
    5   14   19     26.19      0.00
    6   14   19      8.97      0.00
    7   14   19    -83.38      0.00
    8   14   19     13.50      0.00
    9   14   19      5.66      0.00
   10   14   19    -10.17      0.00
   11   14   19      7.39      0.00
    0   15   19    -23.12      0.00
    1   15   19    -45.35      0.00
    2   15   19     17.02      0.00
    3   15   19     19.61      0.00
    5   15   19      5.95      0.00
    6   15   19     17.64      0.00
    7   15   19     -9.39      0.00
    8   15   19    -20.15      0.00
    9   15   19     14.53      0.00
   10   15   19     -3.04      0.00
    1   16   19      8.79      0.00
    2   16   19    -11.39      0.00
    3   16   19    -22.98      0.00
    0   17   19     10.75      0.00
    1   17   19    -29.32      0.00
    2   17   19      8.57      0.00
    3   17   19     -5.83      0.00
    4   17   19    -29.62      0.00
    1   18   19    -41.47      0.00
    2   18   19     26.34      0.00
    3   18   19    -10.27      0.00
    1    1   20    -25.90      0.00
    0    2   20      8.24      0.00
    1    2   20      1.90      0.00
    2    2   20     15.36      0.00
    1    3   20     -6.44      0.00
    2    3   20      5.80      0.00
    3    3   20      2.87      0.00
    0    4   20     22.57      0.00
    1    4   20      1.57      0.00
    2    4   20     -2.44      0.00
    3    4   20     -0.47      0.00
    4    4   20     15.79      0.00
    1    5   20      3.22      0.00
    2    5   20      1.18      0.00
    3    5   20    -13.67      0.00
    4    5   20      0.42      0.00
    0    6   20      2.32      0.00
    1    6   20     -0.46      0.00
    2    6   20      7.51      0.00
    3    6   20     -1.48      0.00
    5    6   20     -7.85      0.00
    6    6   20      5.46      0.00
    1    7   20      8.40      0.00
    2    7   20    -12.88      0.00
    3    7   20     11.97      0.00
    4    7   20     -5.71      0.00
    5    7   20     -2.48      0.00
    6    7   20      3.11      0.00
    7    7   20      9.15      0.00
    0    8   20     -3.66      0.00
    1    8   20     -1.49      0.00
    2    8   20    -20.71      0.00
    3    8   20     -1.79      0.00
    4    8   20     12.17      0.00
    5    8   20    -12.57      0.00
    6    8   20     -4.48      0.00
    7    8   20      6.62      0.00
    8    8   20    -23.61      0.00
    1    9   20    -13.95      0.00
    2    9   20     -4.46      0.00
    3    9   20      4.71      0.00
    4    9   20      2.36      0.00
    5    9   20      7.85      0.00
    6    9   20     -0.58      0.00
    7    9   20     -4.56      0.00
    8    9   20      6.18      0.00
    9    9   20     27.60      0.00
    0   10   20      6.00      0.00
    1   10   20     -3.55      0.00
    2   10   20     14.51      0.00
    3   10   20    -15.56      0.00
    4   10   20      4.20      0.00
    5   10   20      1.20      0.00
    6   10   20     11.62      0.00
    7   10   20    -13.66      0.00
    8   10   20     11.11      0.00
    9   10   20     -4.89      0.00
   10   10   20      9.99      0.00
    1   11   20      7.87      0.00
    2   11   20     -0.05      0.00
    3   11   20    -13.65      0.00
    4   11   20     -3.23      0.00
    5   11   20      0.31      0.00
    6   11   20     31.72      0.00
    7   11   20     -6.37      0.00
    8   11   20      3.64      0.00
    9   11   20    -20.51      0.00
   10   11   20     -8.02      0.00
   11   11   20    -35.64      0.00
    0   12   20     17.70      0.00
    1   12   20      6.97      0.00
    2   12   20    -20.31      0.00
    3   12   20      4.03      0.00
    4   12   20      9.35      0.00
    5   12   20      9.85      0.00
    6   12   20     10.44      0.00
    7   12   20      0.96      0.00
    8   12   20    -10.92      0.00
    9   12   20    -14.42      0.00
   10   12   20     16.31      0.00
   11   12   20     -5.64      0.00
   12   12   20     13.31      0.00
    1   13   20      5.83      0.00
    2   13   20    -37.07      0.00
    3   13   20     -4.55      0.00
    4   13   20     16.85      0.00
    5   13   20      5.55      0.00
    6   13   20      5.74      0.00
    7   13   20     25.43      0.00
    8   13   20      8.00      0.00
    9   13   20      0.18      0.00
   10   13   20     21.67      0.00
   11   13   20    -17.77      0.00
    0   14   20     -5.19      0.00
    1   14   20     -8.95      0.00
    2   14   20    -22.06      0.00
    3   14   20    -11.75      0.00
    4   14   20      8.84      0.00
    5   14   20     -3.55      0.00
    6   14   20    -59.00      0.00
    7   14   20     10.01      0.00
    8   14   20     -2.08      0.00
    9   14   20     25.35      0.00
   10   14   20      4.55      0.00
    1   15   20      3.64      0.00
    2   15   20    214.24      0.00
    3   15   20    -14.85      0.00
    4   15   20     -8.77      0.00
    5   15   20     -2.70      0.00
    6   15   20    -17.63      0.00
    7   15   20     -1.86      0.00
    8   15   20     21.40      0.00
    9   15   20     18.83      0.00
    0   16   20     80.04      0.00
    1   16   20     13.86      0.00
    2   16   20    -24.20      0.00
    1   17   20    -40.73      0.00
    2   17   20    -13.71      0.00
    0    1   21     -8.84      0.00
    1    2   21      2.72      0.00
    0    3   21    -11.18      0.00
    1    3   21      1.30      0.00
    2    3   21     -0.25      0.00
    1    4   21      6.31      0.00
    2    4   21      2.54      0.00
    3    4   21      8.66      0.00
    0    5   21     -0.94      0.00
    1    5   21      0.86      0.00
    2    5   21     26.23      0.00
    3    5   21      8.18      0.00
    1    6   21      4.99      0.00
    2    6   21    -10.00      0.00
    3    6   21     -2.93      0.00
    4    6   21      4.11      0.00
    5    6   21      1.37      0.00
    0    7   21    -13.26      0.00
    1    7   21     -2.33      0.00
    2    7   21     -0.42      0.00
    3    7   21      1.32      0.00
    4    7   21     -5.54      0.00
    5    7   21      9.37      0.00
    6    7   21     -3.83      0.00
    1    8   21     10.23      0.00
    2    8   21     -7.71      0.00
    3    8   21     12.69      0.00
    4    8   21     -1.32      0.00
    5    8   21     -4.92      0.00
    6    8   21     -0.61      0.00
    7    8   21     23.40      0.00
    0    9   21      8.55      0.00
    1    9   21     17.50      0.00
    2    9   21      1.72      0.00
    3    9   21     11.64      0.00
    4    9   21     -2.03      0.00
    5    9   21      4.57      0.00
    6    9   21     -6.03      0.00
    7    9   21     12.44      0.00
    8    9   21      1.34      0.00
    1   10   21     -5.40      0.00
    2   10   21      5.10      0.00
    3   10   21     -0.68      0.00
    4   10   21     -3.49      0.00
    5   10   21    -10.81      0.00
    6   10   21    -26.18      0.00
    7   10   21     31.58      0.00
    8   10   21     16.38      0.00
    9   10   21     22.21      0.00
    0   11   21     -6.09      0.00
    1   11   21      1.97      0.00
    2   11   21     10.55      0.00
    3   11   21    -17.65      0.00
    4   11   21      9.04      0.00
    5   11   21    -11.69      0.00
    6   11   21     -1.82      0.00
    7   11   21      1.17      0.00
    8   11   21      8.52      0.00
    9   11   21     12.89      0.00
   10   11   21     30.32      0.00
    1   12   21     -3.31      0.00
    2   12   21     -8.09      0.00
    3   12   21    -13.75      0.00
    4   12   21      0.59      0.00
    5   12   21      3.33      0.00
    6   12   21    -11.29      0.00
    7   12   21      5.14      0.00
    8   12   21    -16.79      0.00
    9   12   21     30.98      0.00
   10   12   21     -6.08      0.00
   11   12   21     -7.84      0.00
    0   13   21    -21.06      0.00
    1   13   21      1.25      0.00
    2   13   21     -5.23      0.00
    3   13   21     34.76      0.00
    4   13   21      4.08      0.00
    5   13   21     -1.62      0.00
    6   13   21     11.72      0.00
    7   13   21    -72.94      0.00
    8   13   21     -3.73      0.00
    9   13   21      5.58      0.00
   10   13   21     -1.46      0.00
    1   14   21    -25.78      0.00
    2   14   21     -7.42      0.00
    3   14   21     12.70      0.00
    4   14   21     -2.33      0.00
    5   14   21      2.89      0.00
    6   14   21    -21.19      0.00
    7   14   21     16.29      0.00
    8   14   21      2.91      0.00
    9   14   21     -3.81      0.00
   10   14   21    -11.91      0.00
    0   15   21     14.66      0.00
    1   15   21     -4.86      0.00
    3   15   21    -58.85      0.00
    4   15   21      9.73      0.00
    5   15   21      4.94      0.00
    6   15   21     24.36      0.00
    7   15   21      9.73      0.00
    8   15   21     21.75      0.00
    9   15   21    -12.29      0.00
    1   16   21    -22.68      0.00
    0   17   21    -45.30      0.00
    1   17   21     -3.26      0.00
    1    1   22     -9.78      0.00
    0    2   22     28.92      0.00
    1    2   22     -3.10      0.00
    2    2   22      5.04      0.00
    1    3   22    -19.28      0.00
    2    3   22      7.97      0.00
    3    3   22      5.89      0.00
    0    4   22     15.38      0.00
    1    4   22      5.09      0.00
    2    4   22      5.38      0.00
    3    4   22      2.61      0.00
    4    4   22     12.96      0.00
    1    5   22     -2.64      0.00
    2    5   22     -0.91      0.00
    3    5   22      6.29      0.00
    4    5   22    -16.82      0.00
    5    5   22     -5.55      0.00
    0    6   22      2.70      0.00
    1    6   22    -11.91      0.00
    2    6   22     -7.34      0.00
    3    6   22     11.04      0.00
    4    6   22      7.69      0.00
    5    6   22      1.62      0.00
    6    6   22     16.56      0.00
    1    7   22     -0.80      0.00
    2    7   22     -4.67      0.00
    3    7   22      4.75      0.00
    4    7   22     18.35      0.00
    5    7   22     -3.58      0.00
    6    7   22      8.42      0.00
    7    7   22      2.94      0.00
    0    8   22     -5.45      0.00
    1    8   22      6.69      0.00
    2    8   22     -7.87      0.00
    3    8   22      9.88      0.00
    4    8   22      2.89      0.00
    5    8   22      1.67      0.00
    6    8   22      9.86      0.00
    7    8   22     -8.29      0.00
    8    8   22     -9.73      0.00
    1    9   22     16.03      0.00
    2    9   22     15.90      0.00
    3    9   22      1.08      0.00
    4    9   22     21.96      0.00
    5    9   22    -11.42      0.00
    6    9   22      1.07      0.00
    7    9   22    -22.00      0.00
    8    9   22     -5.60      0.00
    9    9   22     15.78      0.00
    0   10   22      3.87      0.00
    1   10   22    -12.32      0.00
    2   10   22     -2.47      0.00
    3   10   22      3.51      0.00
    4   10   22     -7.84      0.00
    5   10   22      8.76      0.00
    6   10   22     -7.35      0.00
    7   10   22      7.76      0.00
    8   10   22     -6.13      0.00
    9   10   22    -28.04      0.00
   10   10   22    -82.58      0.00
    1   11   22      5.96      0.00
    2   11   22    -12.17      0.00
    3   11   22    -11.68      0.00
    4   11   22     -5.73      0.00
    5   11   22     -1.46      0.00
    6   11   22      3.21      0.00
    7   11   22     18.14      0.00
    8   11   22     -2.19      0.00
    9   11   22    -75.13      0.00
   10   11   22      8.13      0.00
   11   11   22     -6.65      0.00
    0   12   22     -9.98      0.00
    1   12   22    -16.04      0.00
    2   12   22     16.73      0.00
    3   12   22     -1.14      0.00
    4   12   22     -0.06      0.00
    5   12   22    -10.37      0.00
    6   12   22     -8.69      0.00
    7   12   22      1.08      0.00
    8   12   22      4.25      0.00
    9   12   22      0.07      0.00
   10   12   22      7.29      0.00
   11   12   22     -0.93      0.00
    1   13   22      3.80      0.00
    2   13   22     19.84      0.00
    3   13   22      0.05      0.00
    4   13   22    -30.78      0.00
    5   13   22      0.37      0.00
    6   13   22     14.50      0.00
    7   13   22     16.30      0.00
    8   13   22      8.25      0.00
    9   13   22      7.43      0.00
   10   13   22     -1.07      0.00
    1   14   22    -42.38      0.00
    2   14   22    -40.04      0.00
    3   14   22    -15.39      0.00
    4   14   22    -13.60      0.00
    5   14   22      0.17      0.00
    6   14   22    -14.18      0.00
    7   14   22     18.05      0.00
    8   14   22    -10.36      0.00
    9   14   22    -28.68      0.00
    3   15   22     19.44      0.00
    4   15   22    -13.86      0.00
    5   15   22    -33.37      0.00
    6   15   22      7.98      0.00
    7   15   22     -0.84      0.00
    8   15   22      7.93      0.00
    0   16   22    -12.91      0.00
    0    1   23     -7.91      0.00
    1    2   23     -1.81      0.00
    0    3   23     -1.19      0.00
    1    3   23     -8.72      0.00
    2    3   23      2.08      0.00
    1    4   23     -8.86      0.00
    2    4   23      3.36      0.00
    3    4   23    -13.64      0.00
    0    5   23      6.22      0.00
    1    5   23    -10.56      0.00
    2    5   23     -7.62      0.00
    3    5   23      2.87      0.00
    4    5   23    -11.80      0.00
    1    6   23     -2.07      0.00
    2    6   23    -21.86      0.00
    3    6   23    -13.27      0.00
    4    6   23    -15.75      0.00
    5    6   23     -3.94      0.00
    0    7   23     -2.92      0.00
    1    7   23     19.92      0.00
    2    7   23    -15.90      0.00
    3    7   23      5.40      0.00
    4    7   23      8.01      0.00
    5    7   23      4.69      0.00
    6    7   23     21.56      0.00
    1    8   23     -4.32      0.00
    2    8   23      9.65      0.00
    3    8   23      1.52      0.00
    4    8   23    -30.76      0.00
    5    8   23     17.21      0.00
    6    8   23     -0.16      0.00
    7    8   23    -45.43      0.00
    0    9   23    -17.73      0.00
    1    9   23     -4.43      0.00
    2    9   23     -1.93      0.00
    3    9   23     -5.14      0.00
    4    9   23      7.38      0.00
    5    9   23    -28.24      0.00
    6    9   23     -6.77      0.00
    7    9   23    -10.78      0.00
    8    9   23     11.78      0.00
    1   10   23     -3.68      0.00
    2   10   23     -3.47      0.00
    3   10   23     -7.14      0.00
    4   10   23    -26.12      0.00
    5   10   23     14.14      0.00
    6   10   23     20.83      0.00
    7   10   23     16.98      0.00
    8   10   23    -19.28      0.00
    9   10   23     30.74      0.00
    0   11   23     12.00      0.00
    1   11   23     -6.00      0.00
    2   11   23    -13.52      0.00
    3   11   23     12.60      0.00
    4   11   23     -8.11      0.00
    5   11   23     -5.18      0.00
    6   11   23    -12.85      0.00
    7   11   23     -1.56      0.00
    8   11   23   -104.65      0.00
    9   11   23      6.83      0.00
   10   11   23     10.06      0.00
    1   12   23     -5.86      0.00
    2   12   23     -3.36      0.00
    3   12   23      5.41      0.00
    4   12   23     13.43      0.00
    5   12   23     18.17      0.00
    6   12   23     -3.98      0.00
    7   12   23     -2.10      0.00
    8   12   23     -7.57      0.00
    9   12   23     25.00      0.00
   10   12   23     -4.88      0.00
    0   13   23     -1.56      0.00
    1   13   23      6.25      0.00
    2   13   23     -8.24      0.00
    3   13   23    -23.29      0.00
    4   13   23     45.47      0.00
    5   13   23     -1.20      0.00
    6   13   23    -11.41      0.00
    7   13   23      7.29      0.00
    8   13   23    -16.43      0.00
    9   13   23     22.18      0.00
    2   14   23     12.41      0.00
    3   14   23     -0.35      0.00
    4   14   23    -18.35      0.00
    5   14   23      4.53      0.00
    6   14   23     15.18      0.00
    7   14   23      2.54      0.00
    8   14   23     33.16      0.00
    2   15   23     41.68      0.00
    3   15   23      0.51      0.00
    4   15   23     -5.50      0.00
    5   15   23     10.19      0.00
    6   15   23     12.86      0.00
    7   15   23     -7.26      0.00
    0    2   24     22.06      0.00
    1    2   24    -13.32      0.00
    2    2   24     15.59      0.00
    1    3   24     -7.04      0.00
    2    3   24    -10.19      0.00
    3    3   24     14.79      0.00
    0    4   24     -2.48      0.00
    1    4   24     -7.89      0.00
    2    4   24    -25.94      0.00
    3    4   24     -6.20      0.00
    4    4   24     -5.08      0.00
    1    5   24     -5.48      0.00
    2    5   24     12.52      0.00
    3    5   24      4.22      0.00
    4    5   24      3.24      0.00
    5    5   24     -6.46      0.00
    0    6   24    -18.23      0.00
    1    6   24     13.32      0.00
    2    6   24      8.51      0.00
    3    6   24     -1.28      0.00
    4    6   24    -19.94      0.00
    5    6   24     12.40      0.00
    6    6   24     27.12      0.00
    1    7   24      2.41      0.00
    2    7   24     -4.62      0.00
    3    7   24     -3.04      0.00
    4    7   24     12.61      0.00
    5    7   24     11.79      0.00
    6    7   24    -18.71      0.00
    7    7   24    -57.17      0.00
    0    8   24      3.94      0.00
    1    8   24      1.25      0.00
    2    8   24     -3.12      0.00
    3    8   24     16.99      0.00
    4    8   24      9.87      0.00
    5    8   24    -10.68      0.00
    6    8   24     -0.98      0.00
    7    8   24      0.60      0.00
    8    8   24     25.81      0.00
    1    9   24     15.30      0.00
    2    9   24      7.19      0.00
    3    9   24     -0.64      0.00
    4    9   24     39.95      0.00
    5    9   24    -26.98      0.00
    6    9   24      5.11      0.00
    7    9   24    -14.50      0.00
    8    9   24     -6.93      0.00
    9    9   24     21.13      0.00
    0   10   24     -6.02      0.00
    1   10   24      2.40      0.00
    2   10   24     -3.35      0.00
    3   10   24     -5.70      0.00
    4   10   24      5.15      0.00
    5   10   24     10.45      0.00
    6   10   24     -6.13      0.00
    7   10   24     16.70      0.00
    8   10   24     25.95      0.00
    9   10   24      7.22      0.00
   10   10   24     15.26      0.00
    1   11   24      9.72      0.00
    2   11   24      0.26      0.00
    3   11   24     16.90      0.00
    4   11   24      0.14      0.00
    5   11   24    -19.60      0.00
    6   11   24     18.85      0.00
    7   11   24    108.15      0.00
    8   11   24     12.22      0.00
    9   11   24     -3.14      0.00
   10   11   24      2.16      0.00
    0   12   24     -8.63      0.00
    1   12   24     14.60      0.00
    2   12   24     -7.68      0.00
    3   12   24    -23.07      0.00
    4   12   24    -15.39      0.00
    5   12   24     73.73      0.00
    6   12   24      1.61      0.00
    7   12   24    -27.11      0.00
    8   12   24     -7.91      0.00
    9   12   24    -18.67      0.00
    1   13   24    -50.70      0.00
    2   13   24     44.76      0.00
    3   13   24      5.67      0.00
    4   13   24     17.03      0.00
    5   13   24    -17.72      0.00
    6   13   24     -3.56      0.00
    7   13   24    -21.90      0.00
    8   13   24    -22.54      0.00
    2   14   24      4.65      0.00
    3   14   24     28.52      0.00
    4   14   24     -0.75      0.00
    5   14   24     -3.61      0.00
    6   14   24     14.58      0.00
    7   14   24     -7.59      0.00
    2   15   24     28.28      0.00
    3   15   24     14.82      0.00
    4   15   24     13.46      0.00
    5   15   24     -8.68      0.00
    1    2   25     -5.98      0.00
    1    3   25    -10.62      0.00
    2    3   25     -4.40      0.00
    1    4   25     15.27      0.00
    2    4   25      8.48      0.00
    3    4   25      6.29      0.00
    0    5   25     29.79      0.00
    1    5   25     -0.36      0.00
    2    5   25     -0.30      0.00
    3    5   25      4.37      0.00
    4    5   25     20.03      0.00
    1    6   25     -6.62      0.00
    2    6   25     -4.76      0.00
    3    6   25      2.62      0.00
    4    6   25     10.25      0.00
    5    6   25     11.44      0.00
    0    7   25     -3.50      0.00
    1    7   25     10.60      0.00
    2    7   25     10.27      0.00
    3    7   25      2.51      0.00
    4    7   25    -14.13      0.00
    5    7   25      8.07      0.00
    6    7   25     -5.55      0.00
    1    8   25     12.34      0.00
    2    8   25     12.14      0.00
    3    8   25      6.79      0.00
    4    8   25    -65.82      0.00
    5    8   25    -17.68      0.00
    6    8   25     21.31      0.00
    7    8   25     -3.75      0.00
    0    9   25     24.64      0.00
    1    9   25    -20.06      0.00
    2    9   25     -7.81      0.00
    3    9   25    -32.34      0.00
    4    9   25      3.92      0.00
    5    9   25     -2.06      0.00
    6    9   25     -7.77      0.00
    7    9   25    -10.29      0.00
    8    9   25     13.62      0.00
    1   10   25    -11.97      0.00
    2   10   25      7.86      0.00
    3   10   25      9.11      0.00
    4   10   25    -29.05      0.00
    5   10   25    -26.70      0.00
    6   10   25     -2.08      0.00
    7   10   25    -20.82      0.00
    8   10   25      8.51      0.00
    9   10   25    -10.07      0.00
    0   11   25      6.55      0.00
    1   11   25      1.17      0.00
    2   11   25      1.62      0.00
    3   11   25    -10.51      0.00
    4   11   25     -5.75      0.00
    5   11   25    -30.05      0.00
    6   11   25    -33.81      0.00
    7   11   25     -7.78      0.00
    8   11   25    -23.26      0.00
    9   11   25      3.39      0.00
    1   12   25     21.47      0.00
    2   12   25      1.34      0.00
    3   12   25     59.34      0.00
    4   12   25     -7.53      0.00
    5   12   25     -3.06      0.00
    6   12   25     -5.30      0.00
    7   12   25      2.74      0.00
    8   12   25     13.41      0.00
    0   13   25     21.10      0.00
    1   13   25      3.41      0.00
    2   13   25     19.22      0.00
    3   13   25      1.95      0.00
    4   13   25     -8.76      0.00
    5   13   25    -12.77      0.00
    6   13   25     -8.96      0.00
    7   13   25     -6.85      0.00
    2   14   25    -14.35      0.00
    3   14   25    -21.44      0.00
    4   14   25     -1.43      0.00
    5   14   25     -2.50      0.00
    6   14   25     -5.41      0.00
    3   15   25     -3.34      0.00
    4   15   25    -12.95      0.00
    0    2   26    -21.20      0.00
    1    2   26     16.59      0.00
    2    2   26    -13.18      0.00
    1    3   26      7.98      0.00
    2    3   26      7.56      0.00
    3    3   26      9.23      0.00
    0    4   26    -28.04      0.00
    1    4   26    -19.06      0.00
    2    4   26     -7.67      0.00
    3    4   26     -0.09      0.00
    4    4   26     -0.45      0.00
    1    5   26     10.45      0.00
    2    5   26     -1.49      0.00
    3    5   26     11.40      0.00
    4    5   26     -8.46      0.00
    5    5   26      9.62      0.00
    0    6   26     10.62      0.00
    1    6   26    -12.84      0.00
    2    6   26      2.40      0.00
    3    6   26     -5.34      0.00
    4    6   26     -6.51      0.00
    5    6   26    -17.14      0.00
    6    6   26     -3.98      0.00
    1    7   26      9.86      0.00
    2    7   26      7.22      0.00
    3    7   26     -8.86      0.00
    4    7   26     -8.79      0.00
    5    7   26     -2.85      0.00
    6    7   26     13.85      0.00
    7    7   26     17.93      0.00
    0    8   26     12.29      0.00
    1    8   26     -7.98      0.00
    2    8   26    -23.51      0.00
    3    8   26      4.54      0.00
    4    8   26      3.25      0.00
    5    8   26     17.22      0.00
    6    8   26      8.33      0.00
    7    8   26      2.24      0.00
    8    8   26     11.80      0.00
    1    9   26      3.48      0.00
    2    9   26      4.81      0.00
    3    9   26     -1.70      0.00
    4    9   26    -15.56      0.00
    5    9   26      2.82      0.00
    6    9   26      7.43      0.00
    7    9   26    -12.83      0.00
    8    9   26     -3.61      0.00
    9    9   26    -10.94      0.00
    0   10   26     -4.85      0.00
    1   10   26     -0.47      0.00
    2   10   26     -3.47      0.00
    3   10   26      0.02      0.00
    4   10   26      8.18      0.00
    5   10   26     14.33      0.00
    6   10   26    103.47      0.00
    7   10   26     -9.29      0.00
    8   10   26    -22.08      0.00
    9   10   26     -7.35      0.00
    1   11   26    -18.64      0.00
    2   11   26      0.48      0.00
    3   11   26     -5.61      0.00
    4   11   26     68.84      0.00
    5   11   26     -3.59      0.00
    6   11   26     -5.94      0.00
    7   11   26    -11.14      0.00
    8   11   26     -1.46      0.00
    0   12   26     21.12      0.00
    1   12   26     -5.07      0.00
    2   12   26    -24.75      0.00
    3   12   26     -0.01      0.00
    4   12   26     -8.15      0.00
    5   12   26     -2.04      0.00
    6   12   26    -13.58      0.00
    7   12   26     26.72      0.00
    1   13   26    -38.79      0.00
    2   13   26      4.78      0.00
    3   13   26     -3.49      0.00
    4   13   26    -15.38      0.00
    5   13   26     10.04      0.00
    6   13   26      3.81      0.00
    3   14   26    -18.78      0.00
    4   14   26    -27.42      0.00
    1    2   27    -17.23      0.00
    0    3   27     15.00      0.00
    1    3   27     12.99      0.00
    2    3   27     11.46      0.00
    1    4   27      0.15      0.00
    2    4   27     12.91      0.00
    3    4   27     -6.23      0.00
    0    5   27    -15.66      0.00
    1    5   27     10.35      0.00
    2    5   27    -19.38      0.00
    3    5   27    -11.76      0.00
    4    5   27    -12.76      0.00
    1    6   27    -30.35      0.00
    2    6   27     -0.70      0.00
    3    6   27     28.97      0.00
    4    6   27      5.81      0.00
    5    6   27     -9.73      0.00
    0    7   27      1.43      0.00
    1    7   27      4.79      0.00
    2    7   27      4.36      0.00
    3    7   27      1.50      0.00
    4    7   27      2.64      0.00
    5    7   27     11.29      0.00
    6    7   27    -18.12      0.00
    1    8   27    -15.40      0.00
    2    8   27     -9.44      0.00
    3    8   27     11.38      0.00
    4    8   27     11.95      0.00
    5    8   27      6.96      0.00
    6    8   27     -9.49      0.00
    7    8   27    -14.22      0.00
    0    9   27     -8.49      0.00
    1    9   27     -9.59      0.00
    2    9   27     12.73      0.00
    3    9   27      5.37      0.00
    4    9   27     16.21      0.00
    5    9   27     15.19      0.00
    6    9   27     61.59      0.00
    7    9   27     -7.58      0.00
    8    9   27      0.40      0.00
    1   10   27    -37.01      0.00
    2   10   27     -2.60      0.00
    3   10   27    -21.60      0.00
    4   10   27      9.83      0.00
    5   10   27    -18.36      0.00
    6   10   27    -10.82      0.00
    7   10   27      7.96      0.00
    8   10   27     -0.35      0.00
    0   11   27    -13.66      0.00
    1   11   27    -13.06      0.00
    2   11   27     -0.13      0.00
    3   11   27    -12.41      0.00
    4   11   27      8.23      0.00
    5   11   27    -10.90      0.00
    6   11   27     -1.18      0.00
    7   11   27     -4.31      0.00
    1   12   27     11.50      0.00
    2   12   27     -3.47      0.00
    3   12   27     17.60      0.00
    4   12   27    -29.75      0.00
    5   12   27      2.95      0.00
    6   12   27     15.00      0.00
    1   13   27      7.67      0.00
    2   13   27      1.75      0.00
    3   13   27     -8.25      0.00
    4   13   27    -28.93      0.00
    1   14   27     41.42      0.00
    2   14   27     -3.37      0.00
    1    2   28      8.98      0.00
    2    2   28    -21.66      0.00
    1    3   28     -4.96      0.00
    2    3   28     -9.00      0.00
    3    3   28     14.11      0.00
    0    4   28     -2.08      0.00
    1    4   28     -7.89      0.00
    2    4   28     -5.17      0.00
    3    4   28      8.77      0.00
    4    4   28      7.80      0.00
    1    5   28     31.79      0.00
    2    5   28     -2.86      0.00
    3    5   28      1.58      0.00
    4    5   28     20.67      0.00
    5    5   28     10.19      0.00
    0    6   28     15.72      0.00
    1    6   28     10.34      0.00
    2    6   28     16.35      0.00
    3    6   28     -8.62      0.00
    4    6   28    -26.98      0.00
    5    6   28    -10.00      0.00
    6    6   28      9.37      0.00
    1    7   28      8.25      0.00
    2    7   28    -11.76      0.00
    3    7   28     17.51      0.00
    4    7   28     13.51      0.00
    5    7   28     -6.15      0.00
    6    7   28     16.49      0.00
    7    7   28     50.30      0.00
    0    8   28    -18.23      0.00
    1    8   28    -15.10      0.00
    2    8   28      3.90      0.00
    3    8   28     30.20      0.00
    4    8   28    -14.70      0.00
    5    8   28     17.43      0.00
    6    8   28     57.24      0.00
    7    8   28    -11.42      0.00
    8    8   28     -0.04      0.00
    1    9   28    -17.10      0.00
    2    9   28     23.35      0.00
    3    9   28      6.60      0.00
    4    9   28     21.93      0.00
    5    9   28    -37.20      0.00
    6    9   28     -4.44      0.00
    7    9   28    -31.16      0.00
    8    9   28     -1.51      0.00
    0   10   28     74.40      0.00
    1   10   28    107.62      0.00
    2   10   28     -7.78      0.00
    3   10   28    -16.19      0.00
    4   10   28     26.63      0.00
    5   10   28      6.05      0.00
    6   10   28    -16.57      0.00
    7   10   28    -14.34      0.00
    1   11   28     17.04      0.00
    2   11   28     12.21      0.00
    3   11   28      0.30      0.00
    4   11   28     10.29      0.00
    5   11   28    -12.39      0.00
    6   11   28    -16.04      0.00
    0   12   28    -18.93      0.00
    1   12   28      3.38      0.00
    2   12   28     14.40      0.00
    3   12   28     10.59      0.00
    4   12   28    -15.40      0.00
    1   13   28    -30.95      0.00
    2   13   28     25.69      0.00
    0    3   29     40.56      0.00
    1    3   29    -15.00      0.00
    2    3   29     17.02      0.00
    1    4   29      0.50      0.00
    2    4   29      1.41      0.00
    3    4   29      5.25      0.00
    0    5   29    -13.54      0.00
    1    5   29     13.46      0.00
    2    5   29    -38.05      0.00
    3    5   29      3.22      0.00
    4    5   29      5.04      0.00
    1    6   29    -15.31      0.00
    2    6   29    -31.24      0.00
    3    6   29    -10.13      0.00
    4    6   29     10.75      0.00
    5    6   29     11.21      0.00
    0    7   29    -28.28      0.00
    1    7   29    -22.41      0.00
    2    7   29      9.76      0.00
    3    7   29     25.86      0.00
    4    7   29     -5.75      0.00
    5    7   29      5.89      0.00
    6    7   29    -22.65      0.00
    1    8   29      2.20      0.00
    2    8   29     23.55      0.00
    3    8   29    -42.80      0.00
    4    8   29   -101.69      0.00
    5    8   29    -28.49      0.00
    6    8   29     15.21      0.00
    7    8   29    -15.83      0.00
    0    9   29    173.37      0.00
    1    9   29    -86.05      0.00
    2    9   29    -16.08      0.00
    3    9   29     -3.52      0.00
    4    9   29     23.93      0.00
    5    9   29     -1.49      0.00
    6    9   29     -1.96      0.00
    7    9   29    -10.03      0.00
    1   10   29    -27.01      0.00
    2   10   29    -48.76      0.00
    3   10   29      6.48      0.00
    4   10   29     -7.25      0.00
    5   10   29    -13.15      0.00
    6   10   29    -17.61      0.00
    0   11   29      3.98      0.00
    1   11   29      3.40      0.00
    2   11   29      0.60      0.00
    3   11   29     -5.42      0.00
    4   11   29      1.61      0.00
    1   12   29     22.76      0.00
    2   12   29     -6.27      0.00
    3   12   29     -2.53      0.00
    1   13   29     -1.52      0.00
    1    3   30    -31.34      0.00
    2    3   30      6.83      0.00
    3    3   30     -5.36      0.00
    0    4   30    -17.95      0.00
    1    4   30     14.61      0.00
    2    4   30      6.02      0.00
    3    4   30      1.61      0.00
    4    4   30     -9.87      0.00
    1    5   30      5.34      0.00
    2    5   30     12.47      0.00
    3    5   30      3.35      0.00
    4    5   30     -8.62      0.00
    5    5   30     33.33      0.00
    0    6   30    -27.93      0.00
    1    6   30     -3.22      0.00
    2    6   30      9.46      0.00
    3    6   30     22.98      0.00
    4    6   30     22.91      0.00
    5    6   30    -82.45      0.00
    6    6   30      9.74      0.00
    1    7   30     -5.18      0.00
    2    7   30     19.98      0.00
    3    7   30     48.95      0.00
    4    7   30     18.40      0.00
    5    7   30    -11.30      0.00
    6    7   30    -23.39      0.00
    7    7   30    -18.10      0.00
    0    8   30    -17.13      0.00
    1    8   30     25.05      0.00
    2    8   30     -5.49      0.00
    3    8   30     21.56      0.00
    4    8   30      6.33      0.00
    5    8   30     -4.22      0.00
    6    8   30      5.46      0.00
    7    8   30    -12.32      0.00
    1    9   30    -10.39      0.00
    2    9   30    -17.30      0.00
    3    9   30    -30.52      0.00
    4    9   30      8.03      0.00
    5    9   30    -11.57      0.00
    6    9   30      8.26      0.00
    1   10   30      9.02      0.00
    2   10   30      5.48      0.00
    3   10   30    -12.17      0.00
    4   10   30      4.70      0.00
    1   11   30     -6.90      0.00
    2   11   30    -12.64      0.00
    3   11   30      4.23      0.00
    1   12   30     27.44      0.00
    2   12   30    -13.49      0.00
    0    3   31      0.20      0.00
    1    3   31     22.85      0.00
    2    3   31     14.31      0.00
    1    4   31     -5.11      0.00
    2    4   31     -8.84      0.00
    3    4   31     20.01      0.00
    0    5   31     21.38      0.00
    1    5   31    -17.17      0.00
    2    5   31     12.62      0.00
    3    5   31      2.67      0.00
    4    5   31    -99.08      0.00
    1    6   31      6.38      0.00
    2    6   31   -123.52      0.00
    3    6   31      6.07      0.00
    4    6   31     26.03      0.00
    5    6   31      6.29      0.00
    0    7   31      6.56      0.00
    1    7   31     23.60      0.00
    2    7   31     14.18      0.00
    3    7   31     15.16      0.00
    4    7   31     10.91      0.00
    5    7   31     11.26      0.00
    6    7   31      6.00      0.00
    1    8   31    -20.60      0.00
    2    8   31     -4.49      0.00
    3    8   31     -9.32      0.00
    4    8   31     -3.90      0.00
    5    8   31      5.52      0.00
    1    9   31     -3.22      0.00
    2    9   31     12.38      0.00
    3    9   31     23.81      0.00
    4    9   31     12.09      0.00
    1   10   31    -34.76      0.00
    2   10   31      5.03      0.00
    3   10   31     -7.54      0.00
    1   11   31      6.76      0.00
    2   11   31     -6.25      0.00
    0    4   32     -6.49      0.00
    1    4   32    -39.17      0.00
    2    4   32      9.97      0.00
    3    4   32     14.97      0.00
    4    4   32     13.22      0.00
    1    5   32     17.66      0.00
    2    5   32     23.63      0.00
    3    5   32     23.09      0.00
    4    5   32      0.83      0.00
    5    5   32    -14.58      0.00
    0    6   32     23.88      0.00
    1    6   32      6.12      0.00
    2    6   32    -25.16      0.00
    3    6   32      7.00      0.00
    4    6   32    -11.28      0.00
    5    6   32    -28.07      0.00
    6    6   32      1.11      0.00
    1    7   32     -2.95      0.00
    2    7   32     18.07      0.00
    3    7   32    -13.62      0.00
    4    7   32     11.88      0.00
    5    7   32     -9.71      0.00
    1    8   32    -17.86      0.00
    2    8   32    -16.40      0.00
    3    8   32      1.16      0.00
    4    8   32     21.40      0.00
    1    9   32     10.66      0.00
    2    9   32     13.07      0.00
    3    9   32     11.40      0.00
    1   10   32     -4.14      0.00
    2   10   32     15.78      0.00
    1    4   33     10.18      0.00
    2    4   33     18.20      0.00
    3    4   33     25.27      0.00
    0    5   33    -17.17      0.00
    1    5   33     26.31      0.00
    2    5   33    -11.14      0.00
    3    5   33     30.88      0.00
    4    5   33     26.40      0.00
    1    6   33     -5.02      0.00
    2    6   33    -14.10      0.00
    3    6   33    -21.41      0.00
    4    6   33    -28.43      0.00
    1    7   33     -6.75      0.00
    2    7   33     16.40      0.00
    3    7   33     11.48      0.00
    4    7   33    -14.78      0.00
    1    8   33    -19.78      0.00
    2    8   33      2.29      0.00
    3    8   33     -1.81      0.00
    1    9   33     -3.17      0.00
    2    9   33     -9.87      0.00
    1    4   34    -26.32      0.00
    1    5   34     -0.06      0.00
    2    5   34     16.58      0.00
    3    5   34     17.80      0.00
    4    5   34      5.94      0.00
    1    6   34     37.11      0.00
    2    6   34      5.63      0.00
    3    6   34    -26.02      0.00
    1    7   34     -2.28      0.00
    2    7   34      7.30      0.00
    1    8   34      2.31      0.00
    1    5   35    -14.97      0.00
    2    5   35    -15.32      0.00
    1    6   35    -12.29      0.00
    2    6   35    -12.00      0.00
    1    1    0    -51.10      0.00
    2    2    0    267.40      0.00
    3    3    0    180.26      0.00
    3    4    0     44.59      0.00
    4    4    0    -52.33      0.00
    4    5    0     35.57      0.00
    5    5    0     27.51      0.00
    5    6    0     35.40      0.00
    6    6    0     -3.01      0.00
    5    7    0    -62.57      0.00
    6    7    0     -0.56      0.00
    7    7    0    -23.78      0.00
    6    8    0    -27.44      0.00
    7    8    0      8.17      0.00
    8    8    0    -63.50      0.00
    6    9    0      8.49      0.00
    7    9    0     -6.22      0.00
    8    9    0      7.38      0.00
    9    9    0     -5.06      0.00
    6   10    0      6.95      0.00
    7   10    0     -3.73      0.00
    8   10    0      3.75      0.00
    9   10    0     19.42      0.00
   10   10    0    -39.47      0.00
    7   11    0     -6.29      0.00
    8   11    0     -6.07      0.00
    9   11    0     22.45      0.00
   10   11    0      0.69      0.00
   11   11    0    -90.15      0.00
    7   12    0    -24.37      0.00
    8   12    0      6.25      0.00
    9   12    0    -12.01      0.00
   10   12    0    -38.22      0.00
   11   12    0    -20.98      0.00
   12   12    0     19.05      0.00
    6   13    0    -36.53      0.00
    7   13    0     55.11      0.00
    8   13    0      1.51      0.00
    9   13    0     -8.20      0.00
   10   13    0     16.86      0.00
   11   13    0     17.51      0.00
   12   13    0     12.92      0.00
   13   13    0    -57.37      0.00
    0   14    0     37.87      0.00
    7   14    0    -14.79      0.00
    8   14    0      4.61      0.00
    9   14    0     21.98      0.00
   10   14    0     17.41      0.00
   11   14    0    -25.28      0.00
   12   14    0    -18.59      0.00
   13   14    0     32.67      0.00
   14   14    0     -2.25      0.00
    7   15    0      5.72      0.00
    8   15    0    -18.89      0.00
    9   15    0     12.61      0.00
   10   15    0     11.42      0.00
   11   15    0     -7.42      0.00
   12   15    0     -6.55      0.00
   13   15    0    -23.20      0.00
   14   15    0     -8.98      0.00
   15   15    0    -23.72      0.00
    8   16    0    -42.44      0.00
    9   16    0     29.86      0.00
   10   16    0      6.79      0.00
   11   16    0    -17.36      0.00
   12   16    0      1.91      0.00
   13   16    0     18.02      0.00
   14   16    0     -0.27      0.00
    8   17    0     19.02      0.00
    9   17    0    -19.25      0.00
   10   17    0    -29.07      0.00
   11   17    0     -7.52      0.00
   12   17    0      8.47      0.00
   13   17    0     37.88      0.00
    8   18    0     -9.26      0.00
    9   18    0      8.54      0.00
   10   18    0     21.52      0.00
   11   18    0     27.83      0.00
   12   18    0     12.33      0.00
    7   19    0     26.30      0.00
    8   19    0     12.62      0.00
    9   19    0      8.76      0.00
   10   19    0      8.16      0.00
    7   20    0     13.52      0.00
    8   20    0     11.14      0.00
    1   21    0     16.39      0.00
    2   21    0    -18.93      0.00
    3   21    0      1.66      0.00
    4   21    0     46.18      0.00
    5   21    0     18.83      0.00
    0    1    1   -489.56      0.00
    4    5    1     -7.96      0.00
    5    6    1      1.11      0.00
    5    7    1      3.76      0.00
    6    7    1     -5.32      0.00
    6    8    1      4.30      0.00
    7    8    1    -12.74      0.00
    6    9    1     21.35      0.00
    7    9    1     -6.09      0.00
    8    9    1      5.36      0.00
    7   10    1     -9.76      0.00
    8   10    1    -19.39      0.00
    9   10    1     18.46      0.00
    7   11    1      3.41      0.00
    8   11    1     12.09      0.00
    9   11    1     -4.31      0.00
   10   11    1    -11.79      0.00
    7   12    1     24.44      0.00
    8   12    1     -9.05      0.00
    9   12    1    -24.86      0.00
   10   12    1     -3.49      0.00
   11   12    1     29.47      0.00
    7   13    1     -7.08      0.00
    8   13    1    -21.80      0.00
    9   13    1     -8.32      0.00
   10   13    1    -24.03      0.00
   11   13    1     18.63      0.00
   12   13    1    -12.09      0.00
    8   14    1    -16.16      0.00
    9   14    1     -4.99      0.00
   10   14    1      4.77      0.00
   11   14    1    -10.21      0.00
   12   14    1     -4.01      0.00
   13   14    1     22.62      0.00
    8   15    1     -8.68      0.00
    9   15    1      2.07      0.00
   10   15    1     -2.35      0.00
   11   15    1    -14.67      0.00
   12   15    1     30.88      0.00
   13   15    1     15.83      0.00
   14   15    1     15.34      0.00
    8   16    1     31.36      0.00
    9   16    1    -13.30      0.00
   10   16    1     -7.04      0.00
   11   16    1     -6.65      0.00
   12   16    1    -10.69      0.00
   13   16    1    -20.02      0.00
   14   16    1     -8.59      0.00
    8   17    1    -13.49      0.00
    9   17    1    -30.79      0.00
   10   17    1     17.83      0.00
   11   17    1     15.89      0.00
   12   17    1    -19.43      0.00
   13   17    1    -17.11      0.00
    8   18    1    -12.67      0.00
    9   18    1      7.49      0.00
   10   18    1     -0.27      0.00
   11   18    1      4.39      0.00
    0   19    1    -67.18      0.00
    8   19    1     13.31      0.00
    9   19    1    -11.84      0.00
   10   19    1      2.16      0.00
    7   20    1      7.13      0.00
    8   20    1     11.32      0.00
    0   21    1     77.35      0.00
    1   21    1    -64.33      0.00
    2   21    1    -24.51      0.00
    3   21    1     16.59      0.00
    4   21    1     17.95      0.00
    5   21    1     -9.58      0.00
    0    0    2    484.30      0.00
    4    4    2   -124.78      0.00
    4    5    2    -15.19      0.00
    5    5    2     -3.00      0.00
    5    6    2     -0.27      0.00
    6    6    2    -28.47      0.00
    6    7    2    -18.93      0.00
    7    7    2     20.09      0.00
    6    8    2     49.78      0.00
    7    8    2    -24.00      0.00
    8    8    2    -12.21      0.00
    7    9    2     24.85      0.00
    8    9    2    -11.04      0.00
    9    9    2      6.34      0.00
    7   10    2      4.25      0.00
    8   10    2      3.22      0.00
    9   10    2    -13.46      0.00
   10   10    2     -5.80      0.00
    7   11    2    -15.10      0.00
    8   11    2     -2.10      0.00
    9   11    2     -4.32      0.00
   10   11    2     15.28      0.00
   11   11    2     22.42      0.00
    8   12    2     -6.79      0.00
    9   12    2     10.28      0.00
   10   12    2     -2.43      0.00
   11   12    2    -17.59      0.00
   12   12    2     47.79      0.00
    7   13    2     17.17      0.00
    8   13    2      5.49      0.00
    9   13    2      1.74      0.00
   10   13    2     18.27      0.00
   11   13    2     14.04      0.00
   12   13    2      5.99      0.00
   13   13    2    -35.10      0.00
    8   14    2     13.49      0.00
    9   14    2     22.74      0.00
   10   14    2     12.36      0.00
   11   14    2    -17.09      0.00
   12   14    2     -2.80      0.00
   13   14    2     16.55      0.00
   14   14    2    -20.22      0.00
    8   15    2     -9.65      0.00
    9   15    2     20.26      0.00
   10   15    2      9.56      0.00
   11   15    2     -4.79      0.00
   12   15    2    -10.81      0.00
   13   15    2     -0.63      0.00
   14   15    2    -13.47      0.00
   15   15    2     -6.02      0.00
    8   16    2    -11.65      0.00
    9   16    2     11.72      0.00
   10   16    2     -2.36      0.00
   11   16    2     21.16      0.00
   12   16    2      3.29      0.00
   13   16    2     10.93      0.00
   14   16    2     15.79      0.00
    8   17    2     -5.43      0.00
    9   17    2     13.65      0.00
   10   17    2     -9.03      0.00
   11   17    2    -13.42      0.00
   12   17    2      4.65      0.00
   13   17    2     17.00      0.00
    8   18    2     15.28      0.00
    9   18    2     -6.25      0.00
   10   18    2     -3.89      0.00
   11   18    2     19.08      0.00
    8   19    2    -17.15      0.00
    9   19    2    -22.37      0.00
   10   19    2     -4.45      0.00
    8   20    2      4.60      0.00
    1   21    2     -3.82      0.00
    2   21    2    -16.90      0.00
    3   21    2     18.76      0.00
    4   21    2     -5.73      0.00
    5   21    2     -6.81      0.00
    6    7    3      9.19      0.00
    7    8    3      3.78      0.00
    7    9    3    -11.61      0.00
    8    9    3      8.32      0.00
    7   10    3    -16.86      0.00
    8   10    3      6.08      0.00
    9   10    3     27.33      0.00
    8   11    3     -8.66      0.00
    9   11    3      5.61      0.00
   10   11    3      3.20      0.00
    8   12    3      1.66      0.00
    9   12    3     26.37      0.00
   10   12    3     -9.52      0.00
   11   12    3     19.34      0.00
    7   13    3    -25.84      0.00
    8   13    3     22.03      0.00
    9   13    3     17.94      0.00
   10   13    3    -10.68      0.00
   11   13    3      3.06      0.00
   12   13    3     -0.87      0.00
    8   14    3    -30.01      0.00
    9   14    3    -20.15      0.00
   10   14    3     -2.66      0.00
   11   14    3      8.90      0.00
   12   14    3     -1.27      0.00
   13   14    3     19.00      0.00
    8   15    3    -20.42      0.00
    9   15    3      2.72      0.00
   10   15    3     33.90      0.00
   11   15    3    -23.28      0.00
   12   15    3     -6.21      0.00
   13   15    3     17.57      0.00
   14   15    3    -11.16      0.00
    8   16    3      6.85      0.00
    9   16    3     10.32      0.00
   10   16    3    -21.93      0.00
   11   16    3     -1.01      0.00
   12   16    3    -29.69      0.00
   13   16    3    -15.29      0.00
   14   16    3      8.41      0.00
    8   17    3    -26.41      0.00
    9   17    3     11.37      0.00
   10   17    3     10.04      0.00
   11   17    3      3.12      0.00
   12   17    3     -3.08      0.00
   13   17    3     -6.30      0.00
    8   18    3      1.72      0.00
    9   18    3    -26.50      0.00
   10   18    3     -9.41      0.00
   11   18    3     -3.66      0.00
    7   19    3     10.32      0.00
    8   19    3     17.20      0.00
    9   19    3      6.68      0.00
   10   19    3     -2.27      0.00
    7   20    3     16.31      0.00
    8   20    3      5.10      0.00
    0   21    3    -33.08      0.00
    1   21    3     23.01      0.00
    2   21    3     63.80      0.00
    3   21    3     -5.54      0.00
    4   21    3    -29.35      0.00
    6    6    4    -11.81      0.00
    7    7    4     -5.38      0.00
    7    8    4     -2.92      0.00
    8    8    4    -16.32      0.00
    7    9    4    -21.39      0.00
    8    9    4     19.58      0.00
    9    9    4    -11.67      0.00
    8   10    4     10.35      0.00
    9   10    4     24.59      0.00
   10   10    4    -20.24      0.00
    8   11    4     20.95      0.00
    9   11    4      5.95      0.00
   10   11    4      8.45      0.00
   11   11    4    -12.78      0.00
    8   12    4      3.17      0.00
    9   12    4    -12.51      0.00
   10   12    4      7.99      0.00
   11   12    4    -15.45      0.00
   12   12    4    -11.51      0.00
    8   13    4    -26.81      0.00
    9   13    4     33.25      0.00
   10   13    4     14.91      0.00
   11   13    4     -8.98      0.00
   12   13    4     -7.84      0.00
   13   13    4      2.98      0.00
    9   14    4     -0.68      0.00
   10   14    4     -8.16      0.00
   11   14    4     15.85      0.00
   12   14    4     12.37      0.00
   13   14    4      3.22      0.00
   14   14    4    -12.44      0.00
    8   15    4    -36.32      0.00
    9   15    4     -8.04      0.00
   10   15    4    -10.06      0.00
   11   15    4      8.49      0.00
   12   15    4      4.80      0.00
   13   15    4     -7.20      0.00
   14   15    4      2.88      0.00
   15   15    4      5.92      0.00
    8   16    4     -6.19      0.00
    9   16    4     11.90      0.00
   10   16    4      5.72      0.00
   11   16    4     18.75      0.00
   12   16    4     -1.71      0.00
   13   16    4      2.07      0.00
   14   16    4     16.67      0.00
    7   17    4    -11.02      0.00
    8   17    4    -22.59      0.00
    9   17    4      9.18      0.00
   10   17    4    -10.19      0.00
   11   17    4     13.32      0.00
   12   17    4      4.30      0.00
   13   17    4      9.49      0.00
    7   18    4     14.27      0.00
    8   18    4      3.98      0.00
    9   18    4      8.73      0.00
   10   18    4     -4.80      0.00
   11   18    4     18.81      0.00
    7   19    4     24.14      0.00
    8   19    4     -0.51      0.00
    9   19    4      6.14      0.00
   10   19    4     -9.87      0.00
    6   20    4     -4.70      0.00
    7   20    4    -19.81      0.00
    1   21    4     35.56      0.00
    4   21    4     -2.38      0.00
    8    9    5    -17.53      0.00
    8   10    5     -3.56      0.00
    9   10    5      7.64      0.00
    8   11    5      2.47      0.00
    9   11    5     -5.12      0.00
   10   11    5    -32.47      0.00
    9   12    5    -29.31      0.00
   10   12    5    -20.42      0.00
   11   12    5     -7.00      0.00
    8   13    5     -8.64      0.00
    9   13    5      4.45      0.00
   10   13    5     -8.32      0.00
   11   13    5     -1.57      0.00
   12   13    5    -15.71      0.00
    8   14    5    -20.76      0.00
    9   14    5      0.02      0.00
   10   14    5     31.75      0.00
   11   14    5    -20.72      0.00
   12   14    5    -15.94      0.00
   13   14    5     -3.85      0.00
    8   15    5     17.41      0.00
    9   15    5     -8.80      0.00
   10   15    5    -17.59      0.00
   11   15    5     -9.22      0.00
   12   15    5      2.93      0.00
   13   15    5      1.16      0.00
   14   15    5    -12.64      0.00
    8   16    5     -8.49      0.00
    9   16    5    -15.52      0.00
   10   16    5    -25.51      0.00
   11   16    5    -25.70      0.00
   12   16    5    -18.14      0.00
   13   16    5      2.71      0.00
   14   16    5     -0.58      0.00
    8   17    5      6.87      0.00
    9   17    5    -12.36      0.00
   10   17    5    -21.10      0.00
   11   17    5     20.96      0.00
   12   17    5     -3.86      0.00
   13   17    5     12.04      0.00
    7   18    5    -30.20      0.00
    8   18    5      2.79      0.00
    9   18    5      8.52      0.00
   10   18    5    -18.02      0.00
   11   18    5     12.24      0.00
    7   19    5    -48.41      0.00
    8   19    5      8.06      0.00
    9   19    5     26.71      0.00
    5   20    5      0.26      0.00
    6   20    5     19.72      0.00
    7   20    5      1.17      0.00
    0   21    5     -6.28      0.00
    4   21    5    -10.50      0.00
    8    8    6     11.71      0.00
    8    9    6    -26.81      0.00
    9    9    6     15.21      0.00
    9   10    6     -2.19      0.00
   10   10    6    -13.48      0.00
    9   11    6      4.87      0.00
   10   11    6    -14.61      0.00
   11   11    6    -11.12      0.00
    9   12    6     -3.16      0.00
   10   12    6     -9.13      0.00
   11   12    6      4.51      0.00
   12   12    6     -0.76      0.00
    8   13    6    -13.86      0.00
    9   13    6    -19.24      0.00
   10   13    6     -4.06      0.00
   11   13    6     28.85      0.00
   12   13    6    -12.67      0.00
   13   13    6     -8.93      0.00
    8   14    6    -24.27      0.00
    9   14    6     29.11      0.00
   10   14    6      6.36      0.00
   11   14    6     -9.44      0.00
   12   14    6      5.27      0.00
   13   14    6    -20.02      0.00
   14   14    6     13.51      0.00
    8   15    6     19.25      0.00
    9   15    6      0.51      0.00
   10   15    6    -29.47      0.00
   11   15    6      1.83      0.00
   12   15    6     24.57      0.00
   13   15    6    -15.47      0.00
   14   15    6      1.61      0.00
   15   15    6     20.74      0.00
    8   16    6    -16.53      0.00
    9   16    6     19.15      0.00
   10   16    6     22.27      0.00
   11   16    6     23.27      0.00
   12   16    6     -6.61      0.00
   13   16    6      8.08      0.00
   14   16    6     -2.96      0.00
    8   17    6    -21.43      0.00
    9   17    6     21.40      0.00
   10   17    6     -2.26      0.00
   11   17    6    -10.65      0.00
   12   17    6     16.95      0.00
    8   18    6     19.37      0.00
    9   18    6    -12.18      0.00
   10   18    6    -21.90      0.00
   11   18    6     15.65      0.00
    7   19    6      9.31      0.00
    8   19    6     -1.90      0.00
    9   19    6      3.48      0.00
    4   20    6    -28.76      0.00
    5   20    6     -9.93      0.00
    6   20    6    -20.31      0.00
    7   20    6    -21.71      0.00
    3   21    6     13.90      0.00
    9   10    7     11.84      0.00
    9   11    7     17.22      0.00
   10   11    7     20.90      0.00
    9   12    7      8.91      0.00
   10   12    7     -7.57      0.00
   11   12    7      8.24      0.00
    8   13    7     13.16      0.00
    9   13    7      0.22      0.00
   10   13    7      3.04      0.00
   11   13    7      2.05      0.00
   12   13    7     -5.97      0.00
    8   14    7    -30.90      0.00
    9   14    7     -6.51      0.00
   10   14    7     27.65      0.00
   11   14    7    -15.95      0.00
   12   14    7     -0.63      0.00
   13   14    7     19.55      0.00
    8   15    7    -30.43      0.00
    9   15    7     -5.31      0.00
   10   15    7      5.07      0.00
   11   15    7     22.31      0.00
   12   15    7     29.18      0.00
   13   15    7    -15.43      0.00
   14   15    7    -12.38      0.00
    8   16    7     46.91      0.00
    9   16    7     42.56      0.00
   10   16    7     10.02      0.00
   11   16    7      3.36      0.00
   12   16    7    -33.18      0.00
   13   16    7      2.68      0.00
    8   17    7      0.50      0.00
    9   17    7     15.02      0.00
   10   17    7      1.85      0.00
   11   17    7      4.89      0.00
   12   17    7      4.24      0.00
    8   18    7     46.69      0.00
    9   18    7     -4.22      0.00
   10   18    7    -18.85      0.00
   11   18    7     13.29      0.00
    7   19    7    -17.93      0.00
    8   19    7     14.57      0.00
    9   19    7     -0.40      0.00
    4   20    7     14.13      0.00
    5   20    7     27.89      0.00
    6   20    7     -9.38      0.00
    7   20    7      5.01      0.00
    2   21    7    -23.66      0.00
    3   21    7     18.21      0.00
    9    9    8     -7.56      0.00
    9   10    8     21.53      0.00
   10   10    8     35.25      0.00
    9   11    8     -3.84      0.00
   10   11    8    -14.59      0.00
   11   11    8      1.24      0.00
    9   12    8    -21.45      0.00
   10   12    8     -9.38      0.00
   11   12    8     16.50      0.00
   12   12    8     12.00      0.00
    8   13    8    -21.63      0.00
    9   13    8     22.15      0.00
   10   13    8      8.63      0.00
   11   13    8      5.01      0.00
   12   13    8      2.90      0.00
   13   13    8      2.59      0.00
    8   14    8     22.77      0.00
    9   14    8     11.06      0.00
   10   14    8     -8.05      0.00
   11   14    8    -11.10      0.00
   12   14    8      1.84      0.00
   13   14    8      5.94      0.00
   14   14    8     20.60      0.00
    8   15    8    -20.22      0.00
    9   15    8     -2.15      0.00
   10   15    8     -0.70      0.00
   11   15    8    -19.48      0.00
   12   15    8     25.18      0.00
   13   15    8      8.35      0.00
   14   15    8      2.81      0.00
    8   16    8    -10.59      0.00
    9   16    8    -17.63      0.00
   10   16    8     -5.93      0.00
   11   16    8     -4.75      0.00
   12   16    8      7.30      0.00
   13   16    8     18.84      0.00
    8   17    8     31.39      0.00
    9   17    8     -8.68      0.00
   10   17    8     -2.96      0.00
   11   17    8      8.81      0.00
   12   17    8    -11.60      0.00
    8   18    8    -12.02      0.00
    9   18    8    -15.20      0.00
   10   18    8     21.41      0.00
   11   18    8     -5.31      0.00
    7   19    8    -34.25      0.00
    8   19    8      2.28      0.00
    9   19    8    -14.84      0.00
    3   20    8      7.48      0.00
    4   20    8    -43.29      0.00
    5   20    8     -5.91      0.00
    6   20    8     15.86      0.00
    1   21    8     -8.77      0.00
    2   21    8     24.45      0.00
    9   10    9      4.43      0.00
    9   11    9     13.99      0.00
   10   11    9     12.41      0.00
   10   12    9    -18.50      0.00
   11   12    9    -12.94      0.00
   10   13    9     21.54      0.00
   11   13    9      2.19      0.00
   12   13    9    -21.17      0.00
    9   14    9     36.12      0.00
   10   14    9    -18.39      0.00
   11   14    9     -3.13      0.00
   12   14    9    -17.94      0.00
   13   14    9     -4.87      0.00
    9   15    9    -27.80      0.00
   10   15    9    -23.74      0.00
   11   15    9      6.07      0.00
   12   15    9     39.80      0.00
   13   15    9     -8.63      0.00
   14   15    9      4.51      0.00
    9   16    9     12.78      0.00
   10   16    9     11.93      0.00
   11   16    9    -10.52      0.00
   12   16    9     -0.44      0.00
   13   16    9     -1.01      0.00
    9   17    9     16.43      0.00
   10   17    9     -7.95      0.00
   11   17    9     18.17      0.00
   12   17    9     -4.01      0.00
    8   18    9      5.13      0.00
    9   18    9     12.55      0.00
   10   18    9      2.61      0.00
    7   19    9     12.02      0.00
    8   19    9    -17.89      0.00
    3   20    9    -43.99      0.00
    4   20    9    -34.03      0.00
    5   20    9     14.40      0.00
    6   20    9      1.29      0.00
    9   10   10     15.36      0.00
   10   10   10     14.67      0.00
    8   11   10     23.19      0.00
   10   11   10     15.07      0.00
   11   11   10    -36.54      0.00
   10   12   10      7.04      0.00
   11   12   10      7.76      0.00
   12   12   10     -7.18      0.00
   10   13   10     -0.91      0.00
   11   13   10     18.75      0.00
   12   13   10    -12.56      0.00
   13   13   10     -4.38      0.00
    9   14   10    -36.52      0.00
   10   14   10    -16.65      0.00
   11   14   10      9.62      0.00
   12   14   10      0.96      0.00
   13   14   10    -24.87      0.00
   14   14   10    -19.72      0.00
    9   15   10     14.67      0.00
   10   15   10     -8.34      0.00
   11   15   10    -36.14      0.00
   12   15   10     19.24      0.00
   13   15   10     -8.07      0.00
   14   15   10    -19.81      0.00
    9   16   10      2.79      0.00
   10   16   10     -2.39      0.00
   11   16   10     -4.96      0.00
   12   16   10    -17.59      0.00
   13   16   10      8.94      0.00
    9   17   10    -30.28      0.00
   10   17   10    -15.47      0.00
   11   17   10     -1.14      0.00
   12   17   10    -27.30      0.00
    9   18   10    -22.13      0.00
   10   18   10      5.95      0.00
    6   19   10    -19.29      0.00
    7   19   10    -13.22      0.00
    8   19   10    -21.11      0.00
    0   20   10     55.16      0.00
    1   20   10    -22.62      0.00
    3   20   10    -29.33      0.00
    4   20   10      9.17      0.00
    5   20   10     -3.69      0.00
   11   12   11     23.54      0.00
   11   13   11    -16.73      0.00
   12   13   11     -5.24      0.00
    9   14   11     40.97      0.00
   10   14   11      8.20      0.00
   11   14   11    -18.96      0.00
   12   14   11     11.26      0.00
   13   14   11     -8.14      0.00
    9   15   11     22.30      0.00
   10   15   11     10.62      0.00
   11   15   11     -4.74      0.00
   12   15   11     23.58      0.00
   13   15   11      9.46      0.00
   14   15   11      6.74      0.00
    9   16   11    -14.17      0.00
   10   16   11      9.55      0.00
   11   16   11    -24.89      0.00
   12   16   11    -15.93      0.00
   13   16   11      1.97      0.00
    9   17   11     18.39      0.00
   10   17   11     11.56      0.00
   11   17   11      6.18      0.00
    9   18   11     -3.68      0.00
   10   18   11      9.22      0.00
    6   19   11    -26.92      0.00
    7   19   11     -0.45      0.00
    8   19   11     -0.70      0.00
    1   20   11     15.28      0.00
    2   20   11     31.87      0.00
    3   20   11     22.70      0.00
    4   20   11    -20.18      0.00
    5   20   11    -20.97      0.00
   11   11   12    -11.63      0.00
   11   12   12     -7.59      0.00
   12   12   12    -12.81      0.00
   11   13   12    -36.03      0.00
   12   13   12      2.46      0.00
   13   13   12      0.68      0.00
   11   14   12     27.61      0.00
   12   14   12     -1.63      0.00
   13   14   12     -0.70      0.00
   14   14   12     -3.24      0.00
   10   15   12    -16.57      0.00
   11   15   12     11.57      0.00
   12   15   12     14.69      0.00
   13   15   12      6.57      0.00
   10   16   12      6.18      0.00
   11   16   12      0.74      0.00
   12   16   12     25.53      0.00
    9   17   12    -14.83      0.00
   10   17   12    -12.87      0.00
   11   17   12      6.14      0.00
    9   18   12     -3.24      0.00
    5   19   12     11.83      0.00
    6   19   12     18.72      0.00
    7   19   12    -14.25      0.00
    0   20   12     14.32      0.00
    1   20   12     12.70      0.00
    2   20   12      0.70      0.00
    3   20   12    -11.72      0.00
    4   20   12     -4.47      0.00
    5   12   13    -11.97      0.00
   11   12   13     17.54      0.00
   11   13   13      8.41      0.00
   12   13   13     56.36      0.00
   11   14   13     16.05      0.00
   12   14   13    -24.47      0.00
   13   14   13    -13.75      0.00
    9   15   13      0.68      0.00
   10   15   13     13.53      0.00
   11   15   13     -2.37      0.00
   12   15   13     13.84      0.00
   13   15   13     -4.89      0.00
    7   16   13    -29.74      0.00
   10   16   13    -22.92      0.00
   11   16   13     -7.28      0.00
   12   16   13      9.58      0.00
   10   17   13     -4.74      0.00
   11   17   13      1.23      0.00
    9   18   13    -17.39      0.00
    4   19   13    -10.02      0.00
    5   19   13     17.11      0.00
    6   19   13      9.37      0.00
    7   19   13    -32.54      0.00
    1   20   13      4.83      0.00
    2   20   13    -20.76      0.00
    3   20   13    -10.31      0.00
    8    8   14     36.80      0.00
   11   11   14     59.61      0.00
    4   12   14     -0.36      0.00
   11   12   14    -37.18      0.00
   12   12   14     -0.71      0.00
   12   13   14     -6.65      0.00
   13   13   14      4.71      0.00
   11   14   14      0.47      0.00
   12   14   14      1.93      0.00
   13   14   14      6.58      0.00
   14   14   14     -6.97      0.00
    9   15   14      6.74      0.00
   10   15   14     -1.92      0.00
   11   15   14      9.11      0.00
   12   15   14      1.50      0.00
   13   15   14    -12.32      0.00
   10   16   14    -14.15      0.00
   11   16   14     -2.68      0.00
   12   16   14      5.01      0.00
   10   17   14    -14.11      0.00
    2   19   14      8.56      0.00
    3   19   14     -6.24      0.00
    4   19   14    -16.26      0.00
    5   19   14     -7.35      0.00
    6   19   14    -17.23      0.00
    0   20   14      5.31      0.00
    1   20   14     -0.19      0.00
    7    8   15      2.08      0.00
    3   12   15    -21.84      0.00
   12   13   15      6.11      0.00
   12   14   15     16.39      0.00
   13   14   15    -19.59      0.00
    8   15   15     -8.30      0.00
    9   15   15     18.73      0.00
   10   15   15      2.85      0.00
   11   15   15    -16.70      0.00
   12   15   15     12.79      0.00
    9   16   15     -9.08      0.00
   10   16   15      0.20      0.00
   11   16   15     20.22      0.00
    9   17   15     -0.11      0.00
   10   17   15    -24.80      0.00
    8   18   15     -4.68      0.00
    0   19   15    -22.60      0.00
    1   19   15    -12.47      0.00
    2   19   15     36.57      0.00
    3   19   15      8.21      0.00
    4   19   15      8.90      0.00
    5   19   15    -22.41      0.00
    0    0   16     11.34      0.00
    7    7   16      3.51      0.00
    6    8   16      9.37      0.00
   12   12   16     -3.98      0.00
   12   13   16    -25.67      0.00
   13   13   16     12.95      0.00
   12   14   16      9.83      0.00
   13   14   16    -14.50      0.00
    7   15   16    -32.36      0.00
    8   15   16    -25.08      0.00
    9   15   16     15.02      0.00
   12   15   16     17.13      0.00
    8   16   16    -20.32      0.00
    9   16   16     -4.67      0.00
   10   16   16      8.83      0.00
   11   16   16     12.13      0.00
    8   17   16     18.43      0.00
    9   17   16    -13.48      0.00
    1   19   16     -9.10      0.00
    2   19   16     15.98      0.00
    3   19   16    -28.70      0.00
    4   19   16     13.13      0.00
    6    7   17    -11.38      0.00
    5    8   17    -18.10      0.00
    0   11   17    -39.23      0.00
   12   13   17    -13.60      0.00
   12   14   17      8.09      0.00
   13   14   17     -5.90      0.00
    6   15   17     44.07      0.00
    7   15   17    -29.59      0.00
   12   15   17      7.31      0.00
    7   16   17     16.48      0.00
    8   16   17    -39.35      0.00
    9   16   17    -10.96      0.00
   10   16   17      2.79      0.00
    7   17   17      1.82      0.00
    8   17   17     16.02      0.00
    9   17   17     20.28      0.00
    0   19   17     34.84      0.00
    1   19   17     -7.73      0.00
    2   19   17     -2.30      0.00
    3   19   17    -11.35      0.00
    0    0   18     84.91      0.00
    6    6   18     -5.11      0.00
    5    7   18      5.05      0.00
    4    8   18    -12.28      0.00
   13   13   18     19.51      0.00
   12   14   18     23.61      0.00
    5   15   18     25.74      0.00
    5   16   18    -15.11      0.00
    6   16   18     -8.70      0.00
    7   16   18    -14.00      0.00
    8   16   18     -1.82      0.00
    9   16   18    -16.83      0.00
   10   16   18    -12.97      0.00
    6   17   18     35.87      0.00
    7   17   18    -27.89      0.00
    8   17   18    -10.87      0.00
    5   18   18    -12.01      0.00
    5    6   19     -3.94      0.00
    4    7   19     -1.68      0.00
   12   14   19     13.33      0.00
    4   15   19     -0.04      0.00
    4   16   19    -13.30      0.00
    5   16   19    -24.79      0.00
    6   16   19     -6.69      0.00
    7   16   19     14.06      0.00
    8   16   19    -28.21      0.00
    9   16   19     -8.76      0.00
    5   17   19     -3.86      0.00
    6   17   19      7.38      0.00
    7   17   19      7.67      0.00
    4   18   19      4.92      0.00
    0    0   20     51.99      0.00
    5    5   20     14.77      0.00
    4    6   20      1.80      0.00
   12   13   20     14.23      0.00
   11   14   20    -14.97      0.00
   10   15   20     14.40      0.00
    3   16   20    -18.00      0.00
    4   16   20    -30.84      0.00
    5   16   20     17.44      0.00
    6   16   20     29.29      0.00
    7   16   20    -39.92      0.00
    8   16   20     -8.96      0.00
    3   17   20     32.93      0.00
    4   17   20     17.03      0.00
    5   17   20    -18.27      0.00
    6   17   20     33.46      0.00
    0   18   20    -20.06      0.00
    1   18   20    -16.28      0.00
    2   18   20     13.14      0.00
    4    5   21    -18.57      0.00
   11   13   21    -16.11      0.00
   12   13   21     -1.37      0.00
   11   14   21      9.79      0.00
    2   15   21     17.54      0.00
    2   16   21    -54.90      0.00
    3   16   21      0.18      0.00
    4   16   21     11.88      0.00
    5   16   21     -3.66      0.00
    6   16   21    -12.94      0.00
    7   16   21    -27.11      0.00
    2   17   21     20.43      0.00
    3   17   21    -12.18      0.00
    4   17   21     18.70      0.00
    5   17   21     -8.11      0.00
    0    0   22     60.32      0.00
   12   12   22     26.06      0.00
   11   13   22    -29.85      0.00
    0   14   22     60.50      0.00
   10   14   22     -6.12      0.00
    1   15   22     -9.44      0.00
    2   15   22     43.05      0.00
    1   16   22    -50.40      0.00
    2   16   22      9.39      0.00
    3   16   22    -59.48      0.00
    4   16   22      0.85      0.00
    5   16   22      2.30      0.00
    6   16   22     12.88      0.00
    1   17   22     22.44      0.00
    2   17   22     21.00      0.00
    3   17   22    -13.05      0.00
   11   12   23    -16.66      0.00
   10   13   23      3.69      0.00
    1   14   23     20.01      0.00
    9   14   23    -42.91      0.00
    0   15   23     26.53      0.00
    1   15   23      6.90      0.00
    1   16   23    -12.64      0.00
    2   16   23      6.64      0.00
    3   16   23      9.13      0.00
    4   16   23     33.51      0.00
    5   16   23    -16.31      0.00
    0    0   24    -18.64      0.00
    1    1   24    -13.21      0.00
   11   11   24     19.28      0.00
   10   12   24     16.77      0.00
   11   12   24      4.37      0.00
    9   13   24      4.76      0.00
   10   13   24      9.68      0.00
    0   14   24     13.22      0.00
    1   14   24     -4.67      0.00
    8   14   24      2.36      0.00
    1   15   24    -13.06      0.00
    6   15   24    -25.43      0.00
    0   16   24    -17.67      0.00
    1   16   24     -6.92      0.00
    2   16   24    -11.82      0.00
    3   16   24     -5.66      0.00
    4   16   24    -11.30      0.00
    0    1   25     -8.45      0.00
    0    3   25     34.08      0.00
   10   11   25    -10.70      0.00
    9   12   25     30.69      0.00
   10   12   25    -16.60      0.00
    8   13   25      6.37      0.00
    9   13   25     21.03      0.00
    1   14   25     30.14      0.00
    7   14   25     11.24      0.00
    0   15   25    -23.26      0.00
    1   15   25    -23.16      0.00
    2   15   25     -9.09      0.00
    5   15   25     -2.83      0.00
    0    0   26     19.17      0.00
    1    1   26     16.19      0.00
   10   10   26      9.45      0.00
    9   11   26     15.89      0.00
   10   11   26     -2.43      0.00
    8   12   26    -13.00      0.00
    9   12   26    -14.10      0.00
    7   13   26     28.43      0.00
    8   13   26      1.23      0.00
    0   14   26     14.08      0.00
    1   14   26    -18.60      0.00
    2   14   26      0.50      0.00
    5   14   26      1.98      0.00
    6   14   26      4.83      0.00
    1   15   26      1.30      0.00
    2   15   26    -20.78      0.00
    3   15   26    -10.65      0.00
    0    1   27     -2.22      0.00
    9   10   27    -20.37      0.00
    8   11   27     20.01      0.00
    9   11   27    -17.74      0.00
   10   11   27     14.21      0.00
    7   12   27      9.91      0.00
    8   12   27      5.84      0.00
    0   13   27    -20.84      0.00
    5   13   27      1.80      0.00
    6   13   27      1.98      0.00
    7   13   27    -19.33      0.00
    3   14   27     14.62      0.00
    4   14   27     -8.84      0.00
    5   14   27     22.28      0.00
    0    0   28     10.89      0.00
    1    1   28     54.73      0.00
    0    2   28    -19.07      0.00
    9    9   28    -20.21      0.00
    8   10   28     13.43      0.00
    9   10   28     -1.77      0.00
   10   10   28     -5.00      0.00
    7   11   28    -45.21      0.00
    8   11   28     27.74      0.00
    9   11   28     21.89      0.00
    5   12   28    -18.88      0.00
    6   12   28     10.82      0.00
    7   12   28      6.51      0.00
    3   13   28     30.12      0.00
    4   13   28     19.87      0.00
    5   13   28     -9.45      0.00
    0   14   28     -8.43      0.00
    1   14   28      7.59      0.00
    2   14   28     -9.60      0.00
    0    1   29    -33.33      0.00
    1    2   29     17.06      0.00
    8    9   29     -4.07      0.00
    7   10   29    -26.48      0.00
    8   10   29     37.38      0.00
    9   10   29     12.24      0.00
    5   11   29    -15.97      0.00
    6   11   29     17.05      0.00
    7   11   29      6.32      0.00
    4   12   29     -3.66      0.00
    5   12   29      7.39      0.00
    6   12   29     11.01      0.00
    0   13   29    -18.99      0.00
    2   13   29      4.43      0.00
    3   13   29     -5.59      0.00
    0    0   30     -0.68      0.00
    1    1   30     16.82      0.00
    0    2   30    -24.36      0.00
    1    2   30      6.92      0.00
    2    2   30    -46.53      0.00
    8    8   30      6.09      0.00
    7    9   30     -7.83      0.00
    8    9   30      9.20      0.00
    9    9   30     13.48      0.00
    0   10   30    -19.60      0.00
    5   10   30     17.16      0.00
    6   10   30     21.15      0.00
    7   10   30      8.26      0.00
    4   11   30     -5.58      0.00
    5   11   30     -7.99      0.00
    6   11   30     25.00      0.00
    0   12   30      8.93      0.00
    3   12   30    -14.14      0.00
    4   12   30     -7.81      0.00
    0    1   31    -15.30      0.00
    1    2   31      2.34      0.00
    6    8   31    -15.34      0.00
    7    8   31     -0.81      0.00
    0    9   31     40.44      0.00
    5    9   31     31.51      0.00
    6    9   31    -10.43      0.00
    7    9   31    -14.83      0.00
    4   10   31      4.07      0.00
    5   10   31     10.00      0.00
    6   10   31     -8.75      0.00
    0   11   31     12.14      0.00
    3   11   31     15.51      0.00
    4   11   31     22.05      0.00
    0    0   32     58.65      0.00
    1    1   32      6.92      0.00
    0    2   32    -13.43      0.00
    1    2   32     12.75      0.00
    2    2   32     20.06      0.00
    1    3   32     -2.00      0.00
    2    3   32     11.05      0.00
    3    3   32    -29.63      0.00
    6    7   32     33.39      0.00
    7    7   32     13.99      0.00
    0    8   32     -2.09      0.00
    5    8   32    -16.59      0.00
    6    8   32     14.35      0.00
    7    8   32      6.21      0.00
    4    9   32    -29.16      0.00
    5    9   32     -6.55      0.00
    6    9   32     -3.54      0.00
    0   10   32    -20.86      0.00
    3   10   32     17.76      0.00
    4   10   32      3.96      0.00
    0    1   33     25.46      0.00
    1    2   33     -2.96      0.00
    0    3   33     21.47      0.00
    1    3   33     35.60      0.00
    2    3   33      7.33      0.00
    5    6   33     38.26      0.00
    0    7   33     -3.03      0.00
    5    7   33     11.69      0.00
    6    7   33      7.41      0.00
    4    8   33    -10.54      0.00
    5    8   33     -3.18      0.00
    0    9   33     35.59      0.00
    3    9   33      8.39      0.00
    4    9   33    -17.30      0.00
    0    0   34      2.40      0.00
    1    1   34    -17.75      0.00
    0    2   34      4.75      0.00
    1    2   34      0.66      0.00
    2    2   34     24.83      0.00
    1    3   34     -8.41      0.00
    2    3   34    -30.35      0.00
    3    3   34    -21.48      0.00
    0    4   34    -46.33      0.00
    2    4   34    -17.70      0.00
    3    4   34    -17.34      0.00
    4    4   34    -18.45      0.00
    5    5   34    -19.25      0.00
    0    6   34     31.10      0.00
    4    6   34     -1.74      0.00
    5    6   34    -13.46      0.00
    6    6   34      0.09      0.00
    3    7   34     25.71      0.00
    4    7   34     15.57      0.00
    5    7   34    -18.22      0.00
    0    8   34    -38.29      0.00
    2    8   34     34.24      0.00
    3    8   34      0.22      0.00
    0    1   35    -26.06      0.00
    1    2   35     -0.05      0.00
    0    3   35     19.92      0.00
    1    3   35    -20.35      0.00
    2    3   35    -28.16      0.00
    1    4   35      6.93      0.00
    2    4   35      3.78      0.00
    3    4   35     -3.42      0.00
    0    5   35     20.43      0.00
    3    5   35    -16.79      0.00
    4    5   35     -1.37      0.00
    3    6   35      1.66      0.00
    4    6   35     -7.09      0.00
    0    7   35      4.47      0.00
    1    7   35    -12.43      0.00
    0    0    0      0.00      0.00
# SQUEEZE RESULTS (Version =  70515)
# Note: Data are Listed for all Voids in the P1 Unit Cell
# i.e. Centre of Gravity, Solvent Accessible Volume,
# Recovered number of Electrons in the Void and
# Details about the Squeezed Material
loop_
  _platon_squeeze_void_nr
  _platon_squeeze_void_average_x
  _platon_squeeze_void_average_y
  _platon_squeeze_void_average_z
  _platon_squeeze_void_volume
  _platon_squeeze_void_count_electrons
  _platon_squeeze_void_content
   1 -0.011  0.394 -0.003      8677      4064 ' '
# Missing Reflections Below sin(th)/lambda = 0.25
loop_
  _platon_missing_refln_index_h
  _platon_missing_refln_index_k
  _platon_missing_refln_index_l
  _platon_missing_refln_theta
    1    1    0     1.455
    2    2    0     2.910
    3    3    0     4.368
    3    4    0     5.150
    4    4    0     5.828
    4    5    0     6.600
    5    5    0     7.293
    5    6    0     8.060
    6    6    0     8.762
    5    7    0     8.883
    6    7    0     9.526
    0    1    1     1.190
    4    5    1     6.628
    5    6    1     8.082
    5    7    1     8.904
    6    7    1     9.546
    0    0    2     1.197
    4    4    2     5.951
    4    5    2     6.709
    5    5    2     7.391
    5    6    2     8.149
    6    6    2     8.844
    6    7    2     9.603
    6    7    3     9.697
    6    6    4     9.088
    0    0   16     9.624
_platon_squeeze_void_probe_radius                  1.20
_platon_squeeze_details
)
TITL g2yy_4xnewP 4/m n c    R = 0.33
CELL   19.1880   19.1880   32.9640     90.00     90.00     90.00
SPGR P4/mnc
# Solvent Accessible Volume =    8749.8
# Electrons Found in S.A.V. =    3988.7
# Note: Atoms in Void as Cxxx and Qxxx all others
C101 0.890 0.484 0.001 !       3.68 eA-3
C102 0.200 0.344 0.001 !       3.46 eA-3
C103 0.373 0.403 0.260 !       3.44 eA-3
C104 0.450 0.312 0.000 !       3.44 eA-3
C105 0.111 0.205 0.095 !       3.25 eA-3
C106 0.708 0.716 0.139 !       3.22 eA-3
C107 0.436 0.078-0.002 !       3.11 eA-3
C108 0.807 0.656 0.063 !       3.08 eA-3
C109 0.299 0.905 0.483 !       3.05 eA-3
C110 0.047 0.391 0.503 !       3.04 eA-3
C111 0.875 0.328-0.002 !       3.01 eA-3
C112 0.378 0.171 0.062 !       3.01 eA-3
C113 0.746 0.595 0.011 !       2.95 eA-3
C114 0.888 0.691 0.302 !       2.92 eA-3
C115 0.566 0.330 0.102 !       2.89 eA-3
C116 0.769 0.279 0.058 !       2.82 eA-3
C117 0.245 0.092 0.330 !       2.82 eA-3
C118 0.283 0.655 0.167 !       2.80 eA-3
C119 0.207 0.362 0.311 !       2.78 eA-3
C120 0.344 0.019 0.446 !       2.74 eA-3
C121 0.150 0.185 0.219 !       2.73 eA-3
C122 0.810 0.078 0.500 !       2.69 eA-3
C123 0.841 0.391-0.003 !       2.68 eA-3
C124 0.091 0.949 0.189 !       2.67 eA-3
Q125 0.279 0.172-0.001 !       2.67 eA-3
C126 0.976 0.075 0.484 !       2.66 eA-3
C127 0.085 0.407 0.088 !       2.63 eA-3
C128 0.970 0.965 0.251 !       2.62 eA-3
Q129 0.300 0.375 0.463 !       2.59 eA-3
Q130 0.121 0.203 0.959 !       2.58 eA-3
C131 0.956 0.136 0.295 !       2.57 eA-3
Q132 0.606 0.422 0.502 !       2.56 eA-3
C133 0.266 0.675 0.028 !       2.55 eA-3
C134 0.817 0.705 0.118 !       2.54 eA-3
C135 0.464 0.941 0.048 !       2.52 eA-3
C136 1.001 0.685 0.315 !       2.52 eA-3
C137 0.019 0.627 0.046 !       2.51 eA-3
C138 0.691 0.046 0.454 !       2.49 eA-3
C139 0.137 0.577 0.453 !       2.49 eA-3
C140 0.815 0.105 0.258 !       2.48 eA-3
C141 0.396 0.623 0.226 !       2.48 eA-3
C142 0.112 0.718 0.446 !       2.47 eA-3
Q143 0.733 0.673 0.470 !       2.47 eA-3
C144 0.107 0.830 0.375 !       2.46 eA-3
C145 0.143 0.342 0.129 !       2.45 eA-3
C146 0.137 0.456 0.410 !       2.43 eA-3
C147 0.070 0.656 0.431 !       2.43 eA-3
C148 0.764 0.717 0.151 !       2.43 eA-3
Q149 0.468 0.170 0.472 !       2.41 eA-3
C150 0.697 0.250 0.056 !       2.41 eA-3
C151 0.805 0.624 0.448 !       2.41 eA-3
C152 0.797 0.097 0.424 !       2.41 eA-3
C153 0.590 0.137 0.116 !       2.40 eA-3
C154 0.551 0.987 0.442 !       2.40 eA-3
Q155 0.907 0.656 0.274 !       2.40 eA-3
C156 0.506 0.527 0.312 !       2.39 eA-3
C157 0.246 0.860 0.103 !       2.39 eA-3
C158 0.224 0.489 0.167 !       2.39 eA-3
C159 0.857 0.534 0.468 !       2.39 eA-3
C160 0.048 0.765 0.334 !       2.38 eA-3
C161 0.761 0.206 0.098 !       2.37 eA-3
C162 0.279 0.764 0.115 !       2.36 eA-3
C163 0.393 0.641 0.134 !       2.35 eA-3
C164 0.344 0.503 0.096 !       2.34 eA-3
C165 0.255 0.780 0.292 !       2.34 eA-3
C166 0.048 0.389 0.057 !       2.34 eA-3
C167 0.794 0.905 0.353 !       2.34 eA-3
C168 0.953 0.595 0.038 !       2.34 eA-3
C169 0.475 0.591 0.247 !       2.33 eA-3
Q170 0.330 0.391 0.391 !       2.33 eA-3
C171 0.148 0.375 0.499 !       2.32 eA-3
C172 0.782 0.269 0.332 !       2.32 eA-3
C173 0.915 0.734 0.094 !       2.31 eA-3
C174 0.731 0.159 0.469 !       2.31 eA-3
C175 0.216 0.314 0.279 !       2.31 eA-3
C176 0.362 0.609 0.193 !       2.30 eA-3
C177 0.484 0.031 0.498 !       2.30 eA-3
C178 0.317 0.484-0.002 !       2.29 eA-3
C179 0.284 0.814 0.779 !       2.29 eA-3
C180 0.657 0.142 0.472 !       2.29 eA-3
C181 0.655 0.630 0.221 !       2.28 eA-3
C182 0.169 0.903 0.225 !       2.26 eA-3
C183 0.987 0.909 0.322 !       2.26 eA-3
Q184 0.284 0.047-0.001 !       2.25 eA-3
Q185 0.454 0.281 0.500 !       2.25 eA-3
Q186 0.231 0.189 0.024 !       2.23 eA-3
C187 0.123 0.548 0.484 !       2.23 eA-3
C188 0.431 0.613 0.093 !       2.23 eA-3
C189 0.902 0.378 0.018 !       2.23 eA-3
C190 1.001 0.422-0.002 !       2.22 eA-3
C191 0.843 0.799 0.418 !       2.22 eA-3
C192 0.984 0.361 0.415 !       2.22 eA-3
C193 0.999 0.469 0.054 !       2.22 eA-3
C194 0.812 0.123 0.161 !       2.21 eA-3
C195 0.674 0.168 0.353 !       2.21 eA-3
C196 0.216 0.322 0.243 !       2.20 eA-3
C197 0.651 0.278 0.308 !       2.20 eA-3
C198 0.214 0.543 0.197 !       2.20 eA-3
Q199 0.498 0.187 0.501 !       2.19 eA-3
)
;
_shelx_shelxl_version_number     2014/7
_olex2_submission_special_instructions 'No special instructions were received'
loop_
_space_group_symop_operation_xyz
'x, y, z'
'-x, -y, z'
'-y, x, z'
'y, -x, z'
'-x+1/2, y+1/2, -z+1/2'
'x+1/2, -y+1/2, -z+1/2'
'y+1/2, x+1/2, -z+1/2'
'-y+1/2, -x+1/2, -z+1/2'
'-x, -y, -z'
'x, y, -z'
'y, -x, -z'
'-y, x, -z'
'x-1/2, -y-1/2, z-1/2'
'-x-1/2, y-1/2, z-1/2'
'-y-1/2, -x-1/2, z-1/2'
'y-1/2, x-1/2, z-1/2'
loop_
_atom_site_label
_atom_site_type_symbol
_atom_site_fract_x
_atom_site_fract_y
_atom_site_fract_z
_atom_site_U_iso_or_equiv
_atom_site_adp_type
_atom_site_occupancy
_atom_site_site_symmetry_order
_atom_site_calc_flag
_atom_site_refinement_flags_posn
_atom_site_refinement_flags_adp
_atom_site_refinement_flags_occupancy
_atom_site_disorder_assembly
_atom_site_disorder_group
Zr1 Zr 0.12260(18) 0.04598(19) 0.0000 0.0177(13) Uani 1 2 d S TU P . .
Zr2 Zr 0.0000 0.0000 0.07426(12) 0.0096(16) Uani 1 4 d S TU P . .
O5 O -0.0292(7) 0.0922(7) 0.1100(4) 0.070(4) Uiso 1 1 d . U . . .
O2 O 0.1733(7) 0.0598(7) -0.0614(4) 0.084(5) Uiso 1 1 d . U . . .
O4 O 0.0368(8) 0.0843(7) 0.0364(4) 0.100(5) Uiso 1 1 d . U . . .
O3 O 0.1672(11) 0.1490(11) 0.0000 0.092(7) Uiso 1 2 d S TU P . .
O1 O 0.2241(12) -0.0184(13) 0.0000 0.126(9) Uiso 1 2 d S TU P . .
C11 C -0.0244(10) 0.4156(8) 0.2226(5) 0.092(8) Uiso 1 1 d D U . . .
C3 C -0.0434(9) 0.1977(13) 0.1704(7) 0.128(9) Uiso 1 1 d D U . . .
H3 H -0.0242 0.1541 0.1756 0.153 Uiso 1 1 calc R . . . .
C12 C -0.02780(19) 0.47220(19) 0.2500 0.086(10) Uiso 1 2 d DS TU P . .
C1 C -0.0580(8) 0.1536(13) 0.0996(7) 0.096(8) Uiso 1 1 d D U . . .
C4 C -0.0489(11) 0.2428(13) 0.2034(7) 0.137(10) Uiso 1 1 d D U . . .
H4 H -0.0377 0.2313 0.2300 0.164 Uiso 1 1 calc R . . . .
C8 C -0.0775(9) 0.3655(11) 0.2224(6) 0.096(7) Uiso 1 1 d D U . . .
C13 C 0.0356(10) 0.4111(11) 0.1923(6) 0.124(10) Uiso 1 1 d D U . . .
H13A H 0.0200 0.4270 0.1662 0.186 Uiso 1 1 calc GR . . . .
H13B H 0.0509 0.3636 0.1902 0.186 Uiso 1 1 calc GR . . . .
H13C H 0.0735 0.4397 0.2014 0.186 Uiso 1 1 calc GR . . . .
C2 C -0.0636(7) 0.2111(13) 0.1305(7) 0.124(8) Uiso 1 1 d D U . . .
C5 C -0.0740(11) 0.3081(12) 0.1907(7) 0.124(8) Uiso 1 1 d D U . . .
C7 C -0.0892(11) 0.2749(13) 0.1169(8) 0.153(10) Uiso 1 1 d D U . . .
H7 H -0.1006 0.2862 0.0903 0.184 Uiso 1 1 calc R . . . .
C9 C -0.1331(10) 0.3669(10) 0.2500 0.100(11) Uiso 1 2 d DS TU P . .
C6 C -0.0947(11) 0.3187(14) 0.1504(8) 0.146(10) Uiso 1 1 d D U . . .
H6 H -0.1153 0.3616 0.1452 0.175 Uiso 1 1 calc R . . . .
C10 C -0.1885(10) 0.3115(10) 0.2500 0.104(12) Uiso 1 2 d DS TU P . .
H10A H -0.1788 0.2781 0.2291 0.157 Uiso 0.5 1 calc R . . A -1
H10B H -0.1891 0.2884 0.2759 0.157 Uiso 0.5 1 calc R . . A -1
H10C H -0.2332 0.3325 0.2451 0.157 Uiso 0.5 1 calc R . . A -1
loop_
_atom_site_aniso_label
_atom_site_aniso_U_11
_atom_site_aniso_U_22
_atom_site_aniso_U_33
_atom_site_aniso_U_23
_atom_site_aniso_U_13
_atom_site_aniso_U_12
Zr1 0.014(3) 0.026(3) 0.013(2) 0.000 0.000 -0.006(2)
Zr2 0.014(2) 0.014(2) 0.002(3) 0.000 0.000 0.000
loop_
_atom_type_symbol
_atom_type_description
_atom_type_scat_dispersion_real
_atom_type_scat_dispersion_imag
_atom_type_scat_source
C C 0.0030 0.0010 'International Tables Vol C Tables 4.2.6.8 and 6.1.1.4'
H H 0.0000 0.0000 'International Tables Vol C Tables 4.2.6.8 and 6.1.1.4'
O O 0.0110 0.0060 'International Tables Vol C Tables 4.2.6.8 and 6.1.1.4'
Zr Zr -11.6050 0.5510 'International Tables Vol C Tables 4.2.6.8 and 6.1.1.4'
loop_
_geom_angle_atom_site_label_1
_geom_angle_atom_site_label_2
_geom_angle_atom_site_label_3
_geom_angle
_geom_angle_site_symmetry_1
_geom_angle_site_symmetry_3
Zr1 Zr1 Zr1 90.0 11 3
Zr2 Zr1 Zr1 59.57(3) . 11
Zr2 Zr1 Zr1 59.57(3) . 3
Zr2 Zr1 Zr1 59.57(3) 9 3
Zr2 Zr1 Zr1 59.57(3) 9 11
Zr2 Zr1 Zr2 88.51(12) 9 .
O2 Zr1 Zr1 110.1(4) . 3
O2 Zr1 Zr1 110.1(4) 10 3
O2 Zr1 Zr1 106.5(4) 10 11
O2 Zr1 Zr1 106.5(4) . 11
O2 Zr1 Zr2 72.1(4) . 9
O2 Zr1 Zr2 160.5(4) . .
O2 Zr1 Zr2 72.1(4) 10 .
O2 Zr1 Zr2 160.5(4) 10 9
O2 Zr1 O2 127.0(7) 10 .
O2 Zr1 O1 72.5(4) 10 .
O2 Zr1 O1 72.5(4) . .
O4 Zr1 Zr1 34.4(4) 11 11
O4 Zr1 Zr1 34.4(4) 4 11
O4 Zr1 Zr1 89.7(4) 10 11
O4 Zr1 Zr1 33.6(4) 10 3
O4 Zr1 Zr1 33.6(4) . 3
O4 Zr1 Zr1 89.7(4) . 11
O4 Zr1 Zr1 89.7(4) 4 3
O4 Zr1 Zr1 89.7(4) 11 3
O4 Zr1 Zr2 88.5(4) 11 .
O4 Zr1 Zr2 88.5(4) 4 9
O4 Zr1 Zr2 87.8(4) 10 .
O4 Zr1 Zr2 35.4(4) 11 9
O4 Zr1 Zr2 35.8(4) . .
O4 Zr1 Zr2 35.8(4) 10 9
O4 Zr1 Zr2 35.4(4) 4 .
O4 Zr1 Zr2 87.8(4) . 9
O4 Zr1 O2 138.0(6) 11 10
O4 Zr1 O2 77.9(5) . 10
O4 Zr1 O2 77.9(5) 10 .
O4 Zr1 O2 74.4(5) 11 .
O4 Zr1 O2 141.5(5) 10 10
O4 Zr1 O2 74.4(5) 4 10
O4 Zr1 O2 138.0(6) 4 .
O4 Zr1 O2 141.5(5) . .
O4 Zr1 O4 107.7(7) 4 10
O4 Zr1 O4 68.9(8) 11 4
O4 Zr1 O4 71.2(7) 11 10
O4 Zr1 O4 71.2(7) 4 .
O4 Zr1 O4 107.7(7) 11 .
O4 Zr1 O4 67.3(8) . 10
O4 Zr1 O3 145.5(4) 4 .
O4 Zr1 O3 145.5(4) 11 .
O4 Zr1 O1 145.5(4) . .
O4 Zr1 O1 83.8(6) 11 .
O4 Zr1 O1 145.5(4) 10 .
O4 Zr1 O1 83.8(6) 4 .
O3 Zr1 Zr1 178.9(6) . 11
O3 Zr1 Zr1 88.9(6) . 3
O3 Zr1 Zr2 119.8(3) . .
O3 Zr1 Zr2 119.8(3) . 9
O3 Zr1 O2 73.8(4) . 10
O3 Zr1 O2 73.8(4) . .
O3 Zr1 O4 89.4(6) . 10
O3 Zr1 O4 89.4(6) . .
O3 Zr1 O1 99.0(8) . .
O1 Zr1 Zr1 82.1(6) . 11
O1 Zr1 Zr1 172.0(6) . 3
O1 Zr1 Zr2 115.6(4) . 9
O1 Zr1 Zr2 115.6(4) . .
Zr1 Zr2 Zr1 91.49(12) 11 3
Zr1 Zr2 Zr1 60.85(7) 9 11
Zr1 Zr2 Zr1 91.49(12) 9 .
Zr1 Zr2 Zr1 60.85(7) 11 .
Zr1 Zr2 Zr1 60.85(7) 9 3
Zr1 Zr2 Zr1 60.86(7) 3 .
O5 Zr2 Zr1 113.9(4) 3 11
O5 Zr2 Zr1 110.0(3) . .
O5 Zr2 Zr1 167.9(4) 2 3
O5 Zr2 Zr1 167.9(4) . 11
O5 Zr2 Zr1 110.0(3) 3 3
O5 Zr2 Zr1 113.9(4) 2 .
O5 Zr2 Zr1 110.0(3) 2 9
O5 Zr2 Zr1 76.7(3) 2 11
O5 Zr2 Zr1 113.9(4) 4 3
O5 Zr2 Zr1 76.7(3) 4 .
O5 Zr2 Zr1 110.0(3) 4 11
O5 Zr2 Zr1 167.9(4) 4 9
O5 Zr2 Zr1 76.7(3) . 3
O5 Zr2 Zr1 113.9(4) . 9
O5 Zr2 Zr1 76.7(4) 3 9
O5 Zr2 Zr1 167.9(4) 3 .
O5 Zr2 O5 73.3(3) . 4
O5 Zr2 O5 73.3(3) 4 2
O5 Zr2 O5 73.3(3) 3 2
O5 Zr2 O5 115.2(7) 4 3
O5 Zr2 O5 115.2(7) . 2
O5 Zr2 O5 73.3(3) . 3
O4 Zr2 Zr1 91.0(4) . 11
O4 Zr2 Zr1 91.0(4) 3 .
O4 Zr2 Zr1 34.7(4) 2 11
O4 Zr2 Zr1 90.2(4) 2 .
O4 Zr2 Zr1 35.9(4) . .
O4 Zr2 Zr1 35.9(4) 4 11
O4 Zr2 Zr1 35.9(4) 2 9
O4 Zr2 Zr1 34.7(4) 3 9
O4 Zr2 Zr1 90.2(4) . 9
O4 Zr2 Zr1 34.7(4) 4 .
O4 Zr2 Zr1 34.7(4) . 3
O4 Zr2 Zr1 91.0(4) 2 3
O4 Zr2 Zr1 35.9(4) 3 3
O4 Zr2 Zr1 90.2(4) 3 11
O4 Zr2 Zr1 91.0(4) 4 9
O4 Zr2 Zr1 90.2(4) 4 3
O4 Zr2 O5 146.0(5) 4 3
O4 Zr2 O5 81.7(5) . 4
O4 Zr2 O5 81.7(5) 3 .
O4 Zr2 O5 77.9(5) 2 2
O4 Zr2 O5 146.0(5) 2 .
O4 Zr2 O5 139.7(5) 2 4
O4 Zr2 O5 146.0(5) . 2
O4 Zr2 O5 139.7(5) . 3
O4 Zr2 O5 77.9(5) . .
O4 Zr2 O5 81.7(5) 4 2
O4 Zr2 O5 81.7(5) 2 3
O4 Zr2 O5 77.9(5) 3 3
O4 Zr2 O5 139.7(5) 4 .
O4 Zr2 O5 77.9(5) 4 4
O4 Zr2 O5 139.7(5) 3 2
O4 Zr2 O5 146.0(5) 3 4
O4 Zr2 O4 70.5(4) 2 3
O4 Zr2 O4 70.5(4) 4 .
O4 Zr2 O4 70.5(4) 2 4
O4 Zr2 O4 70.5(4) 3 .
O4 Zr2 O4 109.5(8) 2 .
O4 Zr2 O4 109.5(8) 3 4
C1 O5 Zr2 132.4(13) . .
C1 O2 Zr1 137.0(15) 11 .
Zr1 O4 Zr1 111.9(6) 3 .
Zr1 O4 Zr2 109.9(7) 3 .
Zr2 O4 Zr1 108.3(6) . .
C12 C11 C13 119.8(13) . .
C8 C11 C12 119.8(16) . .
C8 C11 C13 120.4(12) . .
C4 C3 H3 116.6 . .
C4 C3 C2 127(2) . .
C2 C3 H3 116.6 . .
C11 C12 C11 118.6(15) . 7_455
C11 C12 C12 120.7(8) . 8
C11 C12 C12 120.7(8) 7_455 8
O5 C1 C2 120(2) . .
O2 C1 O5 120.2(19) 12 .
O2 C1 C2 116(2) 12 .
C3 C4 H4 124.8 . .
C3 C4 C5 110(2) . .
C5 C4 H4 124.8 . .
C11 C8 C5 118.0(14) . .
C11 C8 C9 122(2) . .
C9 C8 C5 119.6(16) . .
C11 C13 H13A 109.5 . .
C11 C13 H13B 109.5 . .
C11 C13 H13C 109.5 . .
H13A C13 H13B 109.5 . .
H13A C13 H13C 109.5 . .
H13B C13 H13C 109.5 . .
C3 C2 C1 119(2) . .
C7 C2 C3 124(3) . .
C7 C2 C1 117(2) . .
C4 C5 C8 117(2) . .
C6 C5 C4 120(2) . .
C6 C5 C8 122(2) . .
C2 C7 H7 126.2 . .
C6 C7 C2 108(3) . .
C6 C7 H7 126.2 . .
C8 C9 C8 117(3) 7_455 .
C8 C9 C10 121.6(14) . .
C8 C9 C10 121.6(14) 7_455 .
C5 C6 H6 115.0 . .
C7 C6 C5 130(3) . .
C7 C6 H6 115.0 . .
C9 C10 H10A 109.5 . .
C9 C10 H10B 109.5 . .
C9 C10 H10C 109.5 . .
H10A C10 H10B 109.5 . .
H10A C10 H10C 109.5 . .
H10B C10 H10C 109.5 . .
loop_
_geom_bond_atom_site_label_1
_geom_bond_atom_site_label_2
_geom_bond_distance
_geom_bond_site_symmetry_2
Zr1 Zr1 3.553(5) 3
Zr1 Zr1 3.553(5) 11
Zr1 Zr2 3.508(4) 9
Zr1 Zr2 3.508(4) .
Zr1 O2 2.261(14) .
Zr1 O2 2.261(14) 10
Zr1 O4 2.122(14) 4
Zr1 O4 2.122(14) 11
Zr1 O4 2.166(14) .
Zr1 O4 2.166(14) 10
Zr1 O3 2.15(2) .
Zr1 O1 2.31(2) .
Zr2 Zr1 3.508(4) 9
Zr2 Zr1 3.508(4) 11
Zr2 Zr1 3.508(4) 3
Zr2 O5 2.198(13) 2
Zr2 O5 2.198(13) 4
Zr2 O5 2.198(13) 3
Zr2 O5 2.198(13) .
Zr2 O4 2.162(14) 4
Zr2 O4 2.162(14) 3
Zr2 O4 2.162(14) .
Zr2 O4 2.162(14) 2
O5 C1 1.35(2) .
O2 C1 1.32(2) 11
O4 Zr1 2.122(14) 3
C11 C12 1.413(9) .
C11 C8 1.402(9) .
C11 C13 1.526(9) .
C3 H3 0.9300 .
C3 C4 1.392(10) .
C3 C2 1.397(10) .
C12 C11 1.413(9) 7_455
C12 C12 1.509(10) 8
C1 O2 1.32(2) 12
C1 C2 1.503(10) .
C4 H4 0.9300 .
C4 C5 1.406(10) .
C8 C5 1.518(9) .
C8 C9 1.402(9) .
C13 H13A 0.9600 .
C13 H13B 0.9600 .
C13 H13C 0.9600 .
C2 C7 1.392(10) .
C5 C6 1.404(10) .
C7 H7 0.9300 .
C7 C6 1.390(10) .
C9 C8 1.402(9) 7_455
C9 C10 1.504(10) .
C6 H6 0.9300 .
C10 H10A 0.9600 .
C10 H10B 0.9600 .
C10 H10C 0.9600 .
loop_
_geom_torsion_atom_site_label_1
_geom_torsion_atom_site_label_2
_geom_torsion_atom_site_label_3
_geom_torsion_atom_site_label_4
_geom_torsion
_geom_torsion_site_symmetry_1
_geom_torsion_site_symmetry_4
Zr2 O5 C1 O2 -15(2) . 12
Zr2 O5 C1 C2 -172.1(7) . .
O5 C1 C2 C3 -4.9(12) . .
O5 C1 C2 C7 175.4(15) . .
O2 C1 C2 C3 -162.7(15) 12 .
O2 C1 C2 C7 17.6(14) 12 .
C11 C8 C5 C4 101(2) . .
C11 C8 C5 C6 -79(3) . .
C11 C8 C9 C8 1.8(16) . 7_455
C11 C8 C9 C10 -178.2(16) . .
C3 C4 C5 C8 -175.0(14) . .
C3 C4 C5 C6 5(3) . .
C3 C2 C7 C6 -3.8(18) . .
C12 C11 C8 C5 176.3(18) . .
C12 C11 C8 C9 -3(3) . .
C1 C2 C7 C6 175.9(11) . .
C4 C3 C2 C1 -175.6(12) . .
C4 C3 C2 C7 4.1(19) . .
C4 C5 C6 C7 -7(3) . .
C8 C11 C12 C11 1.7(15) . 7_455
C8 C11 C12 C12 -178.3(15) . 8
C8 C5 C6 C7 173.4(18) . .
C13 C11 C12 C11 179(2) . 7_455
C13 C11 C12 C12 -1(2) . 8
C13 C11 C8 C5 -1(3) . .
C13 C11 C8 C9 179.0(18) . .
C2 C3 C4 C5 -4(2) . .
C2 C7 C6 C5 5(3) . .
C5 C8 C9 C8 -178(2) . 7_455
C5 C8 C9 C10 2(2) . .
C9 C8 C5 C4 -79(3) . .
C9 C8 C5 C6 101(2) . .
