#------------------------------------------------------------------------------
#$Date: 2019-11-25 16:51:28 +0200 (Mon, 25 Nov 2019) $
#$Revision: 241373 $
#$URL: file:///home/coder/svn-repositories/cod/cif/4/13/10/4131070.cif $
#------------------------------------------------------------------------------
#
# This file is available in the Crystallography Open Database (COD),
# http://www.crystallography.net/
#
# All data on this site have been placed in the public domain by the
# contributors.
#
data_4131070
loop_
_publ_author_name
'Taylor, Mercedes K.'
'Run\<cevski, Tom\<ce'
'Oktawiec, Julia'
'Gonzalez, Miguel I.'
'Siegelman, Rebecca L.'
'Mason, Jarad A.'
'Ye, Jinxing'
'Brown, Craig M.'
'Long, Jeffrey R.'
_publ_section_title
;
 Tuning the Adsorption-Induced Phase Change in the Flexible Metal-Organic
 Framework Co(bdp).
;
_journal_issue                   45
_journal_name_full               'Journal of the American Chemical Society'
_journal_page_first              15019
_journal_page_last               15026
_journal_paper_doi               10.1021/jacs.6b09155
_journal_volume                  138
_journal_year                    2016
_chemical_formula_moiety         'C12 H7 Co F N4'
_chemical_formula_sum            'C12 H7 Co F N4'
_chemical_formula_weight         285.15
_chemical_name_common            Co(F-bdp)
_space_group_crystal_system      tetragonal
_space_group_IT_number           95
_space_group_name_Hall           'P 4cw 2c'
_space_group_name_H-M_alt        'P 43 2 2'
_atom_sites_solution_hydrogens   geom
_atom_sites_solution_primary     direct
_atom_sites_solution_secondary   difmap
_audit_creation_date             2016-06-06
_audit_creation_method
;
Olex2 1.2
(compiled Feb 16 2016 13:09:46 for OlexSys, GUI svn.r5155)
;
_cell_angle_alpha                90
_cell_angle_beta                 90
_cell_angle_gamma                90
_cell_formula_units_Z            4
_cell_length_a                   13.3100(5)
_cell_length_b                   13.3100(5)
_cell_length_c                   13.9569(6)
_cell_measurement_reflns_used    9972
_cell_measurement_temperature    100(2)
_cell_measurement_theta_max      27.862
_cell_measurement_theta_min      2.306
_cell_volume                     2472.55(17)
_computing_cell_refinement       'SAINT v8.34A (Bruker, 2013)'
_computing_data_collection       'Bruker APEX2'
_computing_data_reduction        'SAINT v8.34A (Bruker, 2013)'
_computing_molecular_graphics    'Olex2 (Dolomanov et al., 2009)'
_computing_publication_material  'Olex2 (Dolomanov et al., 2009)'
_computing_structure_refinement  'ShelXL (Sheldrick, 2015)'
_computing_structure_solution    'ShelXT (Sheldrick, 2015)'
_diffrn_ambient_temperature      100
_diffrn_detector_area_resol_mean 10.42
_diffrn_measured_fraction_theta_full 0.999
_diffrn_measured_fraction_theta_max 0.999
_diffrn_measurement_device_type  'Bruker PHOTON100 CMOS diffractometer'
_diffrn_measurement_method       '\f and \w shutterless scans'
_diffrn_radiation_monochromator  'channel-cut Si(111) crystal'
_diffrn_radiation_type           synchrotron
_diffrn_radiation_wavelength     0.7749
_diffrn_reflns_av_R_equivalents  0.0715
_diffrn_reflns_av_unetI/netI     0.0293
_diffrn_reflns_Laue_measured_fraction_full 0.999
_diffrn_reflns_Laue_measured_fraction_max 0.999
_diffrn_reflns_limit_h_max       16
_diffrn_reflns_limit_h_min       -16
_diffrn_reflns_limit_k_max       16
_diffrn_reflns_limit_k_min       -16
_diffrn_reflns_limit_l_max       16
_diffrn_reflns_limit_l_min       -16
_diffrn_reflns_number            31060
_diffrn_reflns_point_group_measured_fraction_full 1.000
_diffrn_reflns_point_group_measured_fraction_max 1.000
_diffrn_reflns_theta_full        27.706
_diffrn_reflns_theta_max         27.818
_diffrn_reflns_theta_min         2.305
_diffrn_source                   'Advanced Light Source station 11.3.1'
_exptl_absorpt_coefficient_mu    0.877
_exptl_absorpt_correction_T_max  0.983
_exptl_absorpt_correction_T_min  0.927
_exptl_absorpt_correction_type   multi-scan
_exptl_absorpt_process_details
;
SADABS-2014/5 (Bruker,2014) was used for absorption correction.
wR2(int) was 0.1369 before and 0.0694 after correction.
The Ratio of minimum to maximum transmission is 0.9267.
The \l/2 correction factor is Not present.
;
_exptl_crystal_colour            violet
_exptl_crystal_colour_primary    violet
_exptl_crystal_density_diffrn    0.766
_exptl_crystal_density_method    'not measured'
_exptl_crystal_description       block
_exptl_crystal_F_000             572
_exptl_crystal_size_max          0.1
_exptl_crystal_size_mid          0.02
_exptl_crystal_size_min          0.02
_refine_diff_density_max         0.300
_refine_diff_density_min         -0.365
_refine_diff_density_rms         0.050
_refine_ls_abs_structure_details
;
 Refined as an inversion twin.
;
_refine_ls_abs_structure_Flack   0.45(3)
_refine_ls_extinction_method     none
_refine_ls_goodness_of_fit_ref   1.116
_refine_ls_hydrogen_treatment    constr
_refine_ls_matrix_type           full
_refine_ls_number_parameters     99
_refine_ls_number_reflns         2271
_refine_ls_number_restraints     0
_refine_ls_restrained_S_all      1.116
_refine_ls_R_factor_all          0.0363
_refine_ls_R_factor_gt           0.0297
_refine_ls_shift/su_max          0.000
_refine_ls_shift/su_mean         0.000
_refine_ls_structure_factor_coef Fsqd
_refine_ls_weighting_details
'w=1/[\s^2^(Fo^2^)+(0.0442P)^2^+0.7495P] where P=(Fo^2^+2Fc^2^)/3'
_refine_ls_weighting_scheme      calc
_refine_ls_wR_factor_gt          0.0816
_refine_ls_wR_factor_ref         0.0844
_reflns_Friedel_coverage         0.670
_reflns_Friedel_fraction_full    1.000
_reflns_Friedel_fraction_max     1.000
_reflns_number_gt                2050
_reflns_number_total             2271
_reflns_threshold_expression     'I > 2\s(I)'
_cod_data_source_file            ja6b09155_si_003.cif
_cod_data_source_block           mkt004s_sq
_cod_original_cell_volume        2472.6(2)
_cod_database_code               4131070
_shelx_space_group_comment
;
The symmetry employed for this shelxl refinement is uniquely defined
by the following loop, which should always be used as a source of
symmetry information in preference to the above space-group names.
They are only intended as comments.
;
_shelx_estimated_absorpt_t_max   0.983
_shelx_estimated_absorpt_t_min   0.917
_olex2_refinement_description
;
1. Twinned data refinement
 Scales: 0.55(4) 0.45(4)
2. Fixed Uiso
 At 1.2 times of:
  All C(H) groups
3. Others
 Fixed Sof: H5(0.75) H4(0.75) F2(0.25) F1(0.25)
4.a Aromatic/amide H refined with riding coordinates:
 C1(H1), C8(H8), C5(H5), C4(H4)
;
_shelx_res_file
;
    mkt004s_sq.res created by SHELXL-2014/7

TITL mkt004s_a.res in P4(3)22
REM Old TITL MKT004S in P4322 #95
REM SHELXT solution in P4(3)22
REM R1 0.172, Rweak 0.023, Alpha 0.014, Orientation as input
REM Flack x = 0.453 ( 0.012 ) from Parsons' quotients
REM Formula found by SHELXT: C12 N4 O2 Co
CELL 0.7749 13.31 13.31 13.9569 90 90 90
ZERR 4 0.0005 0.0005 0.0006 0 0 0
LATT -1
SYMM -X,-Y,0.5+Z
SYMM -Y,+X,0.75+Z
SYMM +Y,-X,0.25+Z
SYMM -X,+Y,-Z
SYMM +X,-Y,0.5-Z
SYMM +Y,+X,0.25-Z
SYMM -Y,-X,0.75-Z
SFAC C H Co F N
DISP C 0.004 0.002 13.872
DISP Co 0.355 1.13 5089.307
DISP F 0.022 0.013 65.454
DISP H -0 0 0.627
DISP N 0.008 0.004 24.297
UNIT 48 28 4 4 16

L.S. 100 0 50
PLAN  20
SIZE 0.02 0.02 0.1
TEMP -173.15
BOND $H
MORE -1
CONF
ABIN
fmap 2 53
acta
TWIN -1 0 0 0 -1 0 0 0 -1 2
REM <olex2.extras>
REM <HklSrc "%./mkt004s_sq.hkl">
REM </olex2.extras>

WGHT    0.044200    0.749500
BASF   0.45441
FVAR       0.39398
CO1   3    0.980281    0.980281    0.625000    10.50000    0.01520    0.01520 =
         0.01763   -0.00071    0.00071   -0.00008
N1    5    0.981218    0.858295    0.545773    11.00000    0.02614    0.01866 =
         0.01823    0.00093    0.00009    0.00124
N2    5    1.017459    0.102795    0.454634    11.00000    0.03322    0.01420 =
         0.02254    0.00185    0.00531   -0.00060
C1    1    0.969951    0.762544    0.572564    11.00000    0.04008    0.01568 =
         0.02069    0.00397    0.00270   -0.00267
AFIX  43
H1    2    0.944781    0.741728    0.633085    11.00000   -1.20000
AFIX   0
C7    1    1.000000    0.262604    0.500000    10.50000    0.04367    0.01046 =
         0.02782    0.00000   -0.00037    0.00000
C2    1    1.000000    0.697366    0.500000    10.50000    0.03014    0.02166 =
         0.02563    0.00000    0.00191    0.00000
C8    1    1.026895    0.199259    0.427390    11.00000    0.06072    0.01414 =
         0.02903    0.00272    0.00969   -0.00158
AFIX  43
H8    2    1.049232    0.220464    0.365987    11.00000   -1.20000
AFIX   0
C6    1    1.000000    0.373906    0.500000    10.50000    0.04961    0.01642 =
         0.03373    0.00000   -0.00071    0.00000
C3    1    1.000000    0.588182    0.500000    10.50000    0.06167    0.01074 =
         0.02777    0.00000    0.01005    0.00000
C5    1    1.028730    0.428431    0.420690    11.00000    0.08073    0.01313 =
         0.02998   -0.00325    0.01413    0.00462
PART 1
AFIX  43
H5    2    1.049327    0.393608    0.364615    10.75000   -1.20000
AFIX   0
PART 0
C4    1    1.028485    0.533033    0.420257    11.00000    0.08861    0.02130 =
         0.02532    0.00407    0.01604    0.00304
PART 2
AFIX  43
H4    2    1.048380    0.567543    0.363777    10.75000   -1.20000
AFIX   0
F2    4    1.061082    0.382497    0.335544    10.25000    0.13261    0.01122 =
         0.04258    0.00102    0.04664    0.01647
PART 0
PART 1
F1    4    1.054512    0.575950    0.339309    10.25000    0.26768    0.02767 =
         0.04004   -0.00027    0.06424   -0.01635
HKLF 4

REM  mkt004s_a.res in P4(3)22
REM R1 =  0.0297 for    2050 Fo > 4sig(Fo)  and  0.0363 for all    2271 data
REM     99 parameters refined using      0 restraints

END

WGHT      0.0442      0.7493

REM Highest difference peak  0.300,  deepest hole -0.365,  1-sigma level  0.050
Q1    1   0.9039  0.9645  0.6267  11.00000  0.05    0.30
Q2    1   1.0241  0.9356  0.5452  11.00000  0.05    0.26
Q3    1   1.0446  0.9244  0.5587  11.00000  0.05    0.25
Q4    1   1.0000  0.3171  0.5000  10.50000  0.05    0.23
Q5    1   0.9797  0.9828  0.6901  11.00000  0.05    0.22
Q6    1   1.1340  0.3438  0.2559  11.00000  0.05    0.20
Q7    1   1.0708  0.9292  0.5727  11.00000  0.05    0.20
Q8    1   1.0559  0.9687  0.6267  11.00000  0.05    0.19
Q9    1   0.9656  0.0349  0.4412  11.00000  0.05    0.19
Q10   1   0.8805  0.8667  0.5379  11.00000  0.05    0.18
Q11   1   0.9152  0.8851  0.4811  11.00000  0.05    0.18
Q12   1   1.1229  0.1297  0.3312  11.00000  0.05    0.18
Q13   1   1.0000  0.6482  0.5000  10.50000  0.05    0.18
Q14   1   1.0542  0.0404  0.4476  11.00000  0.05    0.18
Q15   1   1.0742  0.0567  0.4279  11.00000  0.05    0.17
Q16   1   1.0000  0.1028  0.5000  10.50000  0.05    0.17
Q17   1   1.0236  0.3217  0.2371  11.00000  0.05    0.17
Q18   1   1.0181  0.1444  0.4357  11.00000  0.05    0.17
Q19   1   0.9246  0.1179  0.4458  11.00000  0.05    0.16
Q20   1   0.8489  0.8203  0.6326  11.00000  0.05    0.16
;
_shelx_res_checksum              63417
_shelx_hkl_file
;
   1  -1   0 1146.59   29.40
   1  -1   0 1098.39   29.10
   1   1   0 1142.49   29.90
  -1  -1   0 1191.68   29.10
  -1   1   0 1198.68   29.60
  -1  -1   0 1134.79   30.10
   1   1   0 1161.88   29.20
   0   2   0 2402.76   59.89
   2   0   0 2302.37   59.29
   0   2   0 2358.86   58.99
  -2   0   0 2288.17   59.79
  -2   0   0 2340.07   59.19
   0   2   0 2410.16   59.89
   2   0   0 2363.76   59.49
   0  -2   0 2296.37   59.49
   2   0   0 2343.37   59.99
  -1  -2   0 1262.47   33.20
   2  -1   0 1272.87   32.80
   1   2   0 1327.87   33.70
  -2  -1   0 1315.37   32.60
  -1   2   0 1302.87   33.50
   1   2   0 1331.57   32.50
   1  -2   0 1266.17   32.90
   1  -2   0 1247.58   32.60
  -2   1   0 1282.87   32.80
   2  -1   0 1278.77   32.90
  -1  -2   0 1289.97   33.60
  -2  -1   0 1252.67   33.20
  -1   2   0 1279.17   32.50
   2   1   0 1278.77   32.70
  -2   1   0 1304.47   33.10
  -1  -2   0 1362.36   32.90
  -2  -1   0 1239.08   33.50
  -1   2   0 1231.28   32.80
   2  -1   0 1226.18   32.50
   2   1   0 1287.17   33.80
  -2   2   0 2079.19   53.09
   2  -2   0 2022.70   53.19
  -2  -2   0 2040.00   53.69
   2  -2   0 2079.99   53.09
  -2  -2   0 2174.38   52.89
  -2   2   0 2102.89   53.79
   2  -2   0 2035.20   52.89
   2   2   0 2059.29   54.19
  -2  -2   0 2092.99   54.09
   2   2   0 2137.39   52.99
  -3   0   0 9655.83  249.78
   3   0   0 9999.00  249.18
  -1   3   0   51.29    5.40
   3   1   0   50.29    7.10
  -3  -1   0   49.80    4.10
   1  -3   0   47.40    4.90
  -3   1   0   43.90    6.80
   3   1   0   47.20    4.50
   1   3   0   51.09    3.50
  -3   1   0   56.59    4.70
   1   3   0   49.30    5.70
  -1  -3   0   44.80    5.50
   1   3   0   56.59    6.30
  -3  -1   0   43.00    6.50
   1  -3   0   50.89    4.00
  -1  -3   0   45.20    5.30
   3  -1   0   46.20    4.20
  -3   1   0   61.79    4.70
  -3  -1   0   54.29    5.70
  -1   3   0   54.99    3.40
  -1   3   0   53.09    4.90
   3  -1   0   61.09    5.30
  -2  -3   0   29.00    4.30
   2   3   0   32.30    3.60
   3  -2   0   32.80    5.00
  -2   3   0   24.20    4.30
   3   2   0   31.90    4.40
  -3   2   0   26.70    3.50
  -3  -2   0   28.40    4.80
  -3  -2   0   32.70    3.50
  -2  -3   0   33.30    5.50
  -2   3   0   25.00    3.90
  -3   2   0   27.30    4.00
   2   3   0   29.70    4.70
   3   2   0   34.00    5.50
  -2  -3   0   33.20    5.00
   2  -3   0   27.60    3.90
   2  -3   0   33.40    4.40
   3  -2   0   30.80    3.80
   3  -2   0   31.20    4.00
   2  -3   0   25.90    3.60
  -3  -2   0   27.00    4.20
   3  -3   0  137.29    6.20
  -3  -3   0  153.38    8.10
   3  -3   0  135.99    6.90
  -3  -3   0  149.79    6.50
  -3   3   0  143.39    6.80
   3  -3   0  140.79    7.10
   3   3   0  145.09    9.10
  -3  -3   0  146.39    9.00
  -3   3   0  140.39    7.90
   3   3   0  155.88    6.60
   4   0   0 5892.11  153.38
   0   4   0 6084.89  154.38
   4   0   0 6243.48  153.58
  -4   0   0 6267.97  153.28
  -4   0   0 5852.81  156.08
   4   0   0 6037.80  154.68
   4  -1   0  268.87    9.30
  -4   1   0  264.27   12.30
  -1  -4   0  272.77   10.20
   4   1   0  270.77   12.10
  -4  -1   0  280.17   11.30
   1  -4   0  281.97   10.20
   4   1   0  278.27   10.10
   1   4   0  284.27   10.90
  -4  -1   0  262.57   11.70
  -1   4   0  275.87   10.40
  -1   4   0  305.57   11.10
  -1  -4   0  276.47   11.00
   1   4   0  291.77   11.50
  -4   1   0  282.77   10.00
   4  -1   0  288.87   10.40
  -1   4   0  269.47    8.60
   1  -4   0  293.87    9.80
  -4  -1   0  279.47    9.50
   1   4   0  284.87    8.90
   4  -2   0  128.39    6.30
   2  -4   0  128.09    6.90
   4   2   0  126.09    6.60
  -4   2   0  132.09    6.90
  -2  -4   0  143.79    7.80
   4  -2   0  125.09    7.30
  -4  -2   0  145.69    6.50
  -2   4   0  137.09    7.00
   2   4   0  133.09    8.90
  -4   2   0  129.29    7.20
  -2   4   0  128.59    7.70
  -4  -2   0  128.69    8.00
   2   4   0  140.69    6.00
   4   2   0  124.89    9.40
  -2  -4   0  134.39    8.70
  -4  -2   0  130.99    8.70
   2  -4   0  124.09    6.30
  -4  -3   0  230.28   10.60
   3   4   0  241.78   11.90
   4  -3   0  243.58    9.60
   3  -4   0  244.38    9.80
   3  -4   0  228.48    9.10
  -4   3   0  237.38   10.20
  -3  -4   0  244.08    9.20
  -4  -3   0  249.68   11.50
   4   3   0  241.78   12.00
  -4   3   0  237.18    9.30
  -3   4   0  239.68   10.40
  -4  -3   0  250.67    9.00
  -3   4   0  241.48    9.20
  -3  -4   0  247.38   11.40
   3   4   0  241.18    8.70
   4  -3   0  243.68    9.10
   3  -4   0  234.78    9.00
   4  -3   0  237.48    9.60
   4   3   0  244.38    9.30
  -3  -4   0  224.88   10.20
  -4  -4   0  134.59    9.70
   4  -4   0  130.59    7.70
   4  -4   0  139.09    7.10
  -4  -4   0  134.19    6.90
   4  -4   0  134.99    7.70
  -4   4   0  144.49    8.40
   4   4   0  136.29   10.30
   4   4   0  143.09    7.00
  -4   4   0  136.39    7.30
   0   5   0 2739.43   70.69
   0  -5   0 2731.53   71.99
   0   5   0 2754.02   72.89
  -5   0   0 2940.71   71.69
   5   0   0 2732.23   73.39
  -5   0   0 2717.93   72.79
   0   5   0 2840.52   72.89
   5   0   0 2851.11   71.89
  -1   5   0  979.10   25.90
   5   1   0  927.61   28.90
   5  -1   0  933.41   26.50
   1  -5   0  974.90   26.90
  -5   1   0  996.90   27.10
   5   1   0  998.70   27.30
  -5   1   0  926.41   28.70
  -5  -1   0 1000.10   26.80
   1   5   0  975.80   26.10
  -1  -5   0  984.90   27.50
   1   5   0  965.70   28.10
  -1  -5   0  995.30   28.20
  -5  -1   0  991.10   28.20
   5  -1   0  967.60   27.20
   1   5   0 1007.90   28.70
  -5  -1   0  940.91   28.70
   1  -5   0  976.70   27.40
  -1   5   0  993.60   27.80
  -1   5   0  996.30   28.30
  -5  -2   0  819.32   26.10
   2   5   0  889.51   25.90
  -2   5   0  760.72   26.80
  -5   2   0  889.31   25.30
   5  -2   0  920.51   25.20
   5   2   0  864.71   27.00
   2   5   0  888.21   24.00
  -5   2   0  884.11   24.70
  -5  -2   0  839.22   25.70
   2   5   0  933.61   27.10
  -2   5   0  890.21   24.00
   5  -2   0  879.31   24.40
  -2  -5   0  874.81   26.30
   2  -5   0  901.61   24.70
  -5   2   0  849.32   26.80
  -2   5   0  892.81   25.20
  -5  -2   0  907.31   24.50
   3   5   0  290.27   12.80
   5   3   0  282.87   13.90
  -5  -3   0  300.37   10.70
  -5  -3   0  274.27   12.70
  -5  -3   0  263.17   12.00
  -3  -5   0  293.67   12.90
  -3  -5   0  287.37   12.20
  -5   3   0  287.47   10.90
   5  -3   0  300.27   11.50
   5  -3   0  286.07   10.60
   3  -5   0  285.77   10.70
  -5   3   0  284.97   11.60
   5   3   0  300.87   10.80
   3   5   0  295.67   10.10
   3  -5   0  298.97   10.80
   3  -5   0  302.87   11.40
  -3   5   0  290.67   11.20
  -3   5   0  278.07   11.90
  -5  -4   0  341.47   11.70
  -5   4   0  331.07   12.10
   5   4   0  336.47   11.80
  -4  -5   0  318.77   13.50
   4   5   0  337.17   14.50
   5  -4   0  344.57   12.60
   5  -4   0  310.07   12.50
  -4   5   0  332.57   12.20
  -5   4   0  333.07   13.10
  -5  -4   0  318.17   13.70
   5   4   0  333.97   15.20
   4  -5   0  326.47   12.60
  -4  -5   0  342.37   12.00
   5  -4   0  326.27   11.80
   4  -5   0  330.37   12.10
   4  -5   0  327.37   11.90
  -5  -4   0  324.57   14.30
  -4  -5   0  352.26   14.50
  -4   5   0  320.17   13.30
  -5   5   0  133.49    9.10
  -5  -5   0  126.09    9.50
   5  -5   0  120.79    8.10
   5  -5   0  118.49    7.50
   5   5   0  131.39   11.10
  -5  -5   0  123.69   10.70
  -5  -5   0  139.59    7.90
   5   5   0  132.09    7.30
  -5   5   0  133.09    8.00
   5  -5   0  139.29    8.60
   0   6   0 1313.07   34.10
  -6   0   0 1291.87   37.00
   0   6   0 1306.97   36.60
   0  -6   0 1323.47   36.20
   6   0   0 1280.47   35.60
   6   0   0 1272.77   37.70
  -6   0   0 1313.07   35.20
   0   6   0 1134.49   37.80
   0  -6   0 1319.77   35.70
  -6  -1   0   66.29    9.00
  -1   6   0   69.99    4.60
   6  -1   0   69.29    7.30
  -6  -1   0   76.59   10.00
   6   1   0   72.09    9.80
   1   6   0   71.29    4.70
  -1   6   0   70.69    7.60
  -1  -6   0   79.59    7.60
  -1   6   0   76.39    7.70
  -6   1   0   72.79   10.30
   1   6   0   74.29    7.70
   6   1   0   64.29    6.60
  -1  -6   0   71.89    6.70
  -6  -1   0   71.89    6.40
  -6   1   0   76.49    6.40
   6  -1   0   68.99    7.00
   1  -6   0   58.49    6.60
   1  -6   0   75.19    6.30
   1   6   0   74.79    7.50
   2  -6   0    5.70    3.70
  -2  -6   0    1.90    4.10
  -6  -2   0    0.00    5.60
  -6   2   0    5.70    4.00
  -2   6   0    7.80    4.20
   2   6   0    6.50    4.90
   2   6   0    0.70    4.50
  -6   2   0    8.30    6.80
  -2   6   0    3.40    3.00
  -2   6   0    8.20    4.40
  -2  -6   0   11.60    5.10
  -6  -2   0    6.40    4.00
   2   6   0    3.40    2.70
   6   2   0   10.10    4.30
   6  -2   0    3.50    4.90
  -6  -2   0    7.30    5.90
  -6   2   0    6.00    4.20
   6   2   0    9.00    6.30
   6  -2   0    5.30    3.70
   2  -6   0    8.20    3.50
  -3  -6   0   51.79    7.80
   3   6   0   46.80    7.80
  -3  -6   0   48.30    7.70
   3   6   0   61.29    8.00
   3  -6   0   40.40    6.50
   6   3   0   53.29    8.10
  -6   3   0   52.19    6.90
   6  -3   0   39.90    5.90
   6   3   0   52.49    6.30
   3  -6   0   50.39    5.80
  -6  -3   0   48.90    7.20
   6  -3   0   49.90    7.30
  -3   6   0   52.19    7.00
  -6  -3   0   57.19    9.40
  -3   6   0   47.90    6.40
   3   6   0   54.69    5.10
  -6   3   0   55.49    8.80
  -6   3   0   41.10    6.50
   3  -6   0   46.60    6.00
  -6  -3   0   64.19    6.30
   4   6   0   11.30    5.80
   6  -4   0   16.10    5.20
   4  -6   0   19.60    4.40
  -4   6   0   17.60    4.60
  -4  -6   0   23.50    6.20
   4   6   0   13.50    3.70
  -6  -4   0   18.40    6.70
  -4   6   0   20.70    5.00
  -6  -4   0   19.20    6.00
   6   4   0   12.30    7.60
   6   4   0   14.90    5.10
  -6   4   0   18.00    6.90
   4  -6   0   16.70    4.60
  -6   4   0   15.40    4.50
  -4  -6   0   27.40    6.60
  -6  -4   0   12.30    4.40
   4  -6   0   20.20    4.80
   6  -4   0   20.20    4.40
   6   5   0   27.30    4.70
  -6  -5   0   29.80    7.30
  -6   5   0   25.20    5.00
   6  -5   0   28.50    5.80
   6   5   0   23.30    8.00
  -6  -5   0   33.20    5.20
  -6   5   0   21.90    5.30
   5  -6   0   30.10    5.40
  -5   6   0   23.30    5.80
   5  -6   0   26.70    4.90
  -5  -6   0   17.10    5.20
  -5   6   0   25.50    4.80
  -6  -5   0   34.00    7.00
  -5  -6   0   28.40    6.20
   5   6   0   36.70    7.90
   5   6   0   29.10    4.80
   6  -5   0   21.80    4.90
  -6   6   0  128.79    9.90
   6  -6   0  122.39    8.50
  -6  -6   0  133.29   11.60
   6  -6   0  131.89    9.20
  -6   6   0  134.69    8.80
  -6  -6   0  138.89    9.00
   6   6   0  119.99    8.00
  -6  -6   0  141.69   11.50
   6  -6   0  141.39   10.00
   0  -7   0 2165.68   60.49
   0  -7   0 2193.08   59.99
   0   7   0 2300.37   60.89
   0   7   0 2328.97   60.89
  -7   0   0 2285.27   60.69
   0   7   0 2213.18   57.99
   7   0   0 2261.57   62.29
  -7   0   0 2190.88   60.89
   1  -7   0  615.04   19.40
   7   1   0  612.64   19.60
   7   1   0  579.54   22.60
   7  -1   0  585.64   19.40
  -1   7   0  644.44   21.10
   1  -7   0  627.14   20.00
  -1   7   0  616.14   20.60
  -1  -7   0  608.24   20.20
   1   7   0  599.04   18.00
  -7   1   0  629.84   19.60
   1   7   0  647.04   21.30
   7  -1   0  702.63   24.20
  -7  -1   0  588.54   21.60
   1   7   0  607.64   20.80
  -7  -1   0  634.14   19.50
  -7   1   0  595.94   22.10
  -1   7   0  598.84   17.80
  -1  -7   0  587.34   20.80
  -7  -1   0  618.14   21.30
  -2   7   0  244.88   12.60
  -2  -7   0  245.78   12.00
   2   7   0  242.38   12.20
  -7  -2   0  250.37   10.70
  -7  -2   0  251.47   13.30
   7   2   0  243.68   10.80
  -7   2   0  236.18   10.90
   7   2   0  226.68   14.00
   2   7   0  236.98   12.60
   2  -7   0  243.08   10.40
  -2   7   0  240.68    9.30
  -7   2   0  249.58   11.20
  -7  -2   0  243.08   13.20
   7  -2   0  248.98   10.60
   2  -7   0  236.58   10.80
  -7   2   0  245.78   14.70
   7  -2   0  249.88   11.80
  -2  -7   0  244.38   11.20
   2   7   0  236.48    9.30
   7   3   0  332.77   16.70
   3   7   0  342.67   14.80
   7  -3   0  365.46   14.70
   7  -3   0  341.97   12.90
  -7   3   0  349.07   13.40
  -3  -7   0  348.77   14.10
  -7   3   0  347.67   14.60
   3  -7   0  329.27   12.50
  -7  -3   0  364.46   13.30
   3   7   0  288.37   13.00
   7   3   0  376.96   13.60
  -7  -3   0  345.47   15.90
   3  -7   0  365.26   13.80
   3   7   0  323.37   15.00
  -7  -3   0  330.67   15.10
  -3   7   0  353.06   14.60
   3  -7   0  356.36   13.00
  -7   3   0  339.17   17.70
   7  -4   0  259.77   16.00
   7   4   0  253.17   11.00
   4   7   0  252.67   10.20
  -4   7   0  245.78   12.30
   4   7   0  241.18   14.80
  -4   7   0  263.67   12.90
   7   4   0  260.17   15.50
   4  -7   0  242.48   11.50
  -7   4   0  251.67   11.50
  -4  -7   0  239.18   13.60
  -4  -7   0  227.08   12.40
   4  -7   0  266.57   10.90
  -7  -4   0  248.08   14.30
  -7   4   0  236.58   12.00
   7  -4   0  250.47   11.40
  -7  -4   0  252.67   11.10
  -7   4   0  242.58   16.90
   4  -7   0  246.98   11.10
   5  -7   0  166.18    9.60
  -5  -7   0  152.28   11.90
   7   5   0  165.28    9.20
   5  -7   0  175.48   10.30
   5   7   0  158.08    8.80
   5  -7   0  166.98    9.50
   7   5   0  160.78   14.30
  -7  -5   0  169.88   12.40
  -7   5   0  168.48    9.60
  -5   7   0  166.48   11.00
   5   7   0  173.48   13.40
   7  -5   0  197.68   16.60
  -7  -5   0  155.18   12.30
   7  -5   0  167.88    9.60
  -7  -5   0  178.58    9.60
  -5  -7   0  155.98   11.70
  -5   7   0  163.88    9.90
  -7   5   0  178.78   11.00
  -6   7   0  185.68   10.60
   7   6   0  168.48    9.60
   7  -6   0  184.98   10.50
   6  -7   0  177.98   10.90
   7  -6   0  175.08   10.80
  -7  -6   0  182.48   13.20
  -6  -7   0  181.68   13.00
   7  -6   0  185.28   11.20
  -7   6   0  187.58   11.60
  -6  -7   0  175.98   13.00
   6   7   0  186.18    9.80
  -7  -6   0  156.88   12.10
   6  -7   0  185.78   10.50
  -7  -6   0  174.68   12.40
   6   7   0  192.48   14.60
   7   6   0  186.38   15.30
  -6   7   0  186.78   11.80
   7   7   0  211.48   16.20
  -7   7   0  220.48   11.60
   7  -7   0  217.08   11.60
   7   7   0  231.88   11.50
   7  -7   0  224.38   13.00
   7  -7   0  215.08   11.90
  -7  -7   0  227.18   14.60
  -7  -7   0  210.28   13.50
  -7   7   0  229.08   13.00
  -7  -7   0  207.98   12.50
   0   8   0  486.25   18.20
  -8   0   0  477.55   16.80
   0   8   0  457.65   14.70
   8   0   0  450.15   20.90
  -8   0   0  463.25   19.40
   0  -8   0  473.25   16.50
   0  -8   0  461.95   16.80
   0   8   0  463.55   17.90
   8   0   0  468.25   16.80
  -8  -1   0  341.37   15.80
   8   1   0  332.07   17.90
  -1  -8   0  331.67   14.30
  -1   8   0  359.66   15.20
  -1   8   0  337.57   14.70
  -8  -1   0  339.97   13.60
  -8   1   0  353.66   16.80
  -8  -1   0  322.37   16.20
   1  -8   0  352.36   13.30
   1   8   0  363.56   15.50
   8  -1   0  334.47   14.00
  -1   8   0  341.47   11.50
   1   8   0  338.07   11.70
  -1  -8   0  332.57   13.70
   8   1   0  343.47   13.80
  -8   1   0  337.67   13.80
  -8  -2   0  290.07   15.00
  -8   2   0  295.77   13.20
  -8   2   0  282.87   16.80
  -8  -2   0  311.67   15.80
   2   8   0  292.67   11.70
   8   2   0  291.07   16.50
  -2  -8   0  291.27   13.60
  -2   8   0  305.57   14.30
  -2  -8   0  307.77   13.20
   8   2   0  318.27   13.10
   8  -2   0  275.47   13.50
   2   8   0  332.47   15.50
   8  -2   0  308.97   13.00
  -2   8   0  298.77   11.10
   2  -8   0  303.07   12.30
  -8   2   0  303.37   12.90
  -2   8   0  315.97   13.90
   2   8   0  294.17   14.00
  -8  -2   0  305.17   12.80
  -3  -8   0  154.08   10.90
   8   3   0  150.78   13.90
   8   3   0  156.78    9.80
   8  -3   0  155.38   10.30
  -3   8   0  154.08   10.60
   3   8   0  152.28   11.20
  -3   8   0  159.28   10.00
  -8   3   0  143.39   14.80
   3   8   0  157.68    8.00
   3  -8   0  148.39    8.90
  -8  -3   0  162.18   13.00
   3  -8   0  149.69    9.10
   3   8   0  146.19   10.70
  -3  -8   0  136.49    9.80
  -8  -3   0  175.68   15.10
  -8   3   0  159.58   10.00
  -8   3   0  151.58   10.00
   4  -8   0  134.79    9.10
  -8   4   0  136.69   10.10
  -8   4   0  147.59   10.10
   4  -8   0  167.48    9.10
  -4   8   0  162.98   10.30
   4   8   0  142.79    8.10
  -4  -8   0  157.98   11.40
   8  -4   0  144.29   10.30
  -8  -4   0  138.79   13.50
  -8   4   0  145.19   16.50
   4   8   0  135.49   10.90
   8   4   0  156.28   14.40
  -8  -4   0  129.79   11.90
   8  -4   0  136.39    9.30
   4   8   0  147.29   13.00
  -4   8   0  129.49   10.30
  -4  -8   0  150.88   10.80
   8   4   0  143.19    9.70
  -5   8   0   90.89    9.10
  -5  -8   0  108.59   11.60
   8  -5   0  114.99    9.80
   8   5   0   92.99    8.30
  -8   5   0  100.79    9.80
  -8   5   0  108.69   17.80
  -8   5   0  108.29    9.00
   5  -8   0  102.49    8.90
   5   8   0   92.19    7.50
   8   5   0   95.89   11.80
  -8  -5   0   94.09   12.00
   5   8   0   98.99   12.50
   8  -5   0  106.09    9.20
   5   8   0  101.79   11.10
  -5  -8   0  106.19   10.60
   5  -8   0   88.79    8.70
  -8  -5   0   91.29   11.90
   5  -8   0   89.99    9.80
  -5   8   0   91.49    9.80
  -8  -5   0   97.39    8.80
  -6   8   0   37.20    6.70
  -6   8   0   32.20    6.60
   6  -8   0   59.79    8.80
  -8  -6   0   48.20    9.80
   6  -8   0   41.80    7.00
   6  -8   0   46.10    6.80
  -8   6   0   49.80    7.60
   8  -6   0   56.59   10.80
   6   8   0   37.60    6.00
  -6  -8   0   46.70    9.20
  -6  -8   0   52.49    9.00
   6   8   0   33.70    8.20
  -8   6   0   51.39    8.60
   8  -6   0   42.10    8.60
   8   6   0   40.90    5.90
   8   6   0   39.50   10.20
  -8  -6   0   31.90    7.20
   6   8   0   51.69    9.70
  -8  -6   0   46.70    9.00
  -8   7   0   85.99   10.50
   8   7   0  118.89   16.30
   8   7   0  107.29    9.20
   7  -8   0   94.49   10.40
   7   8   0  101.79   15.10
  -8  -7   0  103.69   13.00
  -7  -8   0  123.69   12.90
  -8   7   0  108.89   10.90
  -8  -7   0   99.89   12.20
   7  -8   0   94.89   10.10
   7  -8   0  103.89    9.70
   8  -7   0  102.29   10.00
  -7  -8   0  104.79   12.80
   8  -7   0  108.99   11.00
  -8  -7   0  119.59   10.70
   7   8   0  105.69    9.00
  -7   8   0  104.69   10.50
  -8  -8   0  123.49   13.90
  -8   8   0  112.39   11.60
  -8  -8   0  123.19   14.20
   8  -8   0  102.19   11.20
  -8   8   0  107.49   11.00
   8   8   0  127.19   10.30
   8  -8   0  142.69   12.30
   8   8   0  114.19   16.80
   8  -8   0  133.79   12.30
  -9   0   0  297.27   15.50
  -9   0   0  313.37   16.90
   0   9   0  301.47   11.20
   0  -9   0  287.27   12.80
  -9   0   0  313.17   16.40
   0  -9   0  274.97   13.00
   9   0   0  303.47   13.80
   9   0   0  324.57   18.80
   0   9   0  317.37   15.10
   0   9   0  296.97   14.70
  -9  -1   0  283.37   15.80
   9   1   0  267.47   20.40
  -1  -9   0  330.37   13.80
  -9   1   0  321.27   13.90
  -9   1   0  308.97   17.50
   9   1   0  316.37   13.60
  -9  -1   0  296.67   16.50
   9  -1   0  332.67   14.30
  -1  -9   0  311.27   14.20
  -1   9   0  309.57   11.30
   1  -9   0  326.97   13.40
  -9  -1   0  303.57   13.80
   1   9   0  332.37   15.30
   1  -9   0  313.67   13.70
   1   9   0  322.07   12.60
  -1   9   0  317.17   15.30
  -1   9   0  311.97   14.50
   1   9   0  322.57   15.70
  -2   9   0  226.98   12.90
  -9  -2   0  225.58   15.00
  -2   9   0  220.18   12.50
   9   2   0  192.98   16.20
  -9   2   0  218.28   16.20
  -9   2   0  246.68   12.40
   2   9   0  227.28    9.70
  -2  -9   0  230.08   12.00
  -2  -9   0  218.18   11.80
   2   9   0  240.48   14.10
   2   9   0  218.78   13.00
  -2   9   0  229.08   10.00
  -9  -2   0  205.98   11.60
   2  -9   0  209.38   11.30
   9  -2   0  216.38   12.50
   9   2   0  236.38   11.90
  -9   2   0  227.38   12.10
   9  -2   0  241.98   12.50
   2  -9   0  220.38   11.10
  -9   3   0  140.09   10.40
   9  -3   0  137.79   10.50
   9  -3   0  137.49   10.50
   3   9   0  141.69   12.60
   9   3   0  148.69   10.00
  -3   9   0  130.39   10.50
  -9   3   0  154.08   10.70
   3  -9   0  155.68   10.30
   3  -9   0  143.79    9.40
  -9  -3   0  149.09   10.20
  -9  -3   0  141.19   13.20
   3  -9   0  151.98    9.80
  -3  -9   0  137.29   10.20
  -3  -9   0  144.09   10.90
   9   3   0  128.89   15.10
   3   9   0  157.48   11.60
  -3   9   0  139.09   11.10
  -9   3   0  167.18   16.00
   3   9   0  125.19    7.80
   9  -4   0   53.49    7.90
   4   9   0   57.19    9.80
   4  -9   0   44.60    8.20
  -4   9   0   34.80    6.30
   4  -9   0   39.60    6.20
  -9  -4   0   53.29    9.40
   9   4   0   52.19    7.40
  -9   4   0   55.69   11.50
  -4   9   0   64.29    8.90
   9  -4   0   39.40    6.90
  -9  -4   0   45.20    7.20
   4  -9   0   56.59    7.50
   9   4   0   38.90   10.70
  -4  -9   0   42.30    7.10
   4   9   0   52.09    8.40
  -4  -9   0   42.20    7.40
  -9   4   0   37.70    7.00
  -9  -4   0   28.20    9.20
  -9   4   0   41.60    6.90
   4   9   0   39.30    5.50
  -9  -5   0   86.69   12.60
  -5   9   0   76.39    9.80
  -5  -9   0   78.39   10.80
   5  -9   0   76.59    8.80
  -5  -9   0   75.09   10.30
   9  -5   0   66.59    9.30
  -9   5   0   80.59   13.60
   5  -9   0   73.19    9.00
  -5   9   0   83.29    9.60
  -9  -5   0   80.39   13.90
  -9  -5   0   66.19    9.50
   9   5   0   70.09    8.90
   5  -9   0   68.99    9.10
   9   5   0  106.69   15.20
   5   9   0   89.89   10.80
   9  -5   0   83.59   10.00
  -9   5   0   79.39    9.90
  -9   5   0   65.79   10.70
   5   9   0   81.19   13.20
   5   9   0   68.09    7.60
   6   9   0   62.59    9.80
   6  -9   0   52.99    8.80
  -9   6   0   61.89    9.50
  -9  -6   0   48.10    8.20
  -6   9   0   51.59    8.60
  -9  -6   0   55.19   10.40
   9  -6   0   65.19    9.70
  -9   6   0   46.70   14.00
   6   9   0   69.29   11.80
  -9   6   0   42.40    8.20
  -6  -9   0   50.99    9.10
   6  -9   0   88.39   13.60
   6  -9   0   60.99   10.00
   9  -6   0   59.79    8.60
   9   6   0   63.19    8.60
   6   9   0   55.19    7.90
   9   6   0   45.10   12.00
  -6   9   0   49.00    7.50
  -6  -9   0   50.59    8.50
  -9  -6   0   52.99   10.00
   9  -7   0   62.99   10.70
   9   7   0   53.79    8.00
  -9  -7   0   66.09   10.60
  -7   9   0   65.89   10.50
  -9  -7   0   47.90    8.90
   7  -9   0   52.29    8.20
  -9   7   0   50.99    8.20
   7   9   0   75.19   12.30
   7  -9   0   72.79    9.50
  -7   9   0   53.79    8.10
  -7  -9   0   71.09   10.80
   9   7   0   70.09   13.00
  -9   7   0   57.39    8.70
   7  -9   0   65.49    8.90
   7   9   0   60.99   10.80
   9  -7   0   62.89    9.30
   7   9   0   44.10    7.00
  -9  -7   0   66.19   10.90
  -9   7   0   77.29   20.50
  -7  -9   0   61.89   10.30
  -8  -9   0   44.10   10.50
  -8   9   0   51.69    8.70
   8   9   0   42.70   12.90
  -8   9   0   48.60    8.30
   9   8   0   48.80   12.80
  -8  -9   0   43.20   10.60
   9  -8   0   52.79    8.70
  -9   8   0   45.30    9.00
   8  -9   0   57.69    9.30
   9   8   0   36.10    7.00
  -9  -8   0   46.20   10.90
   8   9   0   46.30    7.10
  -9   8   0   61.49   11.00
   8  -9   0   55.29    9.20
   8   9   0   55.59   10.70
   8  -9   0   35.50    7.70
  -9  -8   0   58.29   11.20
  -9  -8   0   34.10    9.50
   9  -8   0   47.70    9.00
  -9   9   0   57.99   54.49
  -9  -9   0   80.19  104.09
   9  -9   0   48.60   62.69
   9   9   0   63.19   82.19
  10   0   0  238.58   20.10
   0  10   0  247.78   14.40
 -10   0   0  246.68   17.10
  10   0   0  245.38   12.90
   0 -10   0  240.08   12.10
   0 -10   0  229.38   12.30
 -10   0   0  240.38   17.20
   0  10   0  255.77   14.00
 -10   0   0  210.88   13.20
  -1 -10   0   66.89    8.20
   1  10   0   84.49    6.60
 -10   1   0   84.69   10.10
   1  10   0   78.29   10.10
 -10   1   0   71.39   11.80
  10   1   0   75.29   12.60
 -10  -1   0   80.69   11.10
 -10  -1   0   77.79   11.00
   1  10   0   64.99   10.50
  -1 -10   0   84.99    8.60
 -10   1   0   86.19   14.00
 -10  -1   0   68.29    9.30
  10   1   0   90.69    9.30
  -1  10   0   83.29   10.00
  -1  10   0   76.19    7.30
   1 -10   0   89.19    8.80
   1 -10   0   72.09    8.00
 -10   1   0   81.39   13.10
  10  -1   0   90.79   10.20
  -1  10   0   70.19    9.80
  -2 -10   0   34.50    7.00
 -10  -2   0   36.00    9.80
 -10   2   0   31.60    7.40
   2  10   0   29.80    4.60
 -10  -2   0   31.30    7.30
  -2  10   0   36.20    7.20
 -10  -2   0   13.70   11.40
  -2  10   0   24.70    6.20
  10   2   0   33.90   10.40
   2 -10   0   29.20    5.60
   2  10   0   45.20    8.50
   2 -10   0   24.30    5.50
 -10   2   0   25.00   10.00
  10   2   0   30.90    6.80
  10  -2   0   33.10    7.10
  -2 -10   0   35.90    7.10
  -2  10   0   33.50    7.50
   2  10   0   38.50    8.40
   3 -10   0   54.19    8.70
   3  10   0   59.39   10.70
   3  10   0   59.89    8.50
  10  -3   0   49.80    8.40
  10   3   0   66.29    8.50
  -3  10   0   54.89    9.80
  -3 -10   0   59.19    9.60
   3  10   0   77.29    9.90
  10  -3   0   55.79    9.00
  -3  10   0   61.99    8.60
   3 -10   0   49.80    8.20
  10   3   0   40.90   11.30
 -10  -3   0   44.90   10.10
 -10  -3   0   69.69   10.70
 -10   3   0   61.59    9.50
  -3 -10   0   60.69    8.60
 -10   3   0   52.89   11.40
 -10  -4   0    3.70    9.60
 -10   4   0   13.90    7.10
  10   4   0   19.70    6.50
   4 -10   0   16.00    5.80
   4  10   0   12.80    8.60
 -10  -4   0   19.20    9.20
 -10   4   0   11.10   11.30
 -10  -4   0   -6.20    7.70
  -4 -10   0    3.70    5.80
  -4  10   0   21.50    6.40
   4 -10   0   41.70    6.90
   4  10   0   16.20    7.60
   4  10   0   10.70    4.60
  -4  10   0   20.90    6.60
  10   4   0   29.80   11.30
  -4 -10   0   16.60    6.40
 -10   4   0   20.90    6.70
  10  -4   0   20.70    7.00
  10  -4   0    0.50    9.00
   4 -10   0   14.60    5.70
  -5 -10   0   15.70    7.40
   5 -10   0   22.50    6.30
  10   5   0   20.90   10.90
 -10   5   0   14.40    7.00
  10  -5   0    2.00    6.60
   5  10   0   10.30    8.00
  10   5   0   13.30    6.50
 -10  -5   0   16.90    9.60
 -10   5   0   28.40   12.80
 -10  -5   0   36.40    9.80
   5 -10   0   15.90    6.20
  10  -5   0    7.90    7.40
   5  10   0   19.60    5.30
 -10   5   0   15.70    7.00
  -5  10   0    7.10    5.70
  -5 -10   0   24.50    7.40
  -5  10   0    6.40    5.80
 -10  -5   0    3.70    8.60
   5 -10   0   15.30    7.00
   5  10   0   18.10    9.20
 -10   6   0   21.30   21.10
 -10   6   0   31.20    7.50
 -10  -6   0   32.10   10.20
   6 -10   0   32.70    7.50
  -6  10   0   25.70    6.80
   6  10   0   33.80   10.10
  10  -6   0   40.30    8.10
  -6  10   0   40.90    8.30
  -6 -10   0   36.10    7.90
  10  -6   0   21.80    7.80
  10   6   0   40.80   12.60
  -6 -10   0   22.00    7.70
   6 -10   0   36.30    7.10
  10   6   0   29.70    6.80
   6  10   0   27.70    6.10
   6 -10   0   49.50    8.70
 -10  -6   0   32.10   10.60
   6  10   0   34.30    9.40
 -10   6   0   42.40    8.10
  -7 -10   0   48.60    9.40
 -10  -7   0   59.69   12.00
   7  10   0   64.99   12.40
 -10   7   0   43.60    8.90
   7 -10   0   49.80    8.10
  10  -7   0   56.79    9.90
   7  10   0   50.59    7.20
  10   7   0   41.70    7.50
  -7 -10   0   46.80   10.00
 -10  -7   0   51.09   11.00
  10  -7   0   56.49    9.40
   7 -10   0   34.90    7.90
 -10  -7   0   40.90    9.70
 -10   7   0   51.69   16.20
  -7  10   0   49.30    8.30
   7  10   0   70.09   11.20
 -10   7   0   34.80    8.40
   7 -10   0   65.89    9.60
  10   7   0   37.20   12.50
  -7  10   0   47.30    8.60
   8  10   0   25.70   13.50
 -10  -8   0   14.80   10.40
  10  -8   0   37.10    9.10
   8  10   0   27.80    7.60
  -8 -10   0   22.40   11.40
  10   8   0   19.20   13.30
 -10  -8   0   22.20   10.90
 -10   8   0    8.80   18.10
  -8  10   0   22.00    8.00
 -10   8   0   16.80    8.00
 -10   8   0   16.90    8.20
  10  -8   0   26.30    9.10
  10   8   0   12.10    6.60
  -8 -10   0   18.40    9.10
   8 -10   0   29.60    8.20
   8 -10   0   39.70    9.00
   8 -10   0   10.30    9.10
   8  10   0    0.80   10.70
   9  10   0   10.00    6.60
  -9  10   0    2.40    8.20
   9 -10   0  -10.70    9.00
  10   9   0  -12.40   15.20
 -10   9   0   -8.20    8.40
  10  -9   0  -18.40    8.50
  10   9   0    5.00    6.90
  -9  10   0    5.00    7.20
 -10  -9   0    9.50   10.50
  -9 -10   0    1.20    9.40
  10  -9   0   -8.20    8.30
 -10   9   0   -1.20    7.90
   9  10   0  -15.70   12.40
   9 -10   0   12.80    8.80
   9 -10   0   -7.40    9.20
  10 -10   0   -9.10   10.00
 -10  10   0    9.50   10.70
 -10 -10   0    9.80   10.20
  10 -10   0   15.90    9.70
 -10  10   0    8.30    7.90
 -11   0   0   31.50    8.00
   0 -11   0   31.50    6.40
   0  11   0   34.90    8.10
   0  11   0   25.10    7.50
 -11   0   0   35.70   13.30
  11   0   0   28.00    7.30
   0 -11   0   30.70    6.60
 -11   0   0   45.90   10.90
  11   0   0   42.30   11.90
   0  11   0   36.90    5.30
   1 -11   0    4.70    5.00
  -1  11   0   17.10    6.70
  -1 -11   0    8.20    4.90
   1  11   0   10.00    6.80
  -1  11   0    4.50    4.40
   1  11   0   11.10    4.40
 -11   1   0   22.30   11.40
 -11   1   0    3.00   10.10
 -11  -1   0   13.10   10.70
   1  11   0   10.60    7.50
 -11  -1   0    3.10    9.90
  -1  11   0    1.60    6.00
 -11   1   0    2.90    6.80
  -1 -11   0   11.50    4.90
  11  -1   0   12.60    6.80
 -11  -1   0    0.90    7.40
 -11   1   0   12.30    8.10
   1 -11   0   13.40    5.60
  11   1   0   12.90    6.40
  11   1   0   -4.90   12.00
   2  11   0    2.00    6.50
 -11  -2   0   14.40   10.80
 -11  -2   0    6.20    7.30
  11  -2   0    1.40    6.70
  -2  11   0    7.00    5.70
  -2 -11   0    2.90    5.10
 -11   2   0   15.70    7.20
 -11   2   0   11.70   10.80
  -2  11   0    5.20    6.50
  -2  11   0    3.00    5.20
 -11   2   0    2.80    7.70
   2 -11   0    0.50    4.70
  11   2   0    8.50    6.50
 -11  -2   0    7.20   10.10
  11   2   0    9.90   10.60
  -2 -11   0   -2.20    5.20
   2  11   0    7.80    7.70
   2 -11   0    2.80    4.80
 -11  -3   0   20.10    7.70
  11   3   0   23.50   11.40
   3  11   0   26.00    5.30
  -3  11   0   23.60    6.70
   3 -11   0   46.80    7.70
  -3 -11   0   14.30    6.40
   3  11   0   39.70    9.10
 -11   3   0   31.00    8.10
  11  -3   0   22.30    7.60
 -11  -3   0   48.40   11.10
   3  11   0   18.70    8.30
 -11   3   0   38.70    8.40
 -11  -3   0   32.90   10.80
   3 -11   0   32.30    6.90
  -3 -11   0   18.20    6.00
 -11   3   0   11.50   11.70
  -3  11   0   24.80    6.90
  11   3   0   14.90    7.30
  11  -3   0   34.90    9.80
   3 -11   0   35.10    6.80
   4  11   0    3.60    4.60
 -11  -4   0    9.30    7.90
   4  11   0    5.50    8.10
 -11   4   0   -4.20   12.70
 -11   4   0    1.30    6.70
   4 -11   0   -1.90    5.30
 -11  -4   0    6.50   10.50
  11  -4   0    4.50    7.10
  -4  11   0   -0.10    6.30
  -4 -11   0   -3.80    6.30
  -4 -11   0   -0.40    5.90
  11  -4   0   -6.20    8.10
 -11   4   0   -1.00    7.70
   4 -11   0    9.90    7.20
  11   4   0  -15.80   10.70
   4 -11   0   -1.10    5.40
   4  11   0    4.10    7.80
  -4  11   0    1.60    5.70
 -11  -4   0    0.00   10.10
  11   4   0    3.40    6.40
   5 -11   0   13.10    6.00
   5  11   0    1.30    9.10
  11  -5   0    6.80    8.10
   5  11   0    4.50    8.40
  -5 -11   0    0.50    6.40
 -11   5   0   -3.40   19.20
   5  11   0   -8.30    4.60
  -5  11   0    5.60    6.40
  -5  11   0    2.40    6.20
  11   5   0   -0.40   12.40
 -11  -5   0    1.70    7.80
  11  -5   0    5.50    7.40
 -11   5   0   -1.00    7.40
 -11   5   0    3.20    6.80
 -11  -5   0   -1.50    9.80
  11   5   0   -2.90    6.70
   5 -11   0    5.80    7.60
 -11  -5   0   12.50   10.60
  -5 -11   0    2.30    7.00
   5 -11   0    5.30    6.50
  11  -6   0   15.40    8.40
  11   6   0  -10.00   12.00
  11   6   0   -3.60    6.10
   6 -11   0    1.90    5.50
  -6  11   0   -2.80    6.20
   6  11   0   -3.80    4.90
 -11  -6   0   -8.30   10.40
  -6  11   0    4.60    7.20
 -11   6   0   25.20   15.90
  -6 -11   0   -0.80    6.60
  11  -6   0   -7.80    7.50
 -11  -6   0   10.60   10.50
 -11  -6   0    9.30    8.90
 -11   6   0   18.10   11.80
  -6 -11   0   -2.80   11.50
   6 -11   0   12.30    6.90
   6  11   0   -5.70    9.50
 -11   6   0    7.20    7.40
   6  11   0    7.20    9.60
  -7  11   0    7.50    7.40
 -11   7   0  -21.30   16.50
  11  -7   0   10.50    9.10
  11   7   0   17.00    7.10
   7 -11   0    4.90    6.90
   7 -11   0    4.00    7.30
 -11   7   0    8.10    7.70
   7  11   0   -3.20   10.30
   7 -11   0    8.10    9.00
  -7  11   0   13.40    7.60
  11  -7   0   -0.80    8.10
  11   7   0    4.30   12.60
   7  11   0   12.20    6.30
 -11  -7   0   16.20   10.80
 -11   7   0   14.20    8.70
 -11  -7   0   13.90   11.70
  11  -8   0   11.30    9.10
  -8  11   0    4.50    7.70
 -11   8   0    2.90    7.70
   8 -11   0    7.20   11.70
   8  11   0   -4.90   11.50
  -8  11   0   -3.40    7.00
   8  11   0   16.40    7.10
   8 -11   0   12.70    9.00
  11  -8   0   11.60    9.00
  -8 -11   0    9.90    8.80
 -11   8   0    0.70    8.60
 -11   8   0   47.40   20.50
   8 -11   0    9.40    7.60
 -11  -8   0   25.10   11.80
  11   8   0   13.90   14.10
   9 -11   0  -16.60   12.50
   9 -11   0   -4.80    8.50
  -9 -11   0    4.80    8.40
  11   9   0   -5.80    6.90
  11  -9   0   -0.70    9.50
   9 -11   0    7.50   10.00
  11  -9   0   13.20    9.90
  -9  11   0    2.50    7.90
 -11   9   0    5.40    7.80
 -11  -9   0    4.10   11.40
   9  11   0    4.60    7.50
 -11   9   0   56.89   37.90
  11 -10   0   15.50   14.60
  10 -11   0   15.70   11.10
 -11  10   0    9.40    8.70
  11  10   0    3.30    7.70
 -10  11   0    7.50    8.20
 -11 -10   0    7.70   10.60
 -10 -11   0   -0.70    9.60
  10  11   0    8.00    7.90
  11 -10   0    5.30   10.30
  11 -11   0  -10.40   14.20
 -11  11   0    2.60    8.60
  11  11   0   -1.70    8.30
 -11 -11   0    2.00   10.60
 -12   0   0    5.40   12.20
   0  12   0   -3.70    4.60
 -12   0   0   -0.10    7.50
   0 -12   0   -0.60    5.70
   0 -12   0    2.00    5.00
   0  12   0   -4.90    6.60
 -12   0   0   -3.60   11.30
   0  12   0    0.40    6.10
  12   0   0    3.60    6.40
   1 -12   0   -0.20    5.30
  12   1   0   -0.20    6.40
 -12   1   0    5.30    7.70
   1  12   0   -3.80    6.70
  12   1   0   -6.70   13.10
  12  -1   0   -2.10    6.50
 -12  -1   0    0.20   11.50
  -1 -12   0    3.40    5.20
   1  12   0   -4.00    6.80
  -1  12   0    6.50    6.90
 -12   1   0    4.40   12.70
   1 -12   0    1.70    4.90
 -12  -1   0   10.70    7.90
 -12  -1   0   -4.30   11.20
  -1 -12   0   -0.20    4.50
  -1  12   0    1.90    7.20
  -1  12   0   -0.50    5.40
 -12   2   0    6.00   10.80
 -12   2   0  -10.70   12.40
   2 -12   0   -3.20    5.10
 -12  -2   0    5.40    8.20
  12  -2   0   -4.90    6.60
  -2 -12   0    5.80    5.00
  -2  12   0    2.30    6.50
   2  12   0   -1.30    6.70
   2  12   0    7.30    7.60
 -12   2   0    9.80   15.90
 -12  -2   0   10.00   11.70
  -2  12   0  -10.30    6.10
 -12  -2   0  -22.50   10.90
   2  12   0   -5.00    4.40
   2 -12   0    6.80    6.00
  12   2   0   -9.90    6.50
 -12   2   0    6.40    7.40
  -2 -12   0    7.10    5.30
  12   2   0   -3.00   13.60
 -12   3   0    3.50    7.60
   3  12   0    0.30    8.20
 -12   3   0   15.00   10.90
 -12   3   0   -7.20   20.90
  12   3   0    1.50    7.30
  -3 -12   0    8.20    6.90
   3 -12   0   -3.00    6.00
  -3 -12   0   12.90    6.50
 -12  -3   0   19.70    8.50
   3  12   0   13.70    7.90
 -12  -3   0   -9.20   11.20
  -3  12   0   11.90    7.00
 -12  -3   0   26.50   11.50
   3 -12   0    8.70    6.10
   3  12   0    8.70    5.10
  -3  12   0   -0.50    6.90
   3 -12   0   18.20    7.60
  12  -3   0    8.30    7.50
  12   3   0    3.30   12.20
  12  -4   0   -2.80    7.30
   4  12   0    4.00    5.30
  -4 -12   0    3.70    6.30
   4  12   0    5.80    8.40
   4  12   0   -8.30    8.60
 -12  -4   0   -6.90   11.60
  12  -4   0  -11.30   10.40
  -4  12   0   -2.30    7.20
   4 -12   0   11.90    6.90
   4 -12   0    0.60    5.90
 -12   4   0    1.00    7.70
 -12   4   0  -17.90   14.60
 -12  -4   0  -31.20   10.80
   4 -12   0   21.10    8.30
  12   4   0   -4.70    6.80
 -12  -4   0   12.80    9.30
  -4  12   0    7.90    6.70
  12   4   0    3.50   12.50
 -12  -5   0   -6.10    9.40
  12  -5   0   -5.00   10.60
   5 -12   0    4.30    6.30
  -5 -12   0    6.10    7.10
 -12   5   0    7.30    8.00
   5  12   0    4.30    5.40
 -12   5   0   10.90   15.70
   5  12   0   -3.30    9.30
  -5  12   0    0.30    7.40
 -12  -5   0    2.50   11.10
 -12  -5   0   -6.30   11.40
  12  -5   0   10.90    7.60
 -12   5   0    4.00    9.30
  12   5   0  -13.00   13.30
   5 -12   0    8.10    7.60
 -12   6   0   18.60   17.20
 -12  -6   0   -0.10   11.30
   6 -12   0    1.00    6.40
   6  12   0    7.30   10.60
  -6 -12   0   -1.30    6.90
   6  12   0    2.30    6.00
   6 -12   0   17.10    8.00
 -12   6   0    0.60    8.10
  12   6   0    3.90    7.60
  -6  12   0    0.40    7.60
 -12  -6   0    4.90   17.70
  12   6   0  -14.10   13.90
  -6  12   0   -3.40    6.10
  12  -6   0  -22.00    9.70
 -12  -6   0   -7.60   12.70
  12  -6   0   -7.30    7.70
 -12   6   0   -0.60    9.20
   7 -12   0    4.10    7.20
 -12  -7   0  -14.70   11.00
 -12  -7   0  -10.70   13.00
  -7  12   0   -4.50    6.40
  12   7   0  -12.80   14.70
  12  -7   0    2.80   10.80
 -12   7   0    0.40    8.30
   7  12   0    1.60    6.30
   7  12   0   -2.90   11.80
 -12   7   0   51.09   33.30
  12   7   0   -1.30    7.50
  -7  12   0    6.40    8.50
  -7 -12   0   -3.30    7.90
  12  -7   0    6.40    8.60
   7 -12   0    4.20    8.60
  -8 -12   0    1.70    8.40
  12  -8   0   11.90    9.80
 -12  -8   0   13.10   12.60
   8  12   0    9.70    7.10
  12   8   0   -4.90    7.40
  -8  12   0   10.00    7.70
  12  -8   0  -20.00   11.00
   8 -12   0   11.00   10.00
 -12   8   0    0.90    8.20
   8 -12   0    9.60    8.00
   9 -12   0    7.40    9.80
   9 -12   0    3.80   11.80
  -9 -12   0    1.90    8.40
  12   9   0    4.00    7.90
  -9  12   0    6.90    7.70
 -12   9   0   -8.40    8.00
 -12  -9   0   -4.40   11.90
   9  12   0   11.20   12.90
  12  -9   0   -3.50   10.10
  10  12   0   -5.60    8.70
  10 -12   0    2.20   12.20
 -12  10   0  -11.50    8.00
  12 -10   0    7.80   11.10
  12  10   0   -6.50    8.00
 -12 -10   0    5.00   11.80
 -10 -12   0    9.10   10.00
 -10  12   0    1.50    8.10
 -13   0   0   15.20   14.10
 -13   0   0   10.90   11.00
  13   0   0   -8.70    9.70
 -13   0   0   -2.10   12.90
 -13   0   0    6.90    8.60
   0  13   0   -1.80    6.70
   0 -13   0    3.20    5.80
   0  13   0    0.80    8.20
 -13   1   0    3.20   10.40
 -13   1   0    0.00    8.60
   1  13   0   -3.00    7.10
 -13  -1   0   13.90    9.60
  13   1   0    3.70    7.70
  -1  13   0    1.30    8.40
 -13   1   0  -29.90   13.00
 -13  -1   0  -11.90   12.90
 -13  -1   0  -23.80   12.70
  13   1   0   18.60   15.40
  -1  13   0   16.90    7.70
   1 -13   0    9.30    5.60
  13  -1   0   24.40   12.40
 -13   1   0   -7.70   12.90
 -13   2   0  -24.10   14.50
  13   2   0   -5.60    7.30
   2  13   0   -6.60    7.70
 -13  -2   0    1.90   12.70
   2 -13   0   10.20    6.20
  13  -2   0   -6.80    9.10
 -13   2   0   -9.80    9.90
 -13   2   0   28.20   17.30
   2  13   0    2.20    5.60
   2 -13   0    4.60   11.30
  13   2   0    9.40   16.20
  -2 -13   0    1.10    5.70
  -2  13   0   -9.00    8.00
 -13   2   0   -1.70    8.40
  -2  13   0    0.00    6.30
 -13  -2   0   15.20   13.40
   3  13   0   13.60    6.10
 -13   3   0    8.00   10.30
 -13   3   0   -3.60   14.50
  13   3   0   -2.60    7.60
 -13  -3   0    9.60   10.20
  -3 -13   0    3.60    5.10
  13  -3   0    0.80    9.20
   3 -13   0   12.70    8.80
 -13  -3   0  -23.40   13.00
  13   3   0    5.50   14.90
  -3  13   0    6.00    8.00
   3  13   0    9.30    8.60
   3 -13   0    4.80    6.00
 -13  -3   0   -2.90   12.80
  -3  13   0    2.20    8.60
 -13   3   0   14.00    8.70
   4 -13   0   11.90    6.70
 -13  -4   0   24.90   10.90
  -4  13   0   12.50    7.80
  -4 -13   0    2.70    6.20
 -13   4   0   14.40   16.30
   4  13   0    8.20    6.40
  13   4   0    9.40    7.60
  13   4   0   15.10   14.50
 -13   4   0   24.20    9.50
  -4  13   0    2.70    8.40
 -13  -4   0   -3.20   13.50
   4  13   0   20.20   10.00
 -13  -4   0   -0.40   12.50
   4 -13   0   18.40    9.20
  13   5   0    8.90    7.20
 -13   5   0    4.90   14.20
  -5  13   0    8.30    9.00
  -5 -13   0   -0.40    5.80
  13  -5   0   -1.30   13.80
 -13  -5   0   31.00   13.40
  13   5   0   26.40   16.10
   5 -13   0    6.50    7.00
 -13  -5   0    9.80   13.90
  -5  13   0    5.80    6.70
   5  13   0   12.20    6.50
   5  13   0    5.80   10.30
  -6  13   0    1.00    8.90
  13  -6   0    1.60    9.40
  13   6   0    0.40    7.40
  13  -6   0  -14.70   15.60
  13   6   0    0.10   16.50
   6  13   0    4.70    6.60
 -13   6   0    8.20    8.80
   6  13   0   11.20   11.50
 -13  -6   0   -9.90   12.90
  -6 -13   0    5.20    7.30
 -13  -6   0  -12.70   14.50
   6 -13   0    1.50    7.00
  -6  13   0    2.00    6.70
  13  -7   0  -14.70    9.20
  13   7   0   -2.10    7.30
  -7 -13   0    7.00    7.30
   7 -13   0    1.10    8.70
   7  13   0    6.70    7.30
 -13   7   0    4.80    8.50
 -13  -7   0  -13.30   13.60
  -7  13   0   -0.30    7.20
  -8 -13   0   -6.20    6.80
  13  -8   0    2.60   10.20
 -13   8   0   -2.80    8.50
  -8  13   0   -0.60    7.70
 -13  -8   0   19.20   13.80
  13   8   0    7.90    8.90
   8  13   0   -7.10    7.60
  -9 -13   0    5.80    8.60
   9  13   0   11.70    9.70
 -13  -9   0   34.70   14.50
  -9  13   0   12.40    8.30
 -13   9   0    5.60    9.10
   9 -13   0   14.10   11.50
  13  -9   0   -4.70   10.50
  13   9   0   15.10    8.60
 -14   0   0   16.50   20.10
   0 -14   0   16.70    6.30
  14   0   0    3.00    8.20
 -14   0   0   19.80   11.00
 -14   0   0    9.40   16.00
 -14   0   0    0.30   12.50
   0  14   0   13.10    7.70
 -14  -1   0   -7.10   15.80
  -1  14   0   13.20    8.60
   1  14   0   17.20    8.80
 -14  -1   0   22.70   15.80
 -14   1   0   13.20   24.50
   1 -14   0   18.40    7.00
  -1 -14   0    9.70    6.00
 -14   1   0    6.30   16.40
 -14   1   0   24.40   10.20
  14   1   0   12.30    8.00
 -14  -1   0   19.10   16.00
  14  -1   0    7.40    8.00
 -14  -2   0    4.20   15.10
   2 -14   0    5.60    6.10
  14   2   0    1.60   18.10
  14   2   0   12.00    8.40
 -14  -2   0  -11.20   14.60
   2  14   0   12.40    9.00
 -14   2   0    0.80    9.30
 -14  -2   0   19.30   16.30
  -2 -14   0    6.00    5.80
  -2  14   0    5.30    7.40
  14  -2   0   -3.90    7.80
  14  -3   0   -6.80    8.10
 -14  -3   0   -6.30   15.60
  -3 -14   0    2.90    5.60
  14   3   0  -34.30   18.40
 -14   3   0    0.60    9.30
  14   3   0   -9.00    7.30
   3 -14   0   -3.40    6.40
  -3  14   0   -2.70    6.40
 -14  -3   0   16.00   16.20
   3  14   0   -8.40    9.00
  -4  14   0   13.20    7.90
   4  14   0    3.60   10.10
 -14  -4   0   -4.00   14.70
 -14   4   0   16.40   10.00
   4 -14   0    4.40    6.80
  14   4   0   45.10   17.90
  14  -4   0   -0.10    8.40
  -4 -14   0    7.30    5.90
  14   4   0   18.40    8.50
 -14  -4   0   13.80   15.50
  -5  14   0    5.40    6.80
 -14   5   0  -10.50    8.70
   5 -14   0   10.70    7.80
  14   5   0   -6.70   18.40
 -14  -5   0  -21.90   18.00
  14  -5   0    8.00    9.20
   5  14   0    6.80   11.30
  -5 -14   0   -2.70    5.70
  14   5   0   12.60    8.20
 -14  -5   0   35.30   15.60
 -14   6   0   -6.80    8.50
 -14  -6   0   11.80   17.20
  -6 -14   0    3.00    6.20
   6 -14   0    6.50    7.80
  14   6   0   -1.70    7.80
  -6  14   0   -3.20    6.80
  14  -6   0    1.60    9.30
   7 -14   0    5.80    8.70
  -7  14   0    3.80    7.70
  14  -7   0   -3.00    9.70
 -14   7   0    7.30    9.40
 -14  -7   0  -28.70   14.70
  14   7   0   -5.00    8.00
   7  14   0    1.10   16.80
  -7 -14   0   -3.80    6.50
   7  14   0    5.90    8.60
  15   0   0   40.90    9.70
   0 -15   0   39.80    7.60
   0  15   0   44.80    9.80
 -15   1   0   20.20   11.80
   1  15   0   16.00    9.00
  15  -1   0   22.10    9.30
   1 -15   0   22.00    7.50
  -1  15   0   20.80    8.50
  -1 -15   0   17.00    7.10
  15   1   0   33.20    9.30
 -15   2   0    7.60   11.90
  -2 -15   0   11.70    5.60
  -2  15   0   14.30    7.70
  15   2   0    3.60    8.00
   2 -15   0   21.70    7.80
   2  15   0   25.00   11.30
  15  -2   0   11.70    8.70
  -3  15   0   15.60    8.30
  15   3   0   18.40    9.00
   3 -15   0   10.60    7.40
 -15   3   0   13.40   11.00
  15  -3   0   -0.40    8.50
   3  15   0   -3.70   14.60
  -3 -15   0   11.60    6.50
  15  -4   0    4.60    9.00
 -15  -4   0   -1.50   17.80
  -4 -15   0   14.00    6.30
  -4  15   0    6.60    7.60
   4  15   0   10.40   13.20
 -15   4   0   11.90   10.40
  15   4   0   19.70    8.80
   4 -15   0    6.40    7.20
 -15  -5   0   35.90   17.50
  15   5   0    7.50    8.70
   5  15   0   29.50   14.10
  -5  15   0    5.20    7.80
 -15   5   0   20.10   10.90
  15  -5   0   21.10    9.80
  -5 -15   0    7.20    5.80
   5 -15   0   14.20    8.30
   0 -16   0   21.00    7.10
   0  16   0   42.90   10.80
 -16   0   0   -3.00   14.40
  16   0   0   17.10    9.20
 -16   1   0    8.50   13.50
  -1  16   0   24.70    9.00
  16  -1   0    4.70    9.40
  16   1   0   25.70    9.50
   1 -16   0   15.60    7.00
   1  16   0   28.80   11.10
  -1 -16   0   22.50    7.70
  -1   0  -1   35.00    4.40
   0  -1   1   31.90    2.80
  -1   0   1   26.00    2.50
   1   0   1   27.60    3.80
  -1   0  -1   21.50    1.90
   1   0   1   28.90    2.80
   0   1  -1   24.30    2.40
   0  -1  -1   27.50    3.20
   1   0  -1   28.50    2.60
   0   1   1   26.10    2.20
   0  -1  -1   27.40    2.60
  -1  -1   1   53.79    3.20
  -1   1  -1   54.19    3.80
  -1  -1  -1   51.99    5.20
   1   1  -1   60.29    3.30
  -1  -1   1   59.19    3.30
  -1   1   1   58.09    2.50
   1  -1  -1   60.79    2.40
   1  -1   1   58.19    3.90
   1  -1   1   55.69    2.30
   1   1   1   53.69    3.00
  -1   1  -1   61.99    3.80
   1   1  -1   57.89    3.10
  -1   1   1   54.39    3.20
   1   1   1   57.19    5.00
   1  -1   1   55.19    3.30
   1  -1  -1   55.09    2.10
  -1   1   1   58.09    3.00
  -1  -1   1   55.09    2.70
  -1  -1  -1   59.99    4.30
   0  -2   1  114.89    4.90
  -2   0  -1  122.29    4.40
  -2   0  -1  113.39    8.20
   2   0  -1  118.19    4.70
   0   2   1  119.39    4.80
   0   2   1  119.89    5.80
   2   0   1  119.79    8.00
   0  -2   1  108.69    5.50
   0   2   1  121.39    4.70
  -2   0   1  122.59    5.20
   0  -2  -1  129.39    6.00
   0  -2  -1  129.09    5.60
   2   0   1  117.69    4.60
   0   2  -1  135.39    3.50
   0   2  -1  120.89    5.20
   2   0  -1  110.99    5.50
  -2   0   1  113.29    4.40
   2   0   1  114.69    5.30
   2   1   1   13.80    4.60
   1  -2   1   16.60    2.80
   1   2  -1   15.80    1.90
  -2   1  -1   13.30    3.10
  -2  -1   1   13.50    2.40
  -1   2   1   14.40    2.50
   1  -2   1   11.20    3.00
   2   1   1   13.70    2.30
  -1  -2  -1   21.80    3.70
  -2   1  -1   12.00    2.70
  -1  -2  -1   17.10    4.20
  -2  -1   1   11.90    2.70
   2  -1  -1   13.30    1.60
   2  -1  -1   12.80    1.50
  -1   2   1   11.60    2.40
  -2  -1   1   11.70    2.60
  -1   2   1   14.30    2.60
   1   2  -1   12.50    3.00
   2  -1  -1   10.00    3.30
  -1  -2   1   10.00    2.70
  -2  -1  -1   12.80    1.40
  -1  -2   1   11.00    2.10
   2   1  -1   12.00    2.80
   2  -1   1   13.40    2.20
  -2   1   1    9.60    1.40
  -2   1   1    8.60    2.10
   1   2   1   15.90    2.40
  -1   2  -1   10.00    3.50
   2  -1   1   12.20    2.60
  -1  -2   1   18.50    2.90
  -1   2  -1   12.60    2.80
   1  -2  -1   14.50    2.00
   2   1  -1   21.60    3.00
  -2  -1  -1   11.90    4.00
  -2  -1  -1   16.90    4.80
   1   2   1   20.90    4.30
   1  -2  -1   13.40    2.40
   1   2   1   15.90    2.20
   2   2  -1  215.28    7.10
  -2   2  -1  201.28    8.40
  -2  -2   1  223.98    7.70
   2  -2  -1  199.88    6.80
  -2   2  -1  202.08    8.00
  -2  -2   1  208.28    8.50
   2  -2  -1  199.68    6.40
  -2  -2  -1  207.88    6.20
   2  -2   1  214.18    6.80
  -2  -2  -1  196.98    9.90
   2   2   1  206.08    7.30
  -2  -2  -1  206.98    9.20
   2  -2   1  207.18    8.20
  -2   2   1  198.58    6.70
  -2  -2   1  206.98    7.80
   2   2   1  220.28   10.40
  -2   2   1  217.48    7.90
   2   2  -1  210.38    8.50
   2  -2   1  205.58    7.70
  -3   0  -1  492.25   13.40
  -3   0   1  449.26   13.40
  -3   0   1  479.95   14.10
   3   0  -1  484.95   14.50
   0  -3   1  484.45   14.40
   0   3  -1  477.35   12.40
  -3   0  -1  478.95   16.50
   0   3   1  477.15   14.10
   0   3  -1  479.05   15.50
   0  -3  -1  474.55   14.70
   0   3  -1  503.35   14.80
   0  -3   1  476.25   14.00
   3   0  -1  453.55   14.00
   3   0   1  484.45   13.70
   0   3   1  511.05   15.10
   3   0   1  481.05   14.20
   3   0   1  470.35   16.60
  -3   0   1  443.96   13.70
   0   3   1  481.55   13.60
   0  -3  -1  477.35   14.30
  -3  -1   1    5.50    3.20
   1   3  -1   16.00    2.00
  -1   3   1    7.60    3.10
   3   1   1   10.00    3.00
  -3   1  -1   12.50    3.50
   3   1   1   12.50    5.40
  -3   1  -1    5.90    2.90
  -3  -1   1    7.30    3.00
   1  -3   1    8.60    3.50
  -3  -1   1   10.30    3.40
  -1   3   1    5.90    3.30
   3  -1  -1   13.40    4.00
   1   3  -1   13.20    4.00
  -3   1  -1   12.10    5.70
  -1  -3  -1    7.40    3.80
   1  -3   1   10.10    3.00
  -1  -3  -1    9.50    4.10
   3  -1  -1   12.50    2.00
  -1   3   1    8.80    2.50
  -3   1   1    5.50    2.70
  -3  -1  -1   12.70    2.20
   1  -3  -1   11.50    2.40
  -3   1   1    8.70    2.20
  -1   3  -1    8.00    3.80
  -1   3  -1    9.20    3.20
   1   3   1    9.10    4.50
   1   3   1   11.10    2.70
   1   3   1   14.20    3.00
   3   1  -1   16.30    3.80
  -3  -1  -1   12.00    5.60
  -3   1   1   11.90    3.50
   1  -3  -1   12.00    3.20
  -1  -3   1   12.00    3.50
  -1  -3   1    8.90    3.00
   3  -1   1   10.00    3.30
  -1  -3   1   10.40    3.60
   3  -1   1    9.60    3.00
  -3  -1  -1    6.60    4.80
   3   1  -1    9.40    3.80
  -2   3   1    3.30    3.20
   2  -3   1    3.50    2.40
   3  -2  -1    1.70    3.70
   2   3  -1    6.70    3.70
   3   2   1    2.40    5.10
   3  -2  -1    4.70    2.10
  -2  -3  -1    3.50    4.30
  -2   3   1    3.00    2.60
  -2   3   1    1.80    3.10
  -3   2  -1    4.30    3.10
   3   2   1    6.10    2.80
  -2  -3  -1    6.60    3.80
   2  -3   1    5.50    3.40
  -3  -2   1    5.10    3.30
   2   3  -1    1.30    2.30
   3  -2  -1    3.20    2.30
   2  -3   1    2.50    3.00
  -3  -2   1    4.40    3.80
  -3  -2   1    5.00    3.40
  -3   2  -1    0.40    3.30
  -3  -2  -1    6.10    5.10
   2  -3  -1    2.20    2.60
   3  -2   1    5.70    3.00
  -3  -2  -1    5.70    4.50
  -3  -2  -1    4.20    2.00
  -2   3  -1    4.10    4.00
   3   2  -1    7.00    3.10
   2   3   1    6.10    2.80
   3   2  -1    3.50    3.80
   3  -2   1    2.40    3.50
  -2  -3   1    5.50    3.60
  -2   3  -1    1.70    3.20
   3  -2   1    4.10    3.20
   2  -3  -1    4.70    2.20
  -3   2   1    4.40    3.20
  -2  -3   1    3.20    3.10
   2   3   1    4.60    2.60
   2   3   1    2.00    5.00
  -2  -3   1    2.30    3.20
  -3   2   1    3.00    2.10
  -3  -3  -1   18.20    5.10
  -3   3   1   17.80    2.80
   3  -3   1   14.60    3.50
   3  -3   1   20.90    3.30
   3  -3   1   15.40    3.80
   3   3  -1   19.50    3.40
   3   3   1   17.70    3.40
  -3  -3  -1   20.30    2.80
  -3  -3   1   20.40    3.70
  -3  -3   1   15.50    4.00
  -3   3   1   18.10    3.90
  -3  -3   1   16.30    4.30
  -3   3  -1   14.50    4.00
   3   3   1   17.20    6.00
   3  -3  -1   16.50    4.20
   3  -3  -1   17.50    2.80
   3   3  -1   17.60    4.80
  -3  -3  -1   17.60    5.90
  -3   3  -1   20.70    4.10
   3  -3  -1   15.90    3.10
  -4   0   1  675.03   20.10
   0  -4   1  720.03   20.60
   4   0  -1  712.33   20.60
   0  -4  -1  721.43   20.30
   0   4   1  718.03   20.50
   0  -4  -1  705.53   20.90
  -4   0   1  680.83   19.80
  -4   0  -1  684.53   22.70
   4   0   1  696.33   20.50
   4   0   1  693.93   19.80
   0  -4   1  718.83   20.20
   4   0  -1  687.73   20.50
  -4   0   1  739.53   20.30
   0   4  -1  721.23   18.40
   0   4  -1  725.53   20.90
  -4   0  -1  715.53   19.30
   0   4  -1  697.13   21.50
   0   4   1  730.13   21.20
   0   4   1  715.43   19.50
   4   0   1  699.93   23.00
   1   4  -1   48.50    6.20
  -4   1  -1   49.90    5.00
   4  -1  -1   43.40    3.80
   1   4  -1   44.60    6.60
   4   1   1   54.79    7.20
  -1   4   1   40.60    5.90
   1  -4   1   40.50    4.70
  -4  -1   1   40.50    5.60
  -1  -4  -1   43.20    6.70
   1   4  -1   42.70    3.20
  -1   4   1   43.80    4.10
  -1   4   1   32.80    5.10
   4   1   1   38.60    5.10
  -1  -4  -1   37.90    5.80
  -4   1  -1   41.00    7.30
  -4  -1   1   43.00    5.50
  -4  -1   1   39.10    5.90
   1  -4   1   42.90    5.70
   4  -1  -1   44.40    5.30
  -4   1   1   46.20    6.20
   4  -1   1   42.60    5.10
  -1  -4   1   49.50    6.30
  -4  -1  -1   38.80    6.10
  -1  -4   1   47.30    5.10
   4  -1   1   42.70    5.20
  -4  -1  -1   39.00    4.00
  -4  -1  -1   46.30    6.80
   1   4   1   48.80    7.10
  -1   4  -1   43.30    5.90
   4   1  -1   43.90    5.90
   1   4   1   45.00    4.20
   1  -4  -1   45.60    5.30
   1  -4  -1   36.50    4.40
  -1   4  -1   44.00    5.70
  -1   4  -1   42.20    2.90
   4   1  -1   39.90    6.80
  -4   1   1   41.10    5.00
   1   4   1   43.70    5.30
   2  -4   1  110.09    5.30
  -4  -2   1  119.89    7.80
   4   2   1  120.39    6.30
   4   2   1  111.19    9.90
   4  -2  -1  117.09    5.40
  -4   2  -1  115.59   11.60
  -2  -4  -1  117.79    8.20
   4  -2  -1  113.59    7.30
  -4   2  -1  116.99    7.20
  -2   4   1  113.89    6.00
  -2   4   1  115.89    6.60
   2  -4   1  124.69    7.30
  -4  -2   1  123.69    7.20
   2  -4   1  125.29    6.60
  -4   2  -1  117.29    7.10
   2   4  -1  111.49    8.00
   2   4  -1  122.39    5.20
  -4  -2   1  115.49    6.80
  -2  -4  -1   99.59    8.10
  -2   4   1  116.29    7.30
  -4  -2  -1  126.29    5.40
   2   4   1  120.29    6.00
  -2   4  -1  122.19    7.10
   4   2  -1  121.29    6.70
   2  -4  -1  114.99    6.40
   4  -2   1  121.19    6.50
  -2  -4   1  117.99    6.90
  -2   4  -1  115.39    8.20
  -4  -2  -1  121.39    9.80
   2   4   1  114.99    6.50
  -2  -4   1  116.49    8.00
  -4   2   1  121.69    7.00
   2   4   1  123.19    9.20
   4  -2   1  123.09    6.80
  -2  -4   1  129.29    7.10
  -4   2   1  113.69    5.50
  -4  -2  -1  117.79    8.90
   2  -4  -1  115.29    5.70
   4   2  -1  116.49    8.40
  -4  -3   1   26.20    4.90
   4  -3  -1   15.30    4.60
  -4  -3   1   14.20    3.90
  -4   3  -1   10.50    4.20
  -3  -4  -1   23.00    5.40
  -3   4   1   15.70    3.30
   4   3   1   15.40    3.40
  -3   4   1   16.60    4.20
   4  -3  -1   19.50    3.10
   3   4  -1   11.70    4.80
   3  -4   1   13.60    3.40
   4  -3  -1   14.80    3.40
   3  -4   1   12.10    3.90
  -4   3  -1   13.20    4.00
   3  -4   1   13.40    3.30
  -4  -3   1   12.50    4.90
   3   4  -1   20.30    3.40
  -3  -4  -1   12.80    5.60
   4   3   1   24.00    6.50
   3   4   1   17.90    3.50
   3  -4  -1   28.10    4.70
  -4  -3  -1   22.50    3.00
   3  -4  -1   16.60    3.40
   4  -3   1   22.90    4.10
  -4  -3  -1   14.90    5.40
  -3   4  -1   20.40    4.70
  -4   3   1   14.70    3.00
   4  -3   1   17.00    3.90
  -3  -4   1   17.90    4.10
  -4  -3  -1   17.80    5.90
   4  -3   1   15.60    4.30
  -3   4  -1   14.20    4.00
  -3  -4   1   14.80    4.30
  -4   3   1   13.90    4.00
   4   3  -1   14.00    5.00
   3  -4  -1   15.10    3.00
   3   4   1   16.20    6.00
   4   3  -1   14.80    3.80
  -3  -4   1   17.20    4.90
   4   4  -1   48.50    5.20
   4  -4   1   44.40    5.60
   4   4  -1   50.39    8.10
  -4   4  -1   45.00    6.60
   4   4   1   42.10    6.30
  -4  -4   1   46.10    6.50
   4   4   1   65.19    8.40
   4  -4   1   41.60    6.40
  -4  -4  -1   45.20    6.10
   4  -4   1   51.49    5.40
  -4  -4  -1   42.10    4.80
   4  -4  -1   55.09    6.00
   4  -4  -1   45.20    5.40
  -4  -4  -1   49.99    7.00
  -4   4   1   45.90    6.50
  -4  -4   1   47.40    5.80
  -4  -4   1   49.20    7.50
  -4   4   1   42.60    4.90
   4  -4  -1   48.50    4.60
  -4   4  -1   34.90    5.90
  -5   0   1  556.54   18.20
  -5   0  -1  567.64   20.60
   0  -5   1  602.74   18.40
   5   0  -1  590.74   18.50
   5   0   1  570.64   18.30
   5   0   1  574.04   17.60
   0  -5  -1  612.04   18.70
   0   5   1  588.84   18.50
   0   5   1  613.24   17.20
  -5   0   1  609.24   18.10
   0   5  -1  598.64   19.50
   0  -5  -1  604.44   18.00
  -5   0   1  570.34   17.90
   0   5  -1  587.54   16.00
   5   0  -1  585.74   19.00
   5   0   1  568.14   21.00
   0  -5   1  597.04   17.90
   0   5   1  583.04   19.00
  -5   0  -1  610.94   17.20
   0   5  -1  604.84   18.70
   1   5  -1  168.98   10.00
   5  -1  -1  168.48    8.90
  -5  -1   1  182.18    8.40
  -1   5   1  183.88    9.00
  -5   1  -1  181.98    8.10
   5   1   1  176.28    8.20
  -5  -1   1  158.58    8.50
  -5   1  -1  170.48   13.00
  -5  -1   1  162.38    9.10
   1   5  -1  188.48    9.60
   1  -5   1  174.28    7.90
   1  -5   1  178.18    8.70
   1   5  -1  175.58    6.30
  -1  -5  -1  185.28    9.80
  -1   5   1  167.98    7.10
   5   1   1  177.38   11.90
   5  -1  -1  165.18    7.30
  -1  -5  -1  185.28    8.90
  -1   5   1  175.28    8.60
  -5  -1  -1  170.38   10.60
   5   1  -1  163.78    8.50
  -5  -1  -1  177.58    7.30
   5  -1   1  171.28    8.00
   5  -1   1  172.18    8.30
  -5  -1  -1  145.29   11.40
  -5   1   1  181.48    9.40
   1   5   1  175.38    8.50
   1  -5  -1  182.58    8.00
   1  -5  -1  173.88    8.50
   5   1  -1  162.98    9.80
  -1  -5   1  174.28    8.70
  -5   1   1  187.68    8.30
  -1   5  -1  176.68    8.80
   1   5   1  181.48   10.30
  -1   5  -1  171.88    5.90
  -1  -5   1  172.68    8.40
  -1   5  -1  178.18   10.10
   1   5   1  186.78    7.30
  -2   5   1  220.48    8.40
  -5  -2   1  201.18   10.30
  -2  -5  -1  191.18   10.70
   2  -5   1  206.88    9.00
  -2   5   1  229.38    9.60
   5  -2  -1  217.98   10.20
  -2   5   1  213.28    9.80
   2   5  -1  213.98    7.50
  -5   2  -1  204.98    9.80
   2   5  -1  212.58   10.70
   2  -5   1  209.38    9.50
  -5  -2   1  208.98    9.60
  -5   2  -1  215.38    9.50
  -5  -2   1  212.98    9.30
   5  -2  -1  204.48    7.80
   5   2   1  207.28   12.60
  -2  -5  -1  219.68   10.50
   2  -5   1  211.98    7.60
  -5   2  -1  213.98   13.80
   5   2   1  208.08    9.60
   5   2  -1  206.48   10.80
  -2  -5   1  212.58   10.20
  -5  -2  -1  204.28   12.20
   2  -5  -1  212.68    8.40
   2   5   1  213.98    8.40
  -5   2   1  207.88    8.10
   2   5   1  223.78   11.60
   5   2  -1  199.48   10.40
   2   5   1  209.88    9.30
  -5  -2  -1  221.58   11.80
  -5  -2  -1  215.08    8.10
  -2   5  -1  189.08   11.60
  -5   2   1  214.48   11.10
   5  -2   1  209.98    9.30
  -5   2   1  212.28    9.30
  -2   5  -1  218.08    9.60
   5  -2   1  216.58    9.00
   2  -5  -1  202.58    9.00
  -3  -5  -1  107.49    8.50
  -5   3  -1   99.19    8.60
  -3   5   1  108.39    7.90
  -5   3  -1  110.09    7.80
   5   3   1  111.69   11.10
   5  -3  -1   99.59    8.10
  -3  -5  -1  100.69    9.60
  -5  -3   1  104.09    8.30
   5   3   1  107.19    6.80
   3  -5   1  111.49    7.10
   5  -3  -1  107.49    6.10
   3  -5   1  106.99    6.00
   3   5  -1  108.69    9.30
   3   5  -1  105.69    5.70
   3  -5   1  108.69    7.80
  -3   5   1  108.49    7.00
  -5  -3   1  115.29    8.70
  -5  -3   1  107.29    7.30
   3   5   1  111.09    6.40
   3  -5  -1  110.09    6.20
   5  -3   1  109.29    7.10
   3   5   1  101.29   10.10
  -3   5  -1  118.99    8.80
  -3   5  -1  108.49    7.40
   5   3  -1  106.59    6.90
  -5  -3  -1  106.29    5.80
  -3  -5   1  125.19    8.70
   5  -3   1  102.89    7.10
  -5   3   1  117.59    8.00
  -5  -3  -1  106.29   10.00
  -3  -5   1  112.99    7.60
  -3  -5   1  117.89    7.70
   5   3  -1  117.79    9.90
   3  -5  -1  110.79    6.90
   3   5   1  110.69    7.30
  -5   3   1  108.99    6.20
   5   4   1  227.98   13.40
  -5  -4   1  207.68   11.60
  -5   4  -1  228.18   10.40
   4  -5   1  227.08   10.50
   4   5  -1  210.38   11.80
  -4  -5  -1  221.18   12.50
  -4   5   1  221.08    9.60
  -5  -4   1  216.78   10.80
   5  -4  -1  206.28   11.60
   5  -4  -1  202.78    8.60
   5   4   1  212.48    9.10
  -4   5   1  216.38   10.60
   4   5  -1  216.58    8.70
  -5   4  -1  235.98   11.00
   4  -5   1  206.58    8.90
  -4  -5  -1  216.48   11.20
  -5  -4   1  226.28    9.80
   5  -4  -1  213.18    9.40
  -4  -5   1  210.68   10.50
   5   4  -1  234.68   12.70
  -5   4   1  216.18    8.70
  -5  -4  -1  234.28    8.50
  -4  -5   1  228.38   10.00
  -4   5  -1  221.08   10.90
   5  -4   1  201.18   10.30
   5   4  -1  203.08    9.10
   4   5   1  196.98   13.90
  -5  -4  -1  217.68   11.90
   4  -5  -1  207.78    9.50
   4  -5  -1  217.88   10.10
  -4   5  -1  228.18   10.40
   4   5   1  219.18    9.00
  -5  -4  -1  206.38   12.30
   4  -5  -1  220.38    8.90
   5  -4   1  206.18    9.70
  -5   4   1  220.08   10.40
   5  -4   1  220.98    9.70
  -4  -5   1  208.98   11.40
  -5  -5  -1  286.87   14.50
  -5   5   1  289.27   10.80
   5  -5  -1  285.27   10.80
  -5   5  -1  287.97   13.10
  -5   5  -1  294.17   12.10
  -5  -5  -1  297.87   10.90
   5  -5  -1  288.97   11.50
   5  -5  -1  285.27   12.10
   5  -5   1  286.47   11.70
  -5  -5   1  281.97   12.60
  -5  -5   1  287.67   13.40
   5  -5   1  283.87   11.10
  -5   5   1  272.07   12.50
   5  -5   1  274.97   12.50
   5   5   1  280.67   11.20
   5   5  -1  294.17   11.10
   5   5   1  277.57   15.60
  -5  -5   1  305.27   11.80
   0  -6  -1  155.88    9.10
  -6   0   1  143.99    9.20
  -6   0   1  165.88   10.10
   0   6   1  152.58    7.00
  -6   0  -1  162.08    7.80
   6   0  -1  161.28   10.70
   0   6   1  162.28    9.90
   0   6  -1  158.68    6.00
   6   0  -1  167.78    9.40
   0  -6  -1  169.48    8.60
   0   6  -1  152.48   10.30
   0  -6   1  170.38    8.40
   6   0   1  156.18    8.40
   6   0   1  160.28   13.40
  -6   0   1  164.88    8.70
   0   6   1  153.28    9.00
  -6   0  -1  165.38   12.60
   6   0   1  151.38    9.50
   0   6  -1  162.28    8.90
   0  -6   1  151.08    8.80
  -6  -1   1   16.80    4.40
   1  -6   1   13.00    4.10
   1   6  -1   15.70    2.60
  -1  -6  -1   18.40    4.80
  -6   1  -1    8.50    3.90
  -6  -1   1   13.50    5.00
   6   1   1   16.40    4.40
  -1   6   1   16.00    4.80
   1   6  -1   13.60    4.70
  -1  -6  -1   14.50    5.00
   1  -6   1   10.80    4.40
  -1   6   1   15.50    4.70
   6  -1  -1   15.40    5.30
  -6   1  -1   24.80    7.80
   6   1   1    6.60    6.80
  -6  -1   1   14.60    4.90
  -1   6   1   17.00    3.30
   1   6   1   11.10    5.40
  -6   1   1   15.00    5.30
   1   6   1   22.70    4.90
  -6  -1  -1    4.10    6.20
  -6   1   1   15.80    4.50
   1  -6  -1   10.70    4.00
   1  -6  -1   11.60    4.10
  -1  -6   1   14.60    4.50
   1   6   1   16.40    3.40
  -1   6  -1   11.70    5.60
  -1   6  -1   14.10    4.50
   6   1  -1   16.80    5.00
   6  -1   1   14.90    4.40
  -6  -1  -1   15.10    3.90
   6  -1   1   14.30    4.50
  -1  -6   1   16.40    4.90
  -6  -1  -1   17.10    6.80
   6   1  -1   16.00    5.70
  -1   6  -1   17.40    2.60
  -6   2  -1    8.00    4.60
  -2   6   1   11.80    4.40
   6  -2  -1   24.40    5.80
   6  -2  -1   15.80    3.90
   2  -6   1    9.40    4.20
  -6  -2   1    6.00    5.10
  -6   2  -1   15.10    7.90
  -2   6   1   12.10    4.60
   2  -6   1   18.50    3.50
   2   6  -1   20.80    7.10
  -2  -6  -1   14.60    5.30
  -6  -2   1    7.70    5.10
   2   6  -1   13.60    3.00
   6   2   1    7.70    6.50
   2  -6   1   11.80    4.10
   6   2   1   10.70    4.30
  -6  -2   1   12.20    4.40
  -2   6   1   13.90    3.60
   2   6  -1   16.10    5.50
  -2  -6  -1   17.20    5.80
  -6  -2  -1   16.00    3.90
  -2  -6   1   13.00    4.00
  -2   6  -1   15.50    5.30
   6   2  -1   10.00    4.40
  -6  -2  -1   12.10    7.40
  -6   2   1   10.90    3.60
  -6   2   1   13.10    4.60
   2   6   1   13.10    4.40
   6  -2   1   20.00    4.80
  -2   6  -1   14.20    4.70
   2   6   1   11.00    5.70
   6  -2   1   11.00    4.20
   2   6   1   15.30    3.30
  -2  -6   1   13.80    4.80
  -6  -2  -1   14.80    6.90
   6   2  -1   11.00    6.00
  -6   2   1   10.30    5.70
   2  -6  -1   10.00    3.80
   3  -6   1    2.40    3.40
   6   3   1   -0.60    6.50
   6  -3  -1    8.50    5.20
   3  -6   1    2.70    3.80
   3   6  -1    3.50    2.80
  -6   3  -1    0.40    4.30
  -3  -6  -1    4.40    5.00
  -3  -6  -1    7.70    5.90
  -3   6   1    7.70    4.40
  -6  -3   1   -0.10    4.40
  -6  -3   1    5.30    5.40
   3  -6   1    0.60    3.80
   3   6  -1   -2.50    5.00
  -6   3  -1    5.70    7.80
  -6  -3   1    1.10    5.50
  -3   6   1    1.60    3.60
   6  -3  -1    2.40    3.60
  -6   3  -1    1.00    4.10
   6   3   1   -2.30    3.80
   3  -6  -1    1.50    3.50
   6  -3   1    4.70    4.00
   6  -3   1    3.90    4.40
   3   6   1    7.50    3.30
   3   6   1    6.60    5.50
  -6   3   1  -11.90    5.70
  -6   3   1    7.20    4.50
   3   6   1    5.20    4.10
  -6  -3  -1    0.10    6.00
   3  -6  -1    5.60    3.80
  -6   3   1    3.50    3.40
  -6  -3  -1   10.20    6.00
  -3   6  -1    3.60    4.30
  -6  -3  -1   11.10    3.60
  -3  -6   1    2.50    4.40
  -3  -6   1   -0.20    4.90
  -3   6  -1   -1.30    3.90
   6   3  -1    0.90    4.10
   6   3  -1    8.70    6.00
  -6   4  -1   32.20    5.60
   6   4   1   31.50    4.90
   4  -6   1   33.10    5.20
   6  -4  -1   39.70    6.30
  -4   6   1   41.10    6.40
  -6  -4   1   28.80    6.70
  -4  -6  -1   47.50    7.30
   6  -4  -1   42.40    4.90
  -6  -4   1   37.00    5.80
   4  -6   1   43.40    5.10
   4   6  -1   32.50    5.20
  -4  -6  -1   46.60    7.80
   4  -6   1   40.60    5.80
  -6  -4   1   33.70    6.50
   6   4   1   34.80    8.40
  -4   6   1   32.60    4.90
   4   6  -1   38.00    7.20
  -6   4   1   38.30    5.50
   4   6   1   42.50    7.50
  -4   6  -1   35.50    6.20
   4   6   1   32.60    5.40
  -6  -4  -1   36.90    7.50
  -4   6  -1   29.50    5.00
  -6  -4  -1   37.20    4.60
   4  -6  -1   28.90    5.10
  -4  -6   1   30.70    5.90
  -4  -6   1   27.80    6.00
  -6  -4  -1   29.80    6.90
   6  -4   1   25.20    5.50
   4  -6  -1   42.50    5.90
   4  -6  -1   27.70    4.60
   6   4  -1   33.70    5.20
  -6   4   1   28.60    5.50
   6  -4   1   42.80    5.60
   6   4  -1   26.10    7.00
   4   6   1   29.00    4.50
   5  -6   1   67.59    8.10
  -6  -5   1   76.79    9.10
  -5   6   1   80.29    7.00
  -5  -6  -1   88.49    9.60
  -6   5  -1   84.09    7.90
   6  -5  -1   87.29    8.60
   6   5   1   70.09   12.00
   6  -5  -1   71.59    6.60
   5   6  -1   84.99    6.30
  -5   6   1   76.69    8.00
   6   5   1   80.49    7.00
   6  -5  -1   67.29    7.30
  -6  -5   1   68.89   11.90
  -5  -6  -1   66.59   10.40
  -6  -5   1   72.69    9.80
   5   6  -1   78.19   10.10
   5  -6   1   69.79    7.10
  -6   5  -1   72.89    8.20
   5  -6   1   81.39    7.60
   5  -6  -1   80.59    8.30
   6  -5   1   70.09    8.40
   6  -5   1   70.79    7.60
  -6   5   1   69.09    8.20
   6   5  -1   73.89    8.20
  -5  -6   1   62.59    8.90
  -5   6  -1   83.79    8.50
   5   6   1   78.49    7.50
  -5  -6   1   80.19    8.00
  -6  -5  -1   70.29    6.60
   5   6   1   77.39   11.30
  -6   5   1   76.99    6.70
  -6  -5  -1   69.29    9.70
  -5  -6   1   72.49    9.70
   6  -5   1   90.89    7.60
   6   5  -1   64.69   10.90
   5  -6  -1   73.99    7.30
   6  -6   1   17.20    5.60
   6  -6  -1   20.80    4.90
   6   6   1   18.10    4.90
  -6  -6  -1   19.30    7.40
  -6   6   1   20.20    4.70
   6  -6  -1   21.20    4.80
  -6  -6   1   35.00    7.10
   6   6  -1   17.50    7.40
   6  -6   1   36.30    5.90
  -6   6  -1   25.40    5.50
  -6  -6  -1   22.10    7.80
  -6  -6   1   35.10    6.40
  -6   6  -1   19.00    5.70
   6  -6   1   29.50    5.60
   6  -6  -1   20.70    6.10
  -6  -6   1   17.20    7.00
  -6   6   1   27.40    6.00
   6   6  -1   21.60    4.50
   6   6   1   22.80    9.10
  -7   0  -1 1091.69   30.20
  -7   0   1 1060.59   31.00
   0   7   1 1083.39   31.70
   0  -7  -1 1045.80   31.30
   0   7   1 1066.09   29.60
   0  -7   1 1078.19   31.30
   0  -7  -1 1090.49   31.00
   7   0  -1 1040.50   32.50
   0   7  -1 1046.10   32.50
   7   0  -1 1077.69   31.20
   0   7   1 1109.59   32.50
   0   7  -1 1080.99   32.00
   7   0   1 1033.40   34.30
  -7   0  -1 1041.30   33.40
   0   7  -1 1095.09   28.60
  -7   0   1 1026.40   31.30
  -7   0   1 1080.19   30.90
   1   7  -1  324.47   10.40
   7   1   1  324.57   12.50
  -1  -7  -1  310.67   13.60
  -7  -1   1  325.27   12.80
  -1   7   1  310.17   11.10
   1   7  -1  321.97   14.30
  -7   1  -1  324.37   17.10
   1  -7   1  303.57   12.80
   7  -1  -1  327.07   13.90
  -7  -1   1  313.27   13.90
   7   1   1  328.97   16.90
  -7   1  -1  321.87   12.60
  -1   7   1  316.47   13.30
   1   7  -1  326.77   13.70
  -7  -1   1  303.27   13.40
  -7  -1  -1  318.67   16.30
  -1   7  -1  320.47   15.80
   7   1  -1  293.47   14.90
  -1   7  -1  309.57   10.00
   1   7   1  335.27   11.50
  -7   1   1  318.57   14.10
  -7   1   1  341.17   13.20
  -7  -1  -1  322.77   11.90
  -7  -1  -1  302.87   15.20
   1  -7  -1  330.37   12.50
  -1  -7   1  308.17   12.60
   1  -7  -1  320.07   13.00
   7   1  -1  312.37   12.90
  -1  -7   1  302.27   12.70
   1   7   1  338.87   13.50
   1   7   1  340.27   14.90
   7  -1   1  337.67   12.80
   7  -1   1  250.37   18.60
  -1   7  -1  333.57   13.50
   2   7  -1  454.35   13.80
  -7  -2   1  453.15   16.20
   7   2   1  450.55   15.50
  -7   2  -1  459.35   20.30
  -7   2  -1  443.06   15.70
   7   2   1  433.56   19.20
  -2  -7  -1  430.26   16.20
  -2   7   1  449.26   16.30
   7  -2  -1  437.66   14.80
  -7  -2   1  424.26   16.60
   2  -7   1  458.25   16.10
  -2  -7  -1  467.55   17.30
   2   7  -1  457.75   17.60
   7  -2  -1  434.66   16.30
  -7  -2   1  416.46   16.10
   2   7  -1  449.46   17.50
  -7   2  -1  430.86   16.20
  -2   7   1  441.86   14.60
   7  -2   1  448.66   15.60
  -2   7  -1  441.46   15.90
  -7   2   1  444.16   15.90
  -7  -2  -1  436.56   19.00
  -2   7  -1  417.26   17.20
   2  -7  -1  450.55   15.10
   7   2  -1  436.56   15.80
   7   2  -1  435.46   18.40
  -7   2   1  441.06   14.90
  -7  -2  -1  453.75   14.80
   2   7   1  449.26   16.20
   2   7   1  455.45   17.90
  -7   2   1  456.35   17.40
  -2  -7   1  453.95   16.00
  -7  -2  -1  434.26   18.10
   2  -7  -1  437.36   15.70
  -2  -7   1  429.56   16.50
  -3  -7  -1  246.78   12.40
  -7  -3   1  242.88   13.10
  -3  -7  -1  253.67   12.80
  -3   7   1  252.47   10.80
   7  -3  -1  242.88   10.10
   3   7  -1  254.17    9.60
   3   7  -1  251.97   13.40
   3  -7   1  239.88    9.50
  -7   3  -1  253.27   17.30
   7   3   1  242.88   11.20
  -7   3  -1  255.47   13.40
  -7  -3   1  237.28   12.40
  -3   7   1  244.58   11.70
  -7   3  -1  240.38   11.80
   3  -7   1  247.78   11.50
   7  -3  -1  263.37   12.20
   3   7  -1  240.08   13.20
  -3   7   1  245.48   11.70
   7   3   1  253.57   15.20
  -7  -3   1  251.37   11.80
  -7   3   1  249.18   10.10
   3  -7  -1  236.78   10.70
   3   7   1  251.97   11.60
   3   7   1  241.18   10.00
   7   3  -1  238.78   11.10
  -7  -3  -1  219.88   10.10
   3   7   1  242.58   14.10
  -3   7  -1  236.18   12.50
   3  -7  -1  237.98   10.20
   7  -3   1  231.88   11.00
  -3   7  -1  245.88   11.70
  -7   3   1  248.68   11.70
  -3  -7   1  260.87   11.50
   7  -3   1  226.78   11.00
  -7  -3  -1  244.68   14.90
  -7   3   1  235.88   14.40
  -7  -3  -1  244.38   14.10
   7   3  -1  228.48   14.30
  -3  -7   1  192.98   17.00
   7   4   1  305.57   12.50
  -4   7   1  321.07   14.00
  -7   4  -1  315.77   13.80
  -7   4  -1  303.07   19.80
   4  -7   1  340.47   13.10
  -7  -4   1  319.87   14.40
   7  -4  -1  301.97   11.90
  -4   7   1  306.87   12.90
  -7  -4   1  325.87   13.20
   4   7  -1  317.17   20.90
  -7   4  -1  332.27   13.60
  -4  -7  -1  325.47   15.30
   4  -7   1  311.97   11.70
   7   4   1  319.17   17.20
   7  -4  -1  333.17   13.80
  -7  -4   1  306.37   14.90
  -4  -7  -1  308.17   14.70
   4  -7   1  328.47   13.80
   4   7  -1  317.87   11.60
  -4   7  -1  303.17   14.20
  -7   4   1  321.57   11.90
  -7  -4  -1  323.57   15.50
  -7   4   1  301.97   13.60
  -4   7  -1  331.17   13.40
   4  -7  -1  313.07   13.00
   7   4  -1  333.37   13.00
   4   7   1  302.07   13.10
  -4  -7   1  320.67   13.80
  -7   4   1  307.37   16.90
  -7  -4  -1  318.37   16.00
   4  -7  -1  307.27   12.70
   4  -7  -1  319.07   12.30
   7  -4   1  322.37   13.30
  -4  -7   1  317.67   14.00
  -7  -4  -1  304.17   12.00
   7  -4   1  318.37   12.90
   7   4  -1  351.86   18.90
   4   7   1  305.17   12.10
   5   7  -1  236.98   10.20
  -7  -5   1  251.97   13.10
  -5  -7  -1  216.58   13.80
   5  -7   1  241.88   12.20
   5  -7   1  221.88   10.40
   5   7  -1  200.48   19.60
  -5   7   1  243.48   11.10
  -5  -7  -1  233.68   13.30
   7  -5  -1  230.58   10.60
  -7  -5   1  236.68   11.50
  -7   5  -1  228.08   12.30
   5  -7   1  228.58   11.30
  -5   7   1  209.08   12.10
   7   5   1  222.38   10.90
   7  -5  -1  224.58   11.80
   7  -5   1  228.88   11.50
  -7  -5  -1  224.28   10.30
  -5   7  -1  230.18   11.30
   5   7   1  213.48   11.60
  -5  -7   1  240.98   13.10
  -5   7  -1  238.28   12.70
   7  -5   1  240.28   11.10
  -7  -5  -1  232.08   14.80
   5  -7  -1  238.08   10.80
  -7   5   1  235.98   12.10
  -5  -7   1  247.38   12.60
   7   5  -1  237.08   11.00
   5   7   1  240.78   10.60
   5   7   1  232.98   15.20
  -7   5   1  219.78   10.20
  -7  -5  -1  216.58   13.80
   5  -7  -1  239.68   11.60
   7   5  -1  235.38   15.70
   5  -7  -1  230.48   11.30
  -5  -7   1  250.97   12.30
   7   6   1  180.68   10.30
   6   7  -1  148.49   13.30
   7  -6  -1  176.68    9.80
  -7  -6   1  179.78   10.70
   6   7  -1  174.18    9.50
  -7   6  -1  164.08   11.30
   7   6   1  193.58   15.80
   7  -6  -1  187.98   10.70
   6  -7   1  176.08   10.50
  -6  -7  -1  161.88   13.40
  -6   7   1  173.38   11.40
   7  -6  -1  155.08   10.80
  -7  -6   1  177.88   12.80
   6  -7   1  180.48   10.10
  -7  -6   1  176.58   12.60
  -7   6  -1  171.28   10.70
  -6  -7  -1  170.48   12.90
  -6   7   1  160.88   11.10
   7   6  -1  175.28    9.70
   6  -7  -1  161.78   10.40
  -7  -6  -1  183.18    9.90
   6  -7  -1  173.58   12.00
   6   7   1  169.58   11.50
   7  -6   1  187.78   10.40
  -6  -7   1  164.28   10.90
  -6   7  -1  192.08   10.70
   7  -6   1  153.88   10.70
  -6   7  -1  158.08   11.50
  -7   6   1  161.28   11.40
  -6  -7   1  159.58   12.40
   6  -7  -1  181.98    9.90
   7  -6   1  160.78   11.40
   6   7   1  174.28    9.80
  -7  -6  -1  169.78   13.80
  -7  -6  -1  167.08   12.90
   6   7   1  192.98   15.20
   7   6  -1  192.78   14.50
  -6  -7   1  177.08   12.30
  -7   6   1  169.68    9.30
   7  -7  -1  266.87   13.80
   7  -7  -1  272.97   13.20
  -7  -7   1  280.07   15.80
   7  -7  -1  264.07   12.40
  -7   7  -1  253.07   13.40
   7  -7   1  255.07   12.50
  -7  -7  -1  240.58   15.90
  -7   7   1  260.27   14.00
   7   7  -1  274.67   12.00
   7   7   1  239.78   16.60
  -7  -7  -1  250.57   15.20
   7  -7   1  251.77   13.00
  -7  -7   1  233.78   14.90
   7   7   1  244.28   12.00
  -7   7  -1  258.77   13.80
   7   7  -1  249.08   16.40
   7  -7   1  243.48   13.80
  -7  -7   1  256.77   14.40
   8   0  -1  723.63   23.20
   0  -8   1  745.83   23.00
   0  -8  -1  638.74   24.30
   0   8   1  803.72   26.10
   8   0  -1  699.53   25.60
  -8   0  -1  733.43   26.70
   0   8   1  734.53   21.80
   0   8  -1  726.63   20.60
  -8   0   1  707.43   24.00
   0   8   1  738.23   24.80
   8   0   1  737.23   22.90
   0  -8   1  728.13   23.50
   8   0   1  709.83   27.80
  -8   0   1  723.83   23.70
  -8   0   1  765.52   23.50
  -8   0  -1  764.12   22.70
   0  -8  -1  744.53   23.30
   0   8  -1  716.53   24.80
   8  -1  -1  371.06   14.90
   1   8  -1  343.57   11.50
   8   1   1  355.76   18.80
  -8   1  -1  354.16   13.80
   1   8  -1  360.56   15.90
  -1   8   1  353.26   14.70
  -1   8   1  352.16   12.40
  -8  -1   1  360.16   14.30
  -1  -8  -1  356.56   14.70
  -8  -1   1  355.06   15.00
  -1   8   1  348.07   15.40
   1  -8   1  363.06   13.80
  -8   1  -1  344.47   18.30
  -8  -1   1  358.86   15.60
  -1  -8  -1  332.47   13.90
   1  -8   1  349.07   14.30
   8   1   1  362.96   14.10
  -8   1   1  360.76   15.20
   8  -1   1  357.06   15.10
   8   1  -1  310.37   16.90
   1   8   1  351.06   12.50
  -8   1   1  332.77   15.50
   1   8   1  355.36   21.50
  -8  -1  -1  340.97   17.20
   1  -8  -1  361.46   13.50
   8  -1   1  354.66   14.00
  -8  -1  -1  322.97   13.70
  -1   8  -1  353.06   14.90
   1   8   1  345.87   14.50
  -8  -1  -1  362.76   17.30
   8   1  -1  362.56   14.20
  -1  -8   1  354.16   13.80
  -1   8  -1  355.46   15.60
  -1  -8   1  351.26   14.30
  -8   1   1  366.86   14.50
  -1   8  -1  352.26   11.40
   1  -8  -1  317.37   19.00
  -2   8   1  306.07   13.70
  -8  -2   1  297.47   14.00
  -8   2  -1  299.27   18.00
   2  -8   1  298.87   13.10
   8  -2  -1  312.97   13.60
   8  -2  -1  280.07   12.40
   2  -8   1  297.97   12.60
  -2  -8  -1  303.37   13.40
  -8   2  -1  293.27   13.60
  -2  -8  -1  288.87   14.10
   2   8  -1  293.97   10.70
  -2   8   1  285.47   13.40
   2   8  -1  302.67   14.80
   8   2   1  299.57   12.70
  -8  -2   1  298.97   14.40
   8   2   1  285.87   17.30
  -8  -2   1  298.37   13.00
  -2   8   1  294.97   12.00
   2   8  -1  281.57   15.50
  -2  -8   1  302.87   13.10
  -8   2   1  303.37   15.40
   8  -2   1  301.87   13.30
   2   8   1  308.97   13.50
   2  -8  -1  290.67   12.00
  -8  -2  -1  299.47   12.10
  -2  -8   1  289.47   13.50
   2   8   1  317.17   11.70
  -8  -2  -1  278.27   18.00
  -8   2   1  317.37   13.20
   8   2  -1  296.57   12.90
   2  -8  -1  309.47   12.80
  -8  -2  -1  284.47   16.40
   8   2  -1  288.97   16.30
   8  -2   1  311.37   13.00
  -2   8  -1  305.37   14.50
   2   8   1  295.17   14.50
  -2   8  -1  314.67   13.70
  -8   2   1  306.27   12.50
  -8   3  -1  269.07   12.80
  -8  -3   1  260.27   12.40
   3  -8   1  268.67   12.60
  -3   8   1  245.28   12.70
  -8   3  -1  289.67   18.60
  -3   8   1  270.57   13.00
  -3  -8  -1  271.87   13.70
  -3  -8  -1  253.07   13.20
   8  -3  -1  272.27   11.60
   8   3   1  271.77   12.00
   3  -8   1  266.07   10.40
  -8  -3   1  251.17   13.40
   8  -3  -1  277.57   13.10
  -8   3  -1  282.87   12.70
   8   3   1  246.58   17.10
   3   8  -1  254.37   13.80
  -8  -3   1  279.77   14.50
  -3   8   1  263.47   11.50
   3  -8   1  257.47   11.80
  -8  -3  -1  249.78   15.70
  -8   3   1  253.87   11.50
  -3   8  -1  252.07   13.70
  -8  -3  -1  243.98   11.10
  -8  -3  -1  262.87   15.00
   8  -3   1  259.47   12.30
  -3  -8   1  267.97   12.70
  -8   3   1  285.57   15.50
   3  -8  -1  278.97   11.50
   8  -3   1  266.77   12.10
   3  -8  -1  263.67   11.90
  -3  -8   1  247.28   12.30
  -8   3   1  264.97   12.60
   3   8   1  268.47   11.00
  -3   8  -1  259.87   12.80
   8   3  -1  274.37   12.30
   3   8   1  260.37   12.80
   3   8   1  257.77   15.30
   4  -8   1  262.87   13.00
  -8   4  -1  270.17   19.40
   4   8  -1  262.97   10.80
  -8  -4   1  288.97   14.30
  -4   8   1  272.27   13.00
  -4  -8  -1  257.67   14.00
  -4   8   1  247.98   12.90
   8  -4  -1  263.07   13.20
  -8   4  -1  254.87   13.20
  -8  -4   1  271.87   14.90
   8  -4  -1  266.77   11.50
   4  -8   1  277.97   11.10
   4   8  -1  266.47   14.90
   8   4   1  250.47   11.90
  -4  -8  -1  274.27   14.00
  -8  -4   1  279.87   13.00
   4  -8   1  280.37   12.50
  -4  -8   1  238.28   12.90
   8   4  -1  264.07   12.30
  -8  -4  -1  253.47   11.50
   4   8   1  276.37   11.50
  -4   8  -1  248.48   13.50
   4   8   1  289.17   16.20
   4  -8  -1  249.38   12.30
  -8  -4  -1  268.27   15.60
   4   8   1  248.78   12.90
  -8   4   1  271.77   17.10
   8  -4   1  266.17   12.40
  -8   4   1  268.87   11.50
   8  -4   1  262.97   12.40
  -8   4   1  262.27   13.00
  -4  -8   1  267.77   13.50
  -8  -4  -1  261.07   16.10
   4  -8  -1  270.67   12.50
   4  -8  -1  250.67   11.50
   8   4  -1  238.48   16.10
  -8  -5   1  251.77   14.70
   5   8  -1  244.08   15.70
  -8   5  -1  259.37   13.00
   8   5   1  255.57   17.20
   8   5   1  245.88   11.60
  -5  -8  -1  258.77   14.40
   8  -5  -1  243.78   13.30
   5  -8   1  254.27   12.40
   5  -8   1  231.38   12.70
  -8   5  -1  238.88   21.00
  -8  -5   1  243.58   12.50
  -5   8   1  265.27   13.50
  -5   8   1  240.68   11.90
  -5  -8  -1  256.57   14.80
   5  -8   1  254.07   11.30
  -8  -5   1  245.28   14.20
   5   8  -1  247.88   10.90
  -8   5  -1  252.27   13.30
  -5  -8   1  257.77   13.20
   5  -8  -1  258.27   12.40
  -8   5   1  251.47   13.30
   5   8   1  240.08   13.10
   5   8   1  245.28   11.40
   5  -8  -1  243.48   11.60
   5  -8  -1  254.07   12.50
  -5   8  -1  225.28   13.40
  -8  -5  -1  236.48   15.80
  -5   8  -1  269.67   13.60
  -8   5   1  262.17   18.20
  -8   5   1  247.68   11.30
  -8  -5  -1  258.07   15.50
   5   8   1  240.58   16.10
   8   5  -1  263.77   12.30
  -5  -8   1  232.28   13.70
  -8  -5  -1  245.68   11.50
   8  -5   1  253.67   12.20
  -8  -6   1  164.88   13.40
  -6  -8  -1  144.79   12.90
  -8   6  -1  167.68   11.90
  -8  -6   1  163.48   12.10
   8   6   1  160.18   17.00
  -8   6  -1  168.78   11.70
   6  -8   1  150.48   10.40
  -6  -8  -1  180.88   14.10
  -6   8   1  166.98   10.90
  -6   8   1  181.38   11.70
   8  -6  -1  165.28   10.80
   6   8  -1  170.78   14.50
   6  -8   1  162.88   11.20
   8   6   1  157.08   10.10
   8  -6  -1  143.39   11.40
   6  -8   1  153.68   11.40
  -8  -6   1  153.38   13.90
  -6  -8   1  159.98   12.30
  -6   8  -1  168.18   11.80
   6  -8  -1  163.38   10.90
  -8   6   1  162.18   10.30
  -8  -6  -1  169.48   14.50
  -8  -6  -1  147.59   13.70
   8   6  -1  161.08   16.30
   8  -6   1  152.38   11.30
  -6   8  -1  180.88   11.50
   6   8   1  153.28   12.00
   8   6  -1  167.48   10.20
   6  -8  -1  161.78   10.80
   6   8   1  162.78   10.00
  -8   6   1  156.88   11.70
   6  -8  -1  179.08   10.10
   8  -6   1  167.58   11.20
   6   8   1  165.78   15.50
  -8  -6  -1  160.58   10.30
  -6  -8   1  168.58   11.80
   7  -8   1  191.08   12.60
  -8  -7   1  185.78   12.20
  -7  -8  -1  173.58   14.70
  -8  -7   1  182.08   14.40
  -7   8   1  166.88   12.40
   8   7   1  182.58   11.00
  -8  -7   1  199.68   13.70
   8   7   1  169.48   17.70
  -8   7  -1  180.38   12.00
   8  -7  -1  167.78   12.30
  -7  -8  -1  168.68   13.90
   7   8  -1  178.88   16.10
  -7   8   1  161.98   11.60
   8  -7  -1  181.08   12.70
  -8   7  -1  170.48   12.20
   7   8  -1  168.28   10.50
   7  -8   1  169.58   17.40
   8  -7  -1  173.78   13.50
   7  -8   1  177.38   12.10
   8  -7   1  161.78   11.50
   8  -7   1  174.28   12.30
  -7   8  -1  168.68   12.30
   7   8   1  179.98   17.20
   8   7  -1  178.08   10.60
  -7  -8   1  182.98   13.50
   7   8   1  160.18   13.60
   7  -8  -1  156.38   12.40
   7  -8  -1  182.68   11.00
  -8   7   1  169.38   12.10
  -7  -8   1  172.98   12.60
   7   8   1  182.48   10.90
  -8  -7  -1  182.88   14.60
   7  -8  -1  158.58   13.20
   8  -7   1  160.68   13.00
   8   7  -1  149.29   17.30
  -8  -7  -1  156.68   15.20
  -7  -8   1  173.38   13.50
  -8   7   1  177.48   10.90
  -7   8  -1  186.28   12.10
   8  -8   1  138.99   11.40
   8   8   1  134.69   10.70
   8   8  -1  143.19   10.90
   8   8  -1  110.49   16.50
  -8   8  -1  126.69   11.60
   8  -8  -1  138.19   12.30
   8   8   1  118.39   17.50
  -8  -8   1  156.98   13.90
  -8   8  -1  166.28   12.30
  -8   8   1  137.69   11.50
   8  -8   1   94.29   13.20
   8   8   1  138.19   13.80
  -8  -8   1  148.59   14.10
  -8  -8  -1  142.99   14.40
   8  -8  -1  137.29   11.40
  -8  -8   1  138.69   12.80
  -8  -8  -1  145.39   16.50
   8  -8   1  134.09   12.00
  -8   8   1  134.99   12.40
   9   0  -1  835.32   26.20
   0  -9   1  837.42   26.30
   0  -9  -1  819.32   26.30
   0  -9  -1  826.02   25.70
  -9   0  -1  823.72   25.50
  -9   0  -1  813.52   29.40
   0   9  -1  851.21   27.20
   0   9   1  831.22   24.30
   9   0   1  824.72   25.60
   0   9   1  801.92   26.80
  -9   0   1  831.32   26.30
  -9   0   1  873.51   33.30
   0   9   1  793.62   27.40
  -9   0  -1  815.42   29.70
   0  -9   1  814.32   25.70
   9   0  -1  795.42   29.40
   0   9  -1  810.32   27.70
   0   9  -1  828.82   23.20
  -9   0   1  793.92   27.00
   9   0   1  802.92   31.30
  -1  -9  -1  527.55   19.20
  -1   9   1  565.44   21.00
  -1   9   1  563.34   17.80
   1   9  -1  565.24   21.40
  -9   1  -1  548.55   23.60
   1  -9   1  523.75   19.20
   9  -1  -1  540.75   19.40
  -9  -1   1  537.15   21.10
  -9  -1   1  564.74   20.00
   9   1   1  541.55   19.00
  -1   9   1  550.24   20.10
  -9  -1   1  560.74   20.70
   9   1   1  533.95   24.70
  -9   1  -1  558.24   19.10
   1   9  -1  558.24   20.90
   1  -9   1  546.45   19.00
  -1  -9  -1  544.05   19.90
   1   9  -1  552.04   16.90
  -9   1   1  524.95   20.80
   1  -9  -1  536.55   19.10
   9   1  -1  533.75   19.50
   9  -1   1  522.75   20.60
  -1   9  -1  551.34   21.10
  -9  -1  -1  580.54   19.10
  -9   1   1  533.95   20.60
  -1   9  -1  565.64   16.70
   9   1  -1  546.25   23.20
   1  -9  -1  539.05   18.80
   1   9   1  544.25   17.70
   1   9   1  570.44   21.80
  -1  -9   1  512.65   19.30
  -9  -1  -1  557.64   23.80
   1   9   1  562.54   20.20
  -9   1   1  600.44   20.30
  -9   1   1  546.95   19.10
   9  -1   1  559.24   19.00
  -1   9  -1  568.94   20.50
  -1  -9   1  544.85   19.20
  -9  -1  -1  540.95   23.70
  -2   9   1  401.76   14.20
   2  -9   1  405.86   15.60
  -9   2  -1  412.56   15.90
  -9  -2   1  386.96   17.30
  -2   9   1  378.16   16.40
   2   9  -1  402.36   17.70
   9   2   1  409.06   15.90
   9   2   1  381.56   21.80
  -9   2  -1  392.86   17.50
   2  -9   1  392.76   15.90
   9  -2  -1  391.56   16.40
  -2  -9  -1  386.86   15.90
  -9   2  -1  418.86   21.10
  -2   9   1  377.56   16.70
  -9  -2   1  415.86   17.30
  -2  -9  -1  385.16   16.50
   2   9  -1  401.46   17.60
   2   9  -1  396.76   13.50
  -9  -2   1  381.56   18.20
   2  -9  -1  400.76   15.30
  -9   2   1  404.16   16.50
   9   2  -1  402.86   15.90
   9   2  -1  352.66   21.50
   9  -2   1  401.06   15.90
  -2  -9   1  405.16   15.90
  -9   2   1  392.06   17.90
  -2   9  -1  409.36   17.70
  -9  -2  -1  408.46   15.40
   2   9   1  395.56   16.70
  -9   2   1  386.96   15.50
  -2   9  -1  419.76   16.90
   9  -2   1  393.96   17.00
  -9  -2  -1  405.06   28.30
  -9  -2  -1  379.36   18.60
   2   9   1  395.26   14.30
   2  -9  -1  396.86   15.80
   2   9   1  404.46   18.20
  -2  -9   1  391.76   16.30
  -9   3  -1  313.57   14.30
   3  -9   1  316.07   14.20
   9  -3  -1  293.97   14.50
   3  -9   1  317.97   12.10
   9  -3  -1  318.87   14.10
  -9   3  -1  340.77   20.50
   3  -9   1  333.47   14.00
   3   9  -1  311.77   15.90
  -3  -9  -1  321.47   14.70
  -9   3  -1  317.87   14.90
   3   9  -1  318.17   11.90
   3   9  -1  317.87   16.30
  -9  -3   1  315.97   16.60
  -9  -3   1  301.37   15.90
   9   3   1  312.47   13.70
  -3   9   1  318.47   14.70
  -3   9   1  329.67   15.00
  -3  -9  -1  309.57   15.30
  -3  -9   1  330.57   14.90
   9   3  -1  308.07   13.90
  -3  -9   1  315.47   14.20
   3  -9  -1  289.37   13.10
  -3   9  -1  335.57   14.70
   3   9   1  315.47   14.70
  -9  -3  -1  358.96   17.70
   3   9   1  314.17   12.60
   3   9   1  308.97   16.50
   9  -3   1  306.87   13.80
  -3   9  -1  328.47   15.70
   3  -9  -1  299.57   13.80
  -9   3   1  331.37   17.50
  -9   3   1  325.37   14.60
   9   3  -1  310.47   17.90
  -9   3   1  313.07   13.60
  -9  -3  -1  314.87   18.30
   9  -3   1  263.47   15.70
  -9  -4   1  327.87   16.50
   9   4   1  318.87   20.00
  -9   4  -1  327.57   15.10
  -4   9   1  334.17   15.50
   4   9  -1  338.27   12.70
   9   4   1  337.37   14.40
   4  -9   1  319.07   15.00
   4  -9   1  337.37   14.50
   4   9  -1  332.47   16.70
  -9   4  -1  336.77   15.40
  -4  -9  -1  336.07   16.10
  -4  -9  -1  338.37   15.60
  -9   4  -1  361.26   22.90
   4   9  -1  318.17   16.90
  -9  -4   1  327.37   16.90
  -4   9   1  324.57   15.40
   4  -9   1  317.27   12.90
   9  -4  -1  314.57   15.30
  -9  -4  -1  324.17   17.70
  -9   4   1  358.56   19.30
   4  -9  -1  323.77   14.30
   4   9   1  319.67   13.10
  -4   9  -1  310.97   14.60
   4   9   1  328.37   17.90
  -4  -9   1  317.17   15.30
   4  -9  -1  328.17   13.90
  -9   4   1  325.37   15.00
   4   9   1  333.17   15.30
  -4   9  -1  343.77   15.90
  -9  -4  -1  352.36   18.20
  -9  -4  -1  275.67   14.90
   9   4  -1  317.57   14.20
  -4  -9   1  332.07   14.90
   9  -4   1  332.57   14.50
   4  -9  -1  326.57   14.20
   9  -4   1  324.87   16.00
  -9   4   1  345.27   13.90
   9   4  -1  313.37   19.00
   9  -5  -1  201.98   12.70
   9   5   1  199.88   11.20
   5  -9   1  154.08   13.40
  -9   5  -1  210.18   21.20
  -5   9   1  193.68   12.40
  -9  -5   1  196.38   12.60
   5   9  -1  211.28   15.60
  -5  -9  -1  213.08   14.00
   5  -9   1  199.68   11.80
   5   9  -1  185.18   10.10
  -9   5  -1  199.98   12.70
   9  -5  -1  196.38   11.60
  -5   9   1  216.28   12.60
  -9  -5   1  213.48   14.50
   5   9  -1  204.28   14.60
  -9   5  -1  210.88   12.90
   5  -9   1  193.18   12.50
   9   5   1  208.18   18.30
  -9  -5   1  195.58   14.20
  -5  -9  -1  189.98   14.40
   9  -5   1  175.68   11.90
   5  -9  -1  211.38   11.80
   9   5  -1  201.38   11.90
  -9   5   1  202.28   19.30
  -9  -5  -1  203.28   16.30
  -9   5   1  205.78   12.60
  -5  -9   1  206.78   12.80
  -9  -5  -1  212.78   13.30
  -9  -5  -1  202.68   15.20
   5   9   1  223.78   13.30
  -5   9  -1  199.58   12.90
   5   9   1  208.68   16.40
   5   9   1  192.38   10.70
   9   5  -1  194.18   17.40
   9  -5   1  198.38   11.90
   5  -9  -1  187.08   11.30
  -5  -9   1  188.38   12.40
  -9   5   1  211.08   11.30
  -5   9  -1  208.58   12.50
  -9  -6   1  110.59   13.40
  -6  -9  -1  136.19   13.60
   6  -9   1  124.49   10.60
   6   9  -1  116.29   14.60
   9  -6  -1  149.59   12.30
   6   9  -1  138.79    9.50
  -9  -6   1  140.09   11.50
  -6   9   1  141.99   11.20
  -6  -9  -1  125.79   13.00
  -9   6  -1  143.89   22.40
  -9   6  -1  151.48   12.10
   9   6   1  132.09   10.00
  -9  -6   1  143.99   13.40
   9   6   1  159.38   17.70
  -6   9   1  129.39   11.20
  -9   6  -1  148.29   21.00
   6  -9   1  112.59   11.60
   6  -9   1  131.19   11.10
   6   9  -1  128.69   13.90
   9  -6  -1  146.09   11.30
   6  -9  -1  147.79   10.60
  -6   9  -1  135.09   11.50
   9   6  -1  136.29   10.30
  -6  -9   1  142.59   11.90
  -9  -6  -1  116.39   13.90
   6  -9  -1  145.79   11.20
   6   9   1  128.89   12.20
   9  -6   1  130.39   11.30
  -6   9  -1  119.89   11.50
   6   9   1  137.29   16.10
  -9   6   1  119.19   20.10
  -9   6   1  137.39   11.50
  -6  -9   1  138.19   12.30
   6  -9  -1  142.19   11.50
   6   9   1  135.49    9.80
  -9  -6  -1  136.79   15.40
  -9   6   1  101.19   11.80
   9   6  -1  140.59   17.50
   9  -6   1  149.59   11.70
   7  -9   1  190.68   16.00
   7   9  -1  170.68   16.60
   7   9  -1  178.98   11.20
   9  -7  -1  179.18   13.80
   9   7   1  183.28   11.60
  -9   7  -1  208.18   13.40
  -7  -9  -1  173.88   15.30
   7  -9   1  179.98   13.70
  -7   9   1  182.08   13.10
  -7  -9  -1  180.58   14.60
  -7   9   1  202.38   12.60
   7  -9   1  173.58   12.40
   9  -7  -1  185.68   13.10
  -9   7  -1  171.18   24.30
  -9   7  -1  184.08   13.10
  -9  -7   1  187.88   15.50
  -9  -7   1  163.58   13.30
  -9  -7   1  194.28   15.00
   9   7   1  152.68   19.00
  -7  -9   1  185.08   13.90
  -9  -7  -1  170.28   16.50
   9   7  -1  178.08   11.40
  -9   7   1  160.68   11.80
   7   9   1  178.28   17.20
   7  -9  -1  190.68   12.40
  -9   7   1  174.58   12.70
   7   9   1  175.98   13.80
  -7   9  -1  198.58   13.50
   9  -7   1  170.78   13.30
  -9  -7  -1  154.88   12.90
   9  -7   1  172.98   12.60
   7  -9  -1  186.58   12.80
   7  -9  -1  176.38   13.50
  -9   7   1  192.48   22.70
  -9  -7  -1  165.68   15.20
  -7   9  -1  185.08   12.90
   7   9   1  171.38   11.30
  -7  -9   1  179.28   14.20
   9   7  -1  199.08   18.90
   8  -9   1  120.09   11.90
  -9   8  -1  134.79   12.60
   9  -8  -1  135.89   12.70
   8  -9   1  119.09   13.50
  -9   8  -1  141.49   13.10
   9   8   1  118.89   20.00
  -9  -8   1  147.99   14.80
  -8   9   1  123.09   12.50
   8   9  -1  146.49   17.80
  -9  -8   1  119.39   13.60
  -8  -9  -1   92.59   15.10
  -8   9   1  119.79   12.00
   9  -8  -1  128.69   12.30
   8   9  -1  133.29   10.80
  -9  -8   1  142.09   16.20
   9   8   1  108.49   10.60
   8  -9   1  146.99   12.70
  -8  -9  -1  131.99   14.60
  -9  -8  -1  123.69   14.70
  -9   8   1   96.79   12.50
  -8  -9   1  135.09   13.50
  -8   9  -1  122.89   12.30
   9   8  -1  131.79   10.80
   8   9   1  127.49   10.70
  -9  -8  -1  144.49   16.70
   8   9   1  124.19   18.80
   8  -9  -1  131.49   13.10
   9  -8   1  120.49   11.70
   9   8  -1  153.98   19.00
   9  -8   1  141.59   13.30
  -8   9  -1  123.29   12.10
  -9   8   1  124.59   12.60
  -8  -9   1  116.49   13.90
   8   9   1  126.79   14.40
   8  -9  -1  121.09   12.90
   8  -9  -1  145.29   12.50
   9  -9  -1   40.30    9.10
   9   9  -1   41.40   13.00
   9  -9  -1   25.80    9.40
  -9   9   1   40.20    8.50
  -9  -9  -1   45.40   10.70
  -9   9   1   30.70    8.80
   9   9   1   32.70   11.10
   9   9  -1   33.10    7.60
   9   9   1   32.20    7.60
   9  -9   1   34.10    9.60
  -9   9  -1   43.50    9.10
  -9  -9   1   47.20   10.10
   9  -9  -1   35.20    9.20
  -9   9  -1   29.30    8.40
   9  -9   1   40.30    9.40
   9   9   1   56.49   14.20
  -9  -9  -1   33.30   10.90
  -9  -9   1   43.30   10.60
   9  -9   1   36.20    9.00
   0  10  -1  477.35   19.30
   0  10  -1  474.25   19.80
   0  10  -1  484.65   15.00
   0 -10  -1  485.85   17.70
   0  10   1  481.15   19.10
  10   0  -1  466.15   18.30
 -10   0  -1  512.25   33.90
 -10   0   1  465.65   20.40
 -10   0  -1  439.26   17.70
  10   0   1  456.35   17.40
 -10   0   1  468.95   18.90
 -10   0   1  426.06   19.60
   0 -10  -1  470.05   18.00
 -10   0  -1  449.36   21.70
   0  10   1  482.15   20.30
   0  10   1  475.45   16.10
   0 -10   1  453.25   18.00
   0 -10   1  466.05   17.60
  10   0  -1  432.66   22.90
  10   0   1  495.55   25.40
  -1  10   1  283.17   14.20
 -10   1  -1  257.27   13.90
  -1  10   1  267.07   15.00
   1 -10   1  276.97   13.40
 -10  -1   1  256.97   15.90
  -1 -10  -1  282.37   14.00
 -10  -1   1  282.27   15.00
  10   1   1  236.68   20.50
   1  10  -1  288.77   15.70
  -1  10   1  277.77   11.60
 -10  -1   1  273.77   16.10
   1 -10   1  283.97   13.10
  10   1   1  281.47   13.40
  -1 -10  -1  276.87   13.60
   1  10  -1  270.07   10.70
 -10   1  -1  292.07   15.70
 -10   1  -1  287.77   19.40
   1  10  -1  287.87   15.30
  10  -1  -1  289.47   14.10
 -10   1   1  251.27   14.30
   1  10   1  308.77   16.40
   1 -10  -1  275.87   13.30
 -10   1   1  265.27   17.10
   1  10   1  290.07   11.70
  -1  10  -1  260.47   10.60
 -10   1   1  280.17   14.20
  10   1  -1  310.67   30.10
  10  -1   1  271.47   13.60
 -10   1   1  242.48   16.60
  -1  10  -1  289.27   15.00
  -1 -10   1  278.87   13.00
   1 -10  -1  271.97   12.70
  10   1  -1  281.47   14.00
 -10  -1  -1  280.17   18.80
 -10  -1  -1  317.37   20.80
  -1 -10   1  288.77   13.10
 -10  -1  -1  272.87   17.80
  -1  10  -1  291.67   14.90
   1  10   1  289.57   14.50
  10  -2  -1  256.57   13.70
   2  10  -1  249.58   10.40
 -10   2  -1  253.57   19.50
  10   2   1  220.98   20.20
   2  10  -1  233.88   14.80
  -2  10   1  258.47   11.50
 -10   2  -1  273.27   15.10
 -10  -2   1  252.47   17.40
 -10  -2   1  262.17   13.90
 -10   2  -1  246.58   13.40
  -2  10   1  247.08   13.70
  -2 -10  -1  259.97   13.20
 -10  -2   1  265.97   16.00
   2 -10   1  250.87   12.90
  10   2   1  246.48   12.80
   2 -10   1  254.97   12.80
  -2 -10  -1  235.18   13.60
   2  10  -1  248.68   15.00
  -2  10   1  263.57   14.30
  -2 -10   1  263.17   13.00
 -10  -2  -1  267.77   17.10
  -2 -10   1  249.08   12.50
  10   2  -1  255.07   12.80
   2  10   1  257.47   13.80
  10  -2   1  237.28   12.90
  10  -2   1  249.28   14.60
   2 -10  -1  256.47   12.40
 -10  -2  -1  263.67   13.20
 -10   2   1  251.87   16.70
 -10   2   1  239.68   13.50
   2  10   1  236.38   10.90
 -10  -2  -1  230.88   17.60
   2 -10  -1  260.27   12.90
  -2  10  -1  243.68   14.20
  10   2  -1  214.98   18.10
 -10   2   1  249.58   13.60
  -2  10  -1  256.97   14.10
   2  10   1  257.67   15.40
 -10   2   1  226.48   24.20
 -10   3  -1  147.59   12.80
  -3  10   1  160.08   11.80
  10  -3  -1  130.19   12.50
  10   3   1  172.38   17.70
   3  10  -1  138.79   12.80
 -10   3  -1  141.69   11.20
  10   3   1  146.39   10.50
   3 -10   1  156.38    9.40
  -3 -10  -1  145.99   11.40
   3 -10   1  142.79   10.70
 -10  -3   1  157.28   14.40
 -10  -3   1  111.29   14.50
 -10  -3   1  144.49   11.20
   3  10  -1  157.68    8.60
  10  -3  -1  131.99   11.20
   3 -10   1  159.38   10.60
 -10   3  -1  145.99   18.90
  -3 -10  -1  137.79   11.70
   3  10  -1  147.49   13.00
  -3  10   1  149.88   11.30
   3  10   1  149.79    8.90
  10   3  -1  145.69   16.10
   3 -10  -1  143.89   10.10
 -10   3   1  137.99   15.30
  10   3  -1  135.69   10.80
 -10   3   1  120.59   11.10
  10  -3   1  155.28   12.40
 -10  -3  -1  137.59   10.80
 -10  -3  -1  162.98   15.40
 -10   3   1  152.88   11.50
  -3  10  -1  125.39   11.70
   3  10   1  148.79   14.40
  -3  10  -1  136.39   11.20
 -10  -3  -1  132.59   16.00
  10  -3   1  157.28   11.10
  -3 -10   1  142.79   11.20
   3  10   1  138.89   11.80
  -3 -10   1  154.48   10.60
   4 -10   1  195.88   12.20
   4  10  -1  199.88   10.10
  -4 -10  -1  218.78   13.20
 -10   4  -1  260.17   29.50
  10   4   1  204.88   18.80
  -4  10   1  189.68   12.90
 -10  -4   1  211.18   15.70
 -10   4  -1  191.08   12.70
  10  -4  -1  205.28   13.30
 -10  -4   1  208.28   15.90
   4  10  -1  202.48   15.20
 -10   4  -1  222.98   14.30
   4 -10   1  205.28   11.20
   4  10  -1  216.48   14.90
  -4 -10  -1  194.48   13.50
   4 -10   1  187.68   12.80
  10   4   1  200.78   12.10
  -4  10   1  218.88   13.50
  10  -4  -1  221.18   13.30
 -10  -4   1  200.58   13.40
  10   4  -1  202.98   11.90
 -10  -4  -1  224.28   16.80
   4  10   1  221.58   13.70
  10  -4   1  223.78   14.10
  -4  10  -1  220.98   13.30
 -10   4   1  198.68   12.20
 -10   4   1  216.98   18.40
  10  -4   1  223.38   12.80
  10   4  -1  203.28   18.10
   4 -10  -1  214.88   12.40
 -10  -4  -1  203.38   17.60
   4 -10  -1  216.18   13.80
   4  10   1  218.38   16.50
   4 -10  -1  215.68   11.80
  -4 -10   1  206.38   12.60
 -10   4   1  198.98   12.70
  -4  10  -1  208.78   12.80
  -4 -10   1  197.78   12.40
 -10  -4  -1  202.18   12.60
   4  10   1  192.18   10.90
  -5 -10  -1  136.39   12.90
  10  -5  -1  134.49   12.60
  -5  10   1  150.88   11.90
  10  -5  -1  160.18   12.70
  -5  10   1  138.89   11.60
 -10  -5   1  136.19   12.50
  10   5   1  134.19   10.60
   5  10  -1  156.58   15.70
   5  10  -1  163.08    9.70
   5  10  -1  162.28   14.00
   5 -10   1  123.39   11.00
 -10   5  -1  121.19   21.80
 -10  -5   1  140.59   14.60
 -10  -5   1  137.29   14.20
   5 -10   1  142.39   11.90
  -5 -10  -1  131.39   12.70
 -10   5  -1  138.29   11.90
  10   5   1  133.89   18.20
  10   5  -1  159.58   18.10
  -5  10  -1  141.19   11.90
  -5  10  -1  150.98   11.70
 -10   5   1  147.49   10.60
 -10   5   1  113.69   11.40
   5 -10  -1  147.59   11.60
  -5 -10   1  146.19   11.80
  10  -5   1  147.59   11.70
 -10  -5  -1  171.18   15.30
  10   5  -1  124.99   10.90
  10  -5   1  151.98   12.50
   5 -10  -1  142.39   10.70
 -10  -5  -1  123.89   16.10
 -10   5   1  144.99   19.40
 -10  -5  -1  124.39   11.40
   5 -10  -1  143.49   11.60
  -5 -10   1  135.89   13.10
   5  10   1  135.69    9.50
   5  10   1  124.69   12.60
   5  10   1  170.78   16.30
   6  10  -1   86.29    9.00
 -10  -6   1   89.89   15.00
  -6 -10  -1   99.09   13.00
  -6  10   1   75.79   11.00
 -10   6  -1  109.19   17.60
  10   6   1  102.09   18.60
  10  -6  -1   75.99   10.70
 -10   6  -1   85.19   11.30
 -10  -6   1  119.89   13.90
 -10   6  -1  103.79   12.80
  10  -6  -1  103.59   11.90
   6 -10   1   96.49   11.40
  10   6   1   99.19   10.30
  -6 -10  -1   99.59   12.30
   6  10  -1   85.09   14.80
  -6  10   1  109.29   11.00
   6 -10   1   98.99   11.00
   6 -10   1   88.69   10.80
   6  10  -1   81.59   12.20
 -10  -6   1  124.09   12.20
   6 -10  -1   90.49   10.50
 -10   6   1  107.19   15.30
 -10  -6  -1   86.59   12.70
  10   6  -1  140.89   18.60
 -10  -6  -1   99.99   11.70
  -6 -10   1  104.29   11.70
 -10   6   1   99.59   11.60
  -6 -10   1   93.49   11.70
  10  -6   1   93.69   10.90
   6 -10  -1   93.89   11.40
 -10   6   1   75.99   10.50
  10   6  -1   74.19   10.00
   6  10   1   93.19   12.50
  -6  10  -1  115.79   11.60
 -10  -6  -1   88.09   12.20
  -6  10  -1  103.89   11.50
   6  10   1   94.79    9.30
   6 -10  -1  102.99   10.80
   6  10   1  107.89   16.50
  10  -6   1   88.19   11.90
   7 -10   1   99.89   14.70
 -10   7  -1  130.29   19.00
  -7 -10  -1  115.39   14.10
 -10  -7   1  121.49   15.00
  -7 -10  -1   96.29   13.40
 -10   7  -1  107.89   12.50
   7  10  -1  127.99   16.60
  -7  10   1  117.09   12.80
   7  10  -1  118.09   16.90
   7 -10   1  113.19   11.90
  10   7   1  121.39   10.70
 -10  -7   1  109.69   14.90
 -10   7  -1  129.29   13.00
  10  -7  -1   96.39   12.40
 -10  -7   1  125.49   14.00
  -7  10   1  124.09   11.70
  10   7   1  132.39   20.50
   7  10  -1  101.89    9.90
  10  -7  -1  108.69   13.20
   7 -10   1  115.89   13.10
   7  10   1  123.49   10.60
  -7  10  -1  116.59   12.30
 -10   7   1  108.29   12.00
   7 -10  -1  125.99   13.20
 -10   7   1  197.58   24.20
  10   7  -1  129.69   20.20
   7 -10  -1   91.69   12.20
 -10  -7  -1  117.59   15.40
 -10  -7  -1  106.09   13.30
  10   7  -1  139.89   11.10
   7  10   1  155.68   18.90
   7 -10  -1  117.29   11.70
  10  -7   1  136.39   12.40
  -7 -10   1  104.39   12.30
  10  -7   1  123.29   13.20
 -10  -7  -1  135.49   17.10
 -10   7   1  104.19   12.00
  -7  10  -1  119.19   12.10
  -7 -10   1  112.69   13.30
   7  10   1   97.49   12.80
  10   8   1   83.49   10.60
   8 -10   1  109.49   11.30
 -10   8  -1   95.99   20.20
 -10   8  -1   98.49   12.70
   8  10  -1   87.89   13.90
   8 -10   1   93.59   14.70
 -10  -8   1   85.99   14.20
   8 -10   1   60.39    9.40
  -8 -10  -1   90.09   11.80
  10  -8  -1   98.29   13.70
  -8  10   1   87.79   12.80
   8  10  -1   82.89   14.80
 -10  -8   1   94.59   13.60
 -10   8  -1   96.89   13.20
  10   8   1   81.99   15.60
 -10  -8   1   92.39   12.80
  10  -8  -1  101.79   12.60
   8  10  -1   89.49   10.20
  10  -8   1   95.19   11.80
  -8 -10   1  103.89   14.00
   8 -10  -1  108.29   13.40
  -8  10  -1   96.19   13.20
 -10   8   1   97.69   19.30
 -10   8   1  101.69   12.40
   8 -10  -1  101.09   12.20
 -10  -8  -1   99.69   13.10
   8  10   1   81.89   10.60
   8 -10  -1   93.59   13.80
  10   8  -1   84.09   10.60
 -10   8   1   89.19   16.40
 -10  -8  -1   97.39   17.30
  -8 -10   1   85.09   12.70
  10   8  -1   71.89   14.40
  10  -8   1   97.89   13.30
   8  10   1  121.39   20.00
 -10  -9   1   54.69   11.40
 -10   9  -1   56.49   20.10
  10   9   1   43.60    7.80
  -9  10   1   52.39    9.70
  10  -9  -1   88.29   14.30
 -10  -9   1   40.10   12.10
   9 -10   1   41.10   10.40
  -9  10   1   78.39   13.10
   9  10  -1   68.19    9.20
 -10   9  -1   57.09   10.00
   9 -10   1   57.99   10.40
   9  10  -1   35.90   13.40
  -9 -10  -1   53.09   11.80
  10  -9  -1   57.89   10.80
 -10   9  -1   59.29   10.20
   9 -10   1   58.29   10.70
  -9  10  -1   44.10    9.70
  10  -9   1   60.49   10.40
   9  10   1   66.49    9.70
  -9  10  -1   48.60    9.50
   9 -10  -1   64.99   11.10
  10   9  -1   41.80    8.30
  10   9  -1   43.70   14.80
   9 -10  -1   49.10   10.50
   9 -10  -1   67.79   10.70
 -10   9   1   46.00    9.20
 -10   9   1   44.80    9.00
  10  -9   1   50.19   10.10
 -10 -10   1   42.30   10.90
  10 -10  -1   27.00   10.90
 -10  10   1   25.60    8.90
  10 -10   1   52.69   10.80
 -10 -10  -1   35.10   11.20
  10  10  -1   42.70    8.50
  10 -10   1   31.90   10.40
  10 -10  -1   47.50   11.30
 -10  10  -1   28.40    8.90
 -10  10   1   12.50   13.90
  10  10   1   38.60    8.70
 -10  10  -1   54.09   18.30
   0  11   1  103.59   12.50
  11   0  -1   82.39   10.50
   0 -11  -1   78.09    9.00
 -11   0  -1   84.99   11.00
  11   0  -1   90.39   17.10
 -11   0  -1   84.89   13.50
   0  11   1  102.69   10.70
   0  11  -1  100.29    7.20
   0 -11  -1   89.59    9.40
   0  11  -1  101.99   11.60
 -11   0   1   90.99   11.50
  11   0   1   89.49   10.40
   0 -11   1   88.39    9.60
 -11   0   1   86.39   12.90
   0  11  -1   81.29   11.00
   0 -11   1   75.99    8.90
 -11   0   1   88.79   14.50
 -11   0  -1  101.79   14.10
  11   0   1   66.29   17.20
  -1  11   1  127.69   11.10
   1 -11   1  105.79   10.10
  -1  11   1  119.89   12.40
 -11   1  -1  124.59   17.90
  -1 -11  -1  104.39   10.60
  11   1   1  128.99   20.80
  11   1   1  122.09   10.30
  11  -1  -1  115.59   11.20
  -1  11   1  128.29    9.00
   1 -11   1  109.29    9.40
 -11   1  -1  100.19   14.70
 -11   1  -1  105.99   11.00
  -1 -11  -1  106.99    9.80
 -11   1  -1  118.49   16.60
 -11  -1   1  114.99   15.30
 -11  -1   1  109.69   11.70
   1  11  -1  109.19   12.20
   1  11  -1  110.69   12.30
 -11  -1   1  124.69   14.70
  11   1  -1  115.19   10.90
  -1  11  -1  107.69    8.20
   1  11   1  118.19    8.30
  11  -1   1  109.89   10.60
  -1 -11   1  119.09   10.40
   1  11   1   98.79   11.10
 -11  -1  -1  116.99   16.80
  11   1  -1  108.99   14.30
 -11   1   1   99.19   15.20
   1  11   1  111.79   13.30
   1 -11  -1  133.99   10.40
 -11   1   1  118.69   14.90
 -11  -1  -1   97.19   10.90
 -11  -1  -1  130.99   16.10
  -1 -11   1  124.29    9.80
   1 -11  -1  112.69    9.50
  -1  11  -1  109.29   11.70
 -11   1   1  104.19   11.50
  11   2   1  107.79   11.00
 -11   2  -1   97.19   10.90
  -2  11   1  102.79   12.10
  11  -2  -1  105.99   11.00
   2  11  -1  113.59    8.00
 -11   2  -1  105.39   18.30
  -2 -11  -1  105.19   10.20
 -11  -2   1  120.19   11.70
 -11  -2   1   90.19   14.10
  -2  11   1  118.29   10.50
   2 -11   1  103.29    9.90
  -2  11   1  108.89   11.00
   2 -11   1   94.09   10.30
   2  11  -1  114.09   13.00
 -11  -2   1  106.29   15.60
  -2 -11  -1   99.09   10.90
   2  11  -1  120.29   12.80
 -11   2   1   95.79   12.40
  -2  11  -1  116.79   11.60
 -11   2   1   88.39   13.10
   2 -11  -1   97.59    9.50
 -11   2   1   98.59   11.40
  11  -2   1  104.79   10.60
  -2  11  -1  117.19   11.60
  -2 -11   1  112.39    9.70
  11   2  -1  103.79   14.40
 -11  -2  -1   89.89   15.40
   2  11   1   99.39   11.20
   2 -11  -1   95.09   10.00
 -11   2   1   87.59   15.70
 -11  -2  -1  104.79   10.90
  11   2  -1  111.29   11.20
 -11  -2  -1  100.59   13.90
  -2 -11   1  103.09   10.00
   2  11   1   95.29    8.30
   2  11   1   90.29   13.30
   3  11  -1   34.90    9.40
  11   3   1   17.70   11.60
   3  11  -1   32.50    5.60
  11  -3  -1   23.20    7.80
 -11   3  -1   33.00   13.00
 -11   3  -1   32.60    7.80
 -11  -3   1   23.90   10.70
  11   3   1   23.20    7.10
  -3  11   1   38.20    7.70
  -3  11   1   36.30    8.00
 -11  -3   1   30.50   10.60
  -3 -11  -1   38.00    8.20
   3  11  -1   35.60    8.40
   3 -11   1   25.50    6.10
  -3 -11  -1   41.90    8.30
 -11  -3   1   42.10    8.40
   3 -11   1   23.30    6.20
 -11   3   1   36.60    8.40
  -3  11  -1   28.00    6.90
   3  11   1   38.90    8.60
  11   3  -1   23.40    7.30
 -11   3   1   37.00    8.10
   3  11   1   44.30    6.60
   3  11   1   34.30    9.60
 -11   3   1   31.20   11.40
  -3  11  -1   46.60    8.30
   3 -11  -1   36.20    6.80
  -3 -11   1   22.90    6.10
  -3 -11   1   34.40    6.10
  11   3  -1   14.80   11.50
   3 -11  -1   35.80    7.20
  11  -3   1   13.90    9.20
 -11  -3  -1    8.80   10.90
  11  -3   1   30.10    7.60
 -11  -3  -1   20.10   11.00
   4 -11   1   66.19    9.90
  -4  11   1   63.99   10.30
   4  11  -1   77.89   11.50
  11   4   1   68.89   13.50
  -4 -11  -1   47.00    8.00
   4 -11   1   65.89   10.50
  11  -4  -1   62.69   10.60
  11   4   1   68.39   10.20
  -4  11   1   58.79   10.80
   4  11  -1   85.99   12.00
   4  11  -1   74.39    8.10
 -11   4  -1   62.49   15.10
 -11   4  -1   65.89   10.20
 -11  -4   1   68.69   11.90
  -4 -11  -1   49.30    8.00
 -11  -4   1   75.89   12.10
  11  -4  -1   59.39    9.00
 -11   4  -1   66.09   11.00
 -11  -4   1   68.89   11.80
  -4  11  -1   70.29   11.00
 -11   4   1   64.59   12.00
 -11  -4  -1   69.49   12.20
 -11  -4  -1   94.39   16.90
  -4  11  -1   66.49   10.40
  11   4  -1   72.69   10.00
  -4 -11   1   67.29   10.70
 -11  -4  -1   58.39    9.40
  11   4  -1   56.89   12.90
   4  11   1   61.59   10.70
  -4 -11   1   67.39    9.30
   4  11   1   82.79   12.40
   4 -11  -1   72.49   10.10
 -11   4   1   62.09   13.40
  11  -4   1   75.89   10.70
   4 -11  -1   79.89   10.80
 -11   4   1   72.19    9.90
  11  -4   1   83.69   13.20
   4  11   1   62.79    8.20
   4 -11  -1   58.69    9.10
   5 -11   1   89.59   10.90
 -11   5  -1   83.99   12.70
  11   5   1   97.59   10.20
   5 -11   1   83.19   13.50
   5  11  -1   88.39    8.80
  11   5   1   63.79   13.20
   5  11  -1   86.59   13.60
  -5 -11  -1   80.59   12.20
 -11  -5   1   89.59   12.70
  11  -5  -1   83.69   12.00
  -5  11   1   83.29   10.70
  -5 -11  -1   95.49   11.40
 -11  -5   1  116.39   14.80
 -11   5  -1   71.39   11.50
  11  -5  -1   90.19   11.70
 -11   5  -1  126.09   22.60
   5  11  -1   91.39   14.90
 -11  -5   1   88.99   11.30
  -5  11   1  101.39   11.70
  -5  11  -1  103.19   11.50
 -11  -5  -1  110.79   15.60
  11   5  -1   94.69   10.90
 -11  -5  -1   77.19   13.30
 -11   5   1   94.79   14.90
  -5  11  -1   85.19   11.40
  11  -5   1  110.59   13.60
   5 -11  -1   87.99   10.40
 -11  -5  -1   83.19   10.90
  -5 -11   1   80.69   11.70
 -11   5   1   87.29   11.10
  -5 -11   1   70.59   10.20
  11  -5   1   99.79   11.40
  11   5  -1   67.39   13.80
   5  11   1  100.49   11.80
   5  11   1   74.19   12.20
   5 -11  -1   84.09   12.00
 -11   5   1  102.39   13.80
   5 -11  -1   89.99   11.30
   5  11   1   85.39    9.10
  11  -6  -1   25.90    9.70
 -11   6  -1   36.00    8.90
  11  -6  -1   50.59    9.50
 -11   6  -1   52.79    9.60
   6 -11   1   46.00    8.70
 -11  -6   1   12.90   10.80
 -11  -6   1   63.39   12.10
   6 -11   1   43.60    8.90
   6 -11   1   50.89    9.00
 -11  -6   1   57.29   10.00
   6  11  -1   42.40    7.50
   6  11  -1   27.80   11.00
 -11   6  -1   31.80   16.70
  -6  11   1   71.49   12.50
  11   6   1   36.70   14.20
  11   6   1   32.70    7.40
   6  11  -1   31.30   10.80
  -6 -11  -1   38.20    9.50
  -6  11   1   38.80    8.50
  -6 -11   1   36.50    9.10
  -6  11  -1   31.80    7.50
  11  -6   1   35.70    8.60
   6 -11  -1   45.90    8.30
 -11   6   1   28.40    7.90
  11  -6   1   29.10    9.00
   6  11   1   29.50    6.40
  11   6  -1   33.50   13.00
   6 -11  -1   39.40    7.60
  -6  11  -1   38.30    8.00
   6 -11  -1   44.00    9.50
  -6 -11   1   42.70    8.70
  11   6  -1   27.80    7.70
 -11  -6  -1   44.10   12.70
 -11   6   1    5.80   14.30
 -11  -6  -1   31.50   11.50
   6  11   1   44.70   10.40
 -11   6   1   41.80    8.40
 -11  -6  -1   37.90   10.00
   6  11   1   66.49   12.90
  11  -7  -1   49.90    9.90
  -7  11   1   34.70    8.80
   7 -11   1   29.00    8.40
 -11   7  -1   44.40    9.80
 -11   7  -1   30.90   18.50
  11   7   1    7.60   13.50
 -11  -7   1   65.49   12.40
  -7  11   1   31.90    8.00
  11   7   1   23.60    7.30
 -11  -7   1   42.20   11.80
   7 -11   1   37.50    8.20
   7  11  -1   40.00    7.40
   7  11  -1   50.09   11.90
 -11  -7   1   44.10   10.90
  11  -7  -1   39.40    9.70
  -7 -11  -1   35.50    9.50
 -11   7  -1   32.90    9.00
   7 -11  -1   26.40    8.40
  -7  11  -1   37.80    8.60
 -11   7   1   54.89   27.10
 -11   7   1   55.89   13.30
 -11  -7  -1   41.20   11.40
 -11   7   1   25.00    8.50
   7 -11  -1   24.70    7.80
  11   7  -1   25.90    7.90
  11  -7   1   30.00    8.40
  -7  11  -1   39.00    8.80
   7  11   1   33.20   11.20
  11  -7   1   44.20    9.60
   7 -11  -1   52.09   10.40
   7  11   1   36.80    7.60
  11   7  -1   29.90   13.70
 -11  -7  -1   25.60   12.70
 -11   8  -1   55.59   19.40
 -11  -8   1   47.60   12.10
  11  -8  -1   27.00    9.80
  -8  11   1   36.20    9.20
 -11   8  -1   25.90    9.20
 -11  -8   1   47.50   12.60
 -11  -8   1   29.00   13.80
  11   8   1   49.80    9.10
   8 -11   1   56.79   10.00
  11  -8  -1   58.19   10.90
  11   8   1   28.20   18.60
  -8 -11  -1   40.50    9.90
 -11   8  -1   31.10    9.90
  -8  11   1   23.40    7.90
   8  11  -1   22.00   12.70
   8 -11   1   27.40   10.50
   8 -11   1   60.39   11.10
   8  11  -1   41.50    8.10
  -8  11  -1   32.40    9.00
 -11   8   1   31.70    8.90
   8 -11  -1   43.40    9.00
 -11  -8  -1   19.90   14.60
   8 -11  -1   23.80   10.00
  -8 -11   1   30.70    8.90
  11  -8   1   36.40   10.10
  -8  11  -1   54.69    9.70
   8 -11  -1   49.10   10.20
  11  -8   1   51.79    9.90
 -11   8   1   46.70   14.90
  11   8  -1   16.30   14.60
 -11   8   1   44.00   21.90
   8  11   1   39.10    8.30
  11   8  -1   42.20   11.20
   9  11  -1   66.99   26.20
   9 -11   1   14.80   10.70
  11  -9  -1   43.00   10.50
   9  11  -1   41.00    8.40
  11   9   1   11.60    7.80
 -11   9  -1   18.30    8.70
   9 -11   1   34.20    9.90
  -9 -11  -1   16.30    9.70
 -11  -9   1   13.80   18.90
  11  -9  -1   34.70   11.80
 -11  -9   1   33.00   12.00
 -11   9  -1   19.00   22.90
 -11   9  -1   30.60   10.50
  -9  11   1   28.50    9.00
   9  11   1   33.90    8.80
  11  -9   1   19.30    9.80
  -9  11  -1   14.50    9.30
  11  -9   1   15.30   10.70
  -9  11  -1   21.80    8.70
 -11   9   1   30.80    8.30
 -11  -9  -1   33.20   12.30
  -9 -11   1   20.60    9.50
  11   9  -1   27.30    8.80
   9 -11  -1   59.89   11.20
   9 -11  -1   35.30   11.00
   9 -11  -1   14.00   10.60
 -10  11   1    7.30    8.40
  11  10   1   24.50    8.20
  11 -10  -1   12.20   10.50
 -11 -10   1   19.10   10.70
 -10 -11  -1   12.40   10.20
  10 -11   1   25.00   10.90
  10  11  -1   20.10    8.80
 -11  10  -1   26.30    9.20
  11  10  -1   17.40    8.70
 -11  10   1    6.50    7.80
  10  11   1   15.70    8.40
  11 -10   1   34.60   11.30
 -10  11  -1    8.10    7.80
 -10 -11   1   17.40    9.50
 -11 -10  -1    7.50   10.60
  10 -11  -1    2.00   11.50
 -10  11  -1   -2.70   14.90
  11  11  -1    4.00    8.00
 -11  11  -1    7.30    8.60
  11  11   1   12.40    8.80
 -11 -11  -1   -1.30   10.70
 -11 -11   1   -1.50   10.20
  11 -11   1    6.10   11.60
 -11  11   1   -1.70    7.90
  11 -11  -1   -9.50   11.90
 -12   0   1   13.20    8.00
  12   0  -1   15.20    7.30
 -12   0   1   10.20   11.10
   0 -12  -1    6.90    6.00
  12   0   1    6.00    6.90
   0 -12   1   13.10    5.40
   0  12  -1    8.20    7.60
 -12   0   1   13.40   11.70
   0  12   1   26.50    9.10
   0  12   1   17.80    5.30
 -12   0  -1    6.40   12.70
 -12   0  -1   28.00   13.20
   0 -12  -1   16.50    5.70
 -12   0  -1   19.70    8.10
   0 -12   1   11.30    5.80
   0  12  -1   17.50    7.40
   0  12   1    2.30    6.20
   1  12  -1    2.80    4.80
   1  12  -1   -4.20    6.70
 -12   1  -1   -0.60    8.80
 -12  -1   1    3.50   11.20
 -12  -1   1    4.60    7.70
   1 -12   1   -1.90    5.70
  -1 -12  -1    1.40    5.20
 -12   1  -1  -13.80   12.10
 -12  -1   1   -4.50   10.10
  -1 -12  -1    3.00    4.80
  12   1   1   12.10   13.20
 -12   1  -1   19.40   13.20
  -1  12   1    3.40    5.00
  12   1   1   12.30    7.00
   1 -12   1    4.70    5.60
  12  -1  -1    0.10    7.20
 -12   1  -1   -6.10    7.50
   1  12  -1    4.30    7.20
  -1  12   1   -1.40    7.90
  -1  12   1    0.40    5.70
   1  12   1   -0.30    4.60
 -12  -1  -1    7.90   12.40
  12   1  -1   -3.10    6.80
   1  12   1    0.60    6.50
 -12   1   1   13.70    8.60
  -1 -12   1    3.60    5.60
 -12  -1  -1   -9.50   11.50
  12   1  -1   10.20   13.20
  12  -1   1    4.10    6.90
   1 -12  -1    3.60    5.00
   1 -12  -1   -3.20    4.60
  -1 -12   1    1.40    5.10
 -12   1   1    7.90    7.70
   1  12   1    0.80    7.70
  -1  12  -1   -2.10    6.60
 -12   1   1   -4.50   18.10
 -12  -1  -1    5.90    8.20
 -12   1   1  -12.30   10.40
  -1  12  -1    4.00    6.90
  -2  12   1    4.20    7.60
  12   2   1   21.60    7.50
 -12  -2   1    8.30    8.30
  -2 -12  -1   -4.20    5.70
  -2  12   1    2.30    5.60
  -2  12   1    6.50    6.00
 -12   2  -1    7.20    7.30
 -12  -2   1   15.70   11.50
 -12  -2   1   -8.60   10.50
 -12   2  -1   -4.90    8.80
  12  -2  -1   -0.10    7.10
   2  12  -1    9.00    7.80
   2  12  -1    3.00    4.70
 -12   2  -1   -8.60   12.60
  12   2   1   -3.20   14.10
   2  12  -1   -2.30    7.30
   2 -12   1   -2.50    5.90
  -2 -12  -1   -1.60    5.10
   2 -12   1   -7.70    5.00
 -12  -2  -1    2.90   11.40
   2 -12  -1    4.30    5.70
  -2  12  -1   13.90    7.50
  -2 -12   1   -0.90    5.00
  -2  12  -1    3.00    6.40
  12   2  -1   -2.30    6.70
 -12   2   1  -17.80   11.10
 -12  -2  -1  -10.70   11.40
   2 -12  -1    1.20    5.20
   2  12   1   -0.10    4.70
  12  -2   1   -9.10    6.50
 -12   2   1   -6.20   18.10
   2  12   1   -1.70    6.60
 -12   2   1   -2.30    8.30
  -2 -12   1   -1.30    5.70
 -12   2   1   -5.30    7.30
 -12  -2  -1    9.20    8.20
   2  12   1   -2.20    8.60
  12   2  -1  -27.90   11.50
  -3 -12  -1    2.90    5.90
 -12   3  -1   29.70    9.80
   3  12  -1    2.90    8.40
 -12   3  -1    0.40   13.40
  12   3   1   -3.00    6.80
 -12   3  -1    7.20    7.30
 -12  -3   1   -4.90    8.10
  12   3   1   19.60   13.00
  -3  12   1   -5.00    7.10
  -3 -12  -1   11.40    7.00
 -12  -3   1    2.20   11.20
   3  12  -1    1.50    8.60
   3  12  -1    4.80    4.90
  12  -3  -1   -8.00    7.50
   3 -12   1    6.60    5.80
   3 -12   1   -6.40    6.10
  -3  12   1    0.10    5.90
 -12  -3   1   -6.90   10.90
   3  12   1    1.20    4.60
   3  12   1   12.00    7.70
  -3 -12   1    4.60    4.80
 -12   3   1   -3.10   11.80
  -3 -12   1   -0.20    5.50
 -12  -3  -1   20.50   12.50
   3 -12  -1    4.20    5.60
 -12  -3  -1    8.20    8.80
 -12   3   1   10.40    7.80
 -12   3   1    8.70    8.30
  -3  12  -1    4.50    6.90
   3 -12  -1    4.70    6.00
  12  -3   1   -1.00    7.00
  12   3  -1    7.20    7.10
   3  12   1   18.90   10.30
  12   3  -1   26.90   12.70
 -12  -3  -1   -7.10   11.60
  -3  12  -1    6.20    6.60
  12  -4  -1    3.60    8.00
  -4 -12  -1   -5.50    5.40
   4  12  -1    1.70    9.20
 -12  -4   1   14.90   11.30
  -4  12   1   -3.60    5.70
 -12  -4   1    3.10   10.90
  -4  12   1   -5.10    7.20
  12   4   1   -5.20    6.50
  12   4   1   12.10   12.80
 -12   4  -1   -4.90    9.00
   4 -12   1    1.80    5.60
 -12   4  -1  -11.10   14.60
 -12  -4   1    4.90    8.90
 -12   4  -1   -5.30    7.20
   4 -12   1    4.30    6.70
   4  12  -1    2.90    8.50
   4  12  -1    1.10    5.20
  12   4  -1   -0.90    7.30
  12   4  -1    5.20   12.80
  12  -4   1   -3.00   10.00
  -4  12  -1   -6.10    6.10
   4  12   1    0.40    7.50
  -4  12  -1    4.80    6.70
   4  12   1  -12.60    9.90
 -12   4   1    2.70    8.10
 -12   4   1    1.40   12.50
 -12  -4  -1  -29.60   11.70
  12  -4   1   -0.20    7.30
   4 -12  -1    1.30    5.80
 -12  -4  -1   15.70   14.40
   4 -12  -1   -0.90    6.00
 -12   4   1   21.40    8.40
 -12  -4  -1   12.80   11.30
  -4 -12   1    2.30    4.80
   4 -12  -1  -11.10   14.10
   4  12   1   -3.50    5.10
 -12  -5   1   16.20   11.60
 -12   5  -1   33.30   16.60
 -12   5  -1   -1.90    7.60
 -12  -5   1    6.60    9.20
  -5  12   1    1.10    7.40
  12  -5  -1  -26.30   10.90
   5 -12   1    5.00    7.00
  12   5   1   11.70   13.80
  12   5   1   -8.70    9.10
 -12   5  -1   -6.60    9.30
   5 -12   1    3.10    6.10
   5  12  -1    6.00    9.60
 -12  -5   1   -3.90   11.10
   5  12  -1   -6.30    5.40
  -5  12   1    2.50    7.20
  -5 -12  -1    0.50    6.90
  12  -5  -1    1.50    7.90
   5  12   1   -2.40    8.60
  12   5  -1   -1.50   10.60
 -12  -5  -1    0.90   11.50
  12   5  -1   19.10   13.40
  12  -5   1    8.50    7.70
 -12   5   1   18.40    8.50
   5  12   1    2.20    5.30
 -12   5   1   -3.40    7.60
  -5  12  -1    1.80   10.10
 -12  -5  -1   -7.80   12.50
  12  -5   1   -1.40    9.30
   5 -12  -1    7.50    9.10
   5 -12  -1   15.80    7.00
   5 -12  -1    7.90    6.00
  -5  12  -1    6.30    7.40
 -12   5   1   -8.60   14.40
  -5 -12   1    2.00    6.50
 -12   6  -1    4.50    8.00
 -12   6  -1   -2.90    9.30
  -6  12   1  -11.40    7.80
  12   6   1  -18.60   13.80
  12  -6  -1   -9.20    7.90
 -12  -6   1  -17.80   11.60
   6 -12   1    5.90    7.70
  -6 -12  -1   -1.60    7.50
   6  12  -1   -6.00    5.90
   6 -12   1    4.00    6.60
  -6  12   1   15.20    7.60
   6  12  -1    0.50   10.20
  12   6   1   -3.40    6.80
 -12  -6   1   12.20   11.60
 -12   6  -1   18.20   17.70
 -12  -6   1   -8.20    9.50
   6 -12  -1    2.90    9.80
 -12   6   1   -4.10   13.50
  12   6  -1    7.30    7.60
  12   6  -1   -0.80   13.90
 -12   6   1  -16.50   22.80
   6  12   1    1.10    5.80
 -12  -6  -1   -4.00   12.80
 -12  -6  -1   -4.20   11.30
  12  -6   1   17.00   10.20
   6 -12  -1    4.90    6.40
  -6  12  -1   -4.30    7.20
   6 -12  -1    4.30    7.50
  -6  12  -1    4.10    6.70
  -6 -12   1    6.00    6.60
   6  12   1   -0.80    9.90
  12  -6   1   -7.40    7.70
 -12   7  -1   -1.60   10.00
 -12   7  -1   16.40    8.70
  12   7   1    6.00   16.70
   7  12  -1   10.50    6.70
   7 -12   1  -10.30    8.00
 -12  -7   1    2.50   11.30
  12   7   1    8.10    7.50
   7  12  -1    1.90   11.50
  -7  12   1   -4.40    8.80
  -7 -12  -1    8.20    8.30
  12  -7  -1   -7.20    8.60
  -7  12   1   12.50    7.70
   7 -12   1    8.70    7.20
 -12  -7   1    3.90   12.20
 -12   7  -1  -15.10   19.80
 -12  -7   1   18.10   12.10
  12   7  -1  -23.70   14.40
  12   7  -1   -4.10    7.10
  -7  12  -1   -2.10    7.80
   7 -12  -1   28.40   17.80
 -12  -7  -1   21.60   12.10
  12  -7   1   10.70    8.60
   7  12   1    6.70    6.80
  -7 -12   1    2.20    6.90
  -7  12  -1   20.30    8.00
   7 -12  -1   18.00    7.90
 -12   7   1    1.60    8.10
  12  -7   1   15.80   10.00
   7 -12  -1   24.60    9.40
  12  -8  -1  -17.90    8.90
   8 -12   1    1.20    8.60
   8  12  -1   41.20   15.80
   8 -12   1   25.60   11.50
  -8 -12  -1    7.10    8.90
   8  12  -1    7.50    7.60
 -12   8  -1   14.00    8.80
  12   8   1   16.80    7.70
  -8  12   1    7.90    7.60
 -12   8   1   -3.30    7.80
 -12  -8  -1   13.60   12.10
  12  -8   1    3.00    9.50
  -8  12  -1    8.80    7.70
  12  -8   1   -4.40   10.40
   8 -12  -1    6.20    8.20
  12   8  -1   19.00    8.60
   8  12   1    4.30    7.20
  -8 -12   1    6.50    7.10
  -8  12  -1   18.20    9.30
   8 -12  -1    4.50   10.10
 -12   9  -1   18.60    9.00
  -9 -12  -1   14.60    9.50
  -9  12   1   18.70    8.60
 -12  -9   1    6.80   11.50
  12   9   1   11.50    8.00
   9  12  -1   13.30    8.60
   9 -12   1   -6.70    9.50
   9  12   1   16.80    8.30
  12   9  -1    6.00    7.70
  -9 -12   1    1.90    7.50
  12  -9   1   11.00   10.20
   9 -12  -1    6.90   10.10
  -9  12  -1    5.60    8.00
  12  -9   1   10.30   11.50
 -12   9   1   11.10    8.50
 -12  -9  -1   21.70   12.80
  -9  12  -1   12.50   11.00
  10 -12   1    0.50   19.00
  12 -10  -1    6.50   11.80
  12  10   1    0.20    7.90
  10  12  -1    0.20    9.00
 -10  12   1    0.00    8.20
 -12  10  -1    0.40    8.40
 -12 -10   1    4.50   11.50
 -10 -12  -1    4.20    9.90
 -10 -12   1   11.90    9.30
  12 -10   1   -2.20   13.80
  10  12   1   17.10    9.30
 -12  10   1    4.00    8.30
 -12 -10  -1   14.60   12.40
  12 -10   1   -1.40   12.00
  12  10  -1   11.30    9.10
 -10  12  -1   -2.70    8.30
   0  13   1  199.58   14.40
   0  13   1  188.28   12.20
   0 -13  -1  198.48   12.30
   0  13  -1  184.88   14.80
   0  13   1  185.18   16.80
 -13   0  -1  201.48   15.60
  13   0  -1  188.88   14.70
 -13   0  -1  191.88   22.80
 -13   0  -1  184.28   19.20
 -13   0   1  177.48   20.90
 -13   0  -1  208.48   21.50
 -13   0   1  174.18   15.40
 -13   0   1  158.38   21.40
 -13   0   1  210.28   29.60
 -13   1  -1  152.38   19.00
 -13  -1   1  134.09   19.40
 -13  -1   1  127.29   14.60
  -1  13   1  149.29   15.90
  13  -1  -1  125.99   18.40
   1  13  -1  126.39   13.70
 -13   1  -1  165.78   17.60
   1 -13   1  133.39   12.30
  -1  13   1  144.19   12.40
  13   1   1  113.79   19.00
  -1  13   1  124.99   11.40
 -13   1  -1   86.19   13.40
 -13   1  -1  127.09   18.00
  13   1   1  125.79   13.20
 -13  -1   1  104.19   17.80
  13   1  -1   90.49   17.20
  -1  13  -1  138.69   21.20
 -13   1   1  107.79   25.10
  13  -1   1  122.39   14.10
  13   1  -1  128.69   12.60
   1 -13  -1  149.19   13.80
   1  13   1  137.39   11.20
 -13  -1  -1  111.39   16.50
 -13  -1  -1  123.99   21.10
  -1  13  -1  138.89   13.90
 -13   1   1  158.88   19.10
   1 -13  -1  119.79   11.10
  -1 -13   1  126.69   14.10
   1  13   1  127.09   12.80
 -13   1   1  124.29   14.10
 -13  -1  -1  125.89   20.30
 -13  -2   1   95.19   15.30
  -2  13   1   83.19   14.60
 -13   2  -1  138.09   17.80
 -13  -2   1   78.29   14.30
  13   2   1   65.69   17.80
  -2  13   1   88.39   12.00
 -13   2  -1   66.69   16.10
  -2 -13  -1   73.39   10.10
  13   2   1  103.19   11.40
 -13  -2   1   74.69   11.40
   2  13  -1  108.59   14.10
   2 -13   1   70.29   10.30
 -13   2  -1   78.79   11.30
 -13   2  -1   62.09   17.20
  -2  13   1   85.19   11.60
 -13  -2  -1   78.49   15.50
 -13   2   1   58.49   17.00
  13   2  -1   91.29   12.20
  -2  13  -1   71.79   11.90
   2 -13  -1   99.29   12.10
 -13   2   1   58.59   10.30
   2  13   1  104.89   10.20
  13  -2   1   75.39   11.40
 -13   2   1   82.59   12.20
 -13  -2  -1   75.99   12.00
   2  13   1   94.49   12.90
 -13  -2  -1   90.19   15.40
  -2 -13   1  106.79   10.20
   2 -13  -1   84.89   10.50
  -2  13  -1   79.69   13.50
   3  13  -1   92.39   12.70
  13   3   1   49.99   16.50
   3 -13   1   85.09   10.60
 -13  -3   1   89.29   14.60
  13   3   1   61.99    9.40
 -13   3  -1   78.89   17.90
  -3  13   1   92.49   14.50
 -13   3  -1  108.99   17.20
  13  -3  -1   69.39   14.00
 -13   3  -1   83.59   12.50
  -3 -13  -1   79.79   10.90
  -3  13   1   77.49   11.50
 -13  -3   1   95.59   14.10
 -13  -3   1  108.29   18.70
 -13  -3  -1  107.69   15.40
  13   3  -1   51.59   16.20
   3  13   1  102.59   13.60
  -3 -13   1   75.79   10.10
   3 -13  -1   76.69   10.70
  -3  13  -1   66.79   10.90
  -3  13  -1   81.99   14.50
 -13   3   1   48.40   17.70
   3  13   1   88.09   10.30
 -13  -3  -1   62.49   12.30
  13   3  -1   64.29    9.70
   3 -13  -1   96.29   12.70
 -13   3   1  109.59   19.90
  13  -3   1   63.89    9.70
 -13   3   1   99.79   13.60
 -13  -3  -1   80.19   15.20
   4  13  -1   90.39   10.70
  -4  13   1   90.69   14.50
 -13   4  -1   46.00   17.90
 -13  -4   1  103.59   15.30
  13   4   1   69.49    9.80
  -4 -13  -1   82.69   11.40
 -13   4  -1  123.49   17.90
  -4  13   1   81.39   11.70
   4 -13   1   93.09   11.70
 -13  -4   1  110.19   19.70
 -13   4  -1   55.59   10.40
   4  13  -1   98.29   15.40
  13  -4  -1   86.39   12.20
  13   4   1   65.89   17.00
  13   4  -1   56.19    9.70
  -4 -13   1   78.59   10.20
  13  -4   1   83.79   12.00
 -13  -4  -1   72.09   16.00
 -13  -4  -1   86.99   13.20
  13  -4   1   75.59   15.00
   4  13   1   88.29   10.80
  13   4  -1   76.69   17.30
   4 -13  -1   86.99   12.90
  -4  13  -1   99.79   12.20
   4 -13  -1  108.19   14.90
 -13  -4  -1  102.49   15.50
   4  13   1   84.19   11.80
 -13   4   1   74.79   11.50
   4 -13  -1  109.79   11.90
 -13   5  -1  -12.90   18.70
 -13  -5   1   30.70   14.00
 -13   5  -1   29.00   11.50
   5  13  -1   39.30    8.10
  -5 -13  -1   20.80    7.40
 -13  -5   1   64.09   14.60
  13   5   1   35.00    8.50
  13  -5  -1   45.80   10.00
 -13   5  -1   38.20   11.10
   5  13  -1   44.20   12.60
 -13  -5   1   35.10   12.00
  13   5   1   43.60   16.90
  -5  13   1   43.90    9.20
  -5  13   1   30.80   10.20
 -13   5   1   45.00   10.60
  13  -5   1   39.50    9.60
 -13  -5  -1   52.39   14.00
   5 -13  -1   54.19    9.20
   5  13   1   47.00    8.20
  -5  13  -1   31.50    8.60
  13  -5   1   25.40   13.40
 -13  -5  -1   30.50   14.40
  -5 -13   1   28.60    6.50
   5  13   1   50.59   11.70
  13   5  -1    6.00   16.00
   5 -13  -1   55.49   10.20
  13   5  -1   41.30    8.60
  13  -6  -1   48.90   10.90
   6  13  -1   46.90   13.50
 -13  -6   1   11.40   13.40
   6  13  -1   46.10    8.90
  -6  13   1   35.10   10.50
  13   6   1   52.29   27.30
 -13   6  -1   32.10    9.90
  -6 -13  -1   38.60    9.40
  13   6   1   29.40    8.70
 -13  -6   1   61.59   14.60
  -6  13   1   26.40    7.80
   6 -13   1   42.10   15.50
   6 -13  -1   48.40    9.40
  13   6  -1   42.30    8.50
  -6 -13   1   42.50    8.50
  13   6  -1   28.50   16.30
 -13   6   1   26.20    9.10
   6  13   1   19.60    7.30
  13  -6   1   39.70   13.40
 -13  -6  -1   45.60   15.20
  13  -6   1   35.60   11.00
  -6  13  -1   43.80    9.70
   6 -13  -1   45.60   10.30
 -13  -7   1   37.30   18.20
  13   7   1   29.10    8.50
  -7 -13  -1   27.90    8.70
   7  13  -1   31.30    9.30
   7  13  -1   40.30   14.10
   7 -13   1   38.50   10.40
 -13   7  -1   36.30   10.10
  13  -7  -1   33.90   10.80
  -7  13   1   28.60    8.80
 -13  -7  -1   24.20   14.20
  13   7  -1   35.10    8.70
 -13   7   1   29.30    9.20
   7  13   1   36.20    8.80
   7 -13  -1   56.69   10.90
   7 -13  -1   43.40   11.30
  -7 -13   1   25.40    7.90
  -7  13  -1   39.40    9.70
  13   8   1    6.40    8.20
   8 -13   1   14.70    9.70
 -13   8  -1   17.30    9.10
   8  13  -1   10.50    9.10
 -13  -8   1   25.50   14.10
  13  -8  -1   16.10   10.70
  -8  13   1   14.60    8.50
  -8 -13  -1   18.00    9.10
 -13   8   1   17.70    9.40
  13   8  -1   13.30    8.30
   8 -13  -1    5.60   17.20
 -13  -8  -1   21.80   13.20
   8 -13  -1   12.20    9.40
   8  13   1   11.70    9.00
  13  -8   1    6.30   10.80
  -8  13  -1   21.00    8.90
  -8 -13   1   14.50    8.10
   9  13  -1   15.10    9.80
 -13  -9   1   20.50   13.10
  13   9   1   24.70    9.30
  -9  13   1   23.80    9.20
   9 -13   1   14.90   11.20
  -9 -13  -1   21.50   10.00
 -13   9  -1   28.50   10.10
  13  -9  -1    9.20   11.20
   9  13   1    7.20    8.20
  13   9  -1   14.80    8.90
 -13   9   1    3.80    8.60
  13  -9   1   10.20   11.30
  -9 -13   1   29.80    9.40
   9 -13  -1   34.10   11.30
 -13  -9  -1   34.80   14.60
  -9  13  -1   18.80    8.70
   0 -14  -1  158.08   11.80
   0  14  -1  126.29   17.20
 -14   0  -1  125.99   21.00
  14   0   1  158.68   13.30
   0  14   1  144.99   13.90
 -14   0  -1  156.78   23.20
 -14   0   1  149.59   16.30
 -14   0  -1  118.39   19.10
   0 -14   1  145.89   12.10
  14   0  -1  162.68   13.20
  14   1   1  139.39   13.00
   1 -14   1  116.29   11.80
 -14   1  -1  122.99   19.30
   1  14  -1  148.19   15.20
  14  -1  -1  105.09   12.80
 -14  -1   1  103.19   16.20
 -14   1  -1  210.88   24.60
 -14   1  -1  125.59   15.40
  -1 -14  -1  130.59   11.40
 -14   1  -1  154.08   23.80
  -1  14  -1  150.38   14.90
 -14  -1  -1  121.49   16.70
  14   1  -1  147.99   13.30
 -14  -1  -1   94.49   18.40
  -1 -14   1  118.39   11.00
 -14   1   1  102.29   15.00
 -14  -1  -1  167.78   21.60
   1  14   1  138.89   14.00
   1 -14  -1  112.09   11.50
  14  -1   1  133.99   13.20
  14   2   1  103.69   11.90
   2 -14   1  107.09   11.80
 -14   2  -1   62.99   19.60
  -2  14   1  116.89   12.80
 -14   2  -1   97.39   13.00
 -14   2  -1  100.19   21.90
  14  -2  -1   98.59   13.00
 -14  -2   1   82.99   15.30
  -2 -14  -1  105.69   11.00
  14   2   1   46.60   18.60
   2  14  -1  103.69   15.20
 -14  -2   1   99.09   22.70
 -14  -2   1  100.29   19.80
  -2  14  -1   87.49   12.90
 -14   2   1   93.59   14.60
 -14  -2  -1   86.99   18.90
  14   2  -1   74.29   10.20
   2  14   1  114.79   13.50
  14   2  -1   90.99   20.30
  14  -2   1   98.49   13.00
   2  14   1   93.39   12.20
 -14  -2  -1   80.09   17.80
   2 -14  -1  104.59   11.60
  -2 -14   1  105.79   10.30
  14   3   1   67.89   19.90
   3  14  -1  147.69   16.40
  -3  14   1   88.69   12.90
  14   3   1   81.99   12.30
   3 -14   1  104.99   11.70
  14  -3  -1   79.39   12.00
 -14  -3   1  105.09   17.40
 -14  -3   1   71.59   16.50
  -3 -14  -1   88.49   10.50
 -14   3  -1   72.79   12.00
  14   3  -1   58.19   10.10
  -3 -14   1   86.29   10.10
  14   3  -1   22.60   19.80
   3  14   1   97.19   15.80
  -3  14  -1   84.89   12.30
  14  -3   1   79.19   11.00
   3 -14  -1   94.49   11.90
 -14  -3  -1   60.49   17.20
 -14  -3  -1  109.89   17.30
   3  14   1   96.79   12.50
 -14   3   1   62.39   14.80
  14   4   1   65.09   18.80
 -14   4  -1   55.69   14.80
  14  -4  -1   76.59   11.10
 -14  -4   1   81.89   16.20
  -4  14   1   52.89    8.90
  -4 -14  -1   70.99   10.40
  14   4   1   84.29   11.30
   4  14  -1  101.39   15.10
   4 -14   1   74.79   11.70
 -14  -4   1   34.40   15.70
  14   4  -1   68.29   19.00
   4  14   1   86.49   12.00
  -4  14  -1   72.69   10.30
   4 -14  -1   78.39   12.90
  14   4  -1   92.49   12.70
 -14  -4  -1   84.79   17.60
 -14   4   1   84.29   13.10
  14  -4   1   80.39   11.10
  -4 -14   1   81.39   10.10
 -14  -4  -1   88.39   17.00
   4  14   1   84.79   13.00
  -5 -14  -1   54.09    8.80
   5  14  -1   60.59   13.90
   5 -14   1   71.19   10.70
 -14  -5   1   58.69   15.40
  14  -5  -1   45.90   10.40
  -5  14   1   66.29   10.40
  14   5   1   34.70    8.60
 -14  -5   1   75.59   16.40
 -14   5  -1   33.90   10.70
  14   5  -1   61.09   19.50
   5 -14  -1   61.19   19.00
  -5  14  -1   46.10    9.30
 -14   5   1   71.29   11.90
  -5 -14   1   49.00    8.90
  14   5  -1   52.89    9.40
  14  -5   1   44.80   10.20
   5  14   1   38.00    8.90
  -6 -14  -1   36.10    8.60
   6  14  -1   81.99   15.70
  14  -6  -1   47.30   10.90
   6 -14   1   36.80    9.00
  -6  14   1   45.50    9.40
  14   6   1   35.50    9.10
 -14   6  -1   23.90    9.60
 -14  -6   1   67.99   17.30
   6 -14  -1   51.19   10.40
  -6 -14   1   31.70    6.50
   6  14   1   55.69   10.10
  14  -6   1   39.80   10.40
 -14  -6  -1   53.49   16.20
  14   6  -1   71.19   22.60
  -6  14  -1   72.59   10.90
  14   6  -1   41.20    9.10
 -14   6   1   29.80   10.20
 -14  -7   1   24.60   16.30
  14  -7  -1   33.20   10.70
  -7  14   1   32.60    9.10
   7 -14   1   52.49   10.70
  -7 -14  -1   31.50    8.40
  14   7   1   31.80    9.10
 -14   7  -1   28.80   10.10
 -14  -7  -1   30.30   14.90
   7 -14  -1   44.90   11.40
  14   7  -1   27.00    9.10
  -7  14  -1   41.50    9.40
  -7 -14   1   21.30    6.90
 -14   7   1   21.70    9.80
  14  -7   1   23.90   10.70
   0 -15  -1  141.99   12.10
   0 -15   1  145.69   12.60
  15   0   1  133.39   14.30
  15   0  -1  144.39   13.70
 -15   0   1  124.29   18.30
   0  15  -1  131.89   15.70
   0  15   1  133.29   14.20
 -15  -1   1   83.99   18.20
  15  -1  -1  152.28   14.10
   1  15  -1  129.19   16.50
  -1  15   1  129.49   13.80
  15   1   1  133.19   13.70
  -1 -15  -1  129.09   11.80
   1 -15   1  150.98   12.90
   1  15   1  145.89   15.30
  -1  15  -1  136.29   14.50
 -15   1   1  119.69   17.40
  15   1  -1  122.09   13.00
  15  -1   1  113.09   13.10
   1 -15  -1  136.59   12.50
  15   2   1   91.69   13.10
  -2  15   1  119.69   14.00
 -15   2  -1  117.99   15.50
  -2 -15  -1  115.49   11.20
   2 -15   1  125.09   13.00
   2  15  -1  120.39   16.60
  15  -2  -1   90.99   13.50
  15   2  -1   91.39   13.30
  -2  15  -1  120.39   13.80
 -15   2   1  112.19   17.70
 -15  -2  -1  127.09   20.70
  -2 -15   1  136.49   11.90
   2 -15  -1  109.69   12.60
  15  -2   1  120.39   14.00
  15   3   1   55.29    9.80
  -3  15   1   80.69   12.30
   3  15  -1  116.89   16.70
 -15   3  -1   84.49   14.00
  15  -3  -1   49.30   10.40
   3 -15   1   99.89   12.80
  -3  15  -1   93.59   12.60
  -3 -15   1   81.19   10.20
 -15  -3  -1   91.79   19.30
 -15   3   1   69.89   13.00
   3 -15  -1   77.69   12.50
   3  15   1  101.29   13.90
  15   3  -1   98.99   13.80
  15  -3   1   71.79   11.40
  15  -4  -1   60.59   11.30
   4  15  -1   90.69   15.50
   4 -15   1   78.49   12.70
  15   4   1   63.59   10.10
  -4  15   1   83.69   12.40
 -15   4  -1   74.79   12.50
   4  15   1   89.99   14.10
  -4 -15   1   74.89   10.30
  15  -4   1  104.09   14.60
   4 -15  -1   50.69    9.40
  -4  15  -1   92.79   13.10
  15   4  -1   85.79   12.20
 -15  -4  -1   55.49   21.60
 -15   4   1   67.49   12.40
  15  -5  -1   66.89   11.50
   5 -15   1   66.79   11.10
  15   5   1   56.69   10.10
   5  15  -1   66.79   16.10
  -5 -15  -1   64.09   10.30
 -15  -5   1   74.69   20.90
  -5  15   1   84.09   11.80
   5 -15  -1   99.19   14.30
 -15   5   1   67.69   12.70
  15   5  -1   53.39   10.00
  -5  15  -1   61.79   10.30
  15  -5   1   72.39   12.00
 -15  -5  -1   88.59   19.10
  -5 -15   1   69.19   10.70
  16   0  -1   42.00    9.90
   0 -16   1   70.89   10.30
  16   0   1   32.70    9.80
 -16   0   1   35.20   14.80
   0 -16  -1   67.59   11.20
   0  16   1   67.09   11.20
   0  16  -1   68.99   11.90
   0   0   2   -0.50    1.80
   0   0   2   -1.30    1.60
   0   0  -2    1.20    3.60
   0   0   2   -0.40    1.80
  -1   0   2 1192.18   30.70
   0   1  -2 1235.98   31.60
   1   0   2 1219.88   31.10
   1   0   2 1217.38   33.40
   0  -1   2 1245.18   30.80
  -1   0  -2 1239.58   33.20
   0  -1   2 1224.78   31.50
   0  -1   2 1210.28   31.40
   0  -1   2 1242.98   31.70
   1   0   2 1211.18   30.90
  -1   0   2 1246.58   31.60
   1   0   2 1191.58   31.60
   1   0  -2 1185.58   30.80
   0   1   2 1212.58   31.40
  -1   0   2 1188.18   30.90
  -1   0   2 1233.98   31.50
   0   1   2 1264.67   31.10
   0  -1  -2 1177.38   32.00
   0   1   2 1251.47   32.20
   1  -1   2  519.05   15.10
   1   1   2  530.55   14.50
   1  -1   2  516.95   13.70
   1   1  -2  528.05   14.30
  -1   1   2  546.05   14.40
  -1   1  -2  506.85   15.10
  -1  -1   2  506.65   14.00
   1   1   2  531.85   15.10
   1  -1  -2  519.45   14.20
   1  -1   2  515.95   14.80
   1   1  -2  495.85   14.30
  -1   1   2  524.65   14.50
  -1  -1   2  518.45   14.40
  -1   1   2  516.95   14.60
  -1  -1  -2  534.45   16.60
   1   1   2  512.75   16.30
   1   1   2  519.15   13.70
  -1  -1   2  555.24   15.00
   1  -1  -2  515.45   13.90
   0  -2   2 2289.37   59.89
   0  -2  -2 2309.87   60.39
  -2   0  -2 2237.28   59.39
   2   0   2 2325.67   60.19
   0  -2  -2 2350.96   60.09
   2   0   2 2403.06   59.59
  -2   0  -2 2398.66   62.29
   0   2   2 2348.07   59.39
   0  -2   2 2330.57   60.29
   2   0  -2 2368.36   60.29
   2   0  -2 2092.89   58.69
   0   2  -2 2387.66   60.19
   0  -2   2 2457.85   60.39
   2   0   2 2436.76   62.29
   0   2   2 2399.56   60.69
   0   2   2 2365.46   59.99
  -2   0   2 2460.65   60.29
   2   1   2  258.37   11.80
   1   2  -2  257.87    8.90
   1  -2   2  264.97    7.00
  -2  -1   2  242.98    7.60
   2   1   2  248.08    8.30
   1   2  -2  264.47    7.80
  -2   1  -2  251.27    9.80
  -1   2   2  265.47    8.90
   2   1   2  257.07    9.70
   1  -2   2  243.28    9.20
  -1   2   2  262.17    8.30
  -2  -1   2  267.77    9.20
   1  -2   2  236.98    8.70
  -1  -2  -2  263.97   11.00
  -1  -2  -2  252.87    9.90
  -2   1  -2  237.88    9.10
  -1   2   2  245.68    8.60
  -2  -1   2  237.08    7.90
  -1   2  -2  265.77   10.50
  -1  -2   2  243.78    8.20
   2  -1   2  263.27    9.10
   2   1  -2  249.38    8.90
  -2   1   2  272.47    8.90
  -2  -1  -2  246.48   12.20
   2   1  -2  233.58    8.10
  -1   2  -2  251.87    9.20
  -1  -2   2  257.07    9.10
   1   2   2  251.67   10.90
   1   2   2  253.87    8.60
   1   2   2  248.48    7.10
  -1  -2   2  250.87    8.80
   1  -2  -2  253.77    8.40
   1  -2  -2  254.07    8.00
   2  -1   2  242.08    7.60
   2   2  -2   13.70    3.30
  -2   2   2    9.10    2.60
   2   2   2   11.90    3.10
  -2  -2   2    7.20    2.50
  -2   2  -2    7.30    3.70
   2   2  -2    7.80    3.10
  -2   2  -2    9.50    3.90
   2  -2  -2   15.30    2.80
   2  -2   2    7.40    3.30
   2  -2  -2    6.90    1.50
  -2  -2  -2    9.90    5.80
  -2  -2   2    5.30    2.90
   2   2   2    8.90    5.10
  -2   2   2    7.90    2.30
  -2  -2  -2    9.60    4.90
  -2   2   2    8.20    3.80
   2  -2   2    6.40    3.60
   2  -2   2    7.00    1.90
  -2  -2   2    5.90    3.00
   0   3   2 5249.37  133.49
   0  -3   2 5193.18  132.79
  -3   0  -2 5392.76  135.19
   3   0   2 5245.68  133.09
   0   3  -2 5333.77  133.19
  -3   0  -2 5322.07  131.99
  -3   0   2 4993.80  131.29
   0  -3   2 5323.57  133.19
   3   0  -2 5009.10  131.59
   3   0   2 5312.67  132.29
   0   3   2 5309.17  132.69
   0   3   2 5403.56  132.39
   0  -3  -2 5264.47  133.29
  -3   0   2 5545.54  133.19
   0  -3  -2 5281.67  132.99
  -3   0   2 4982.20  131.39
   3   0   2 5250.47  135.09
   3   0  -2 5292.87  132.99
   1   3  -2  121.19    4.40
   3   1   2  122.19    7.60
   1  -3   2  117.79    6.40
  -1  -3  -2  128.29    8.50
  -1   3   2  110.59    5.90
  -3   1  -2  119.19    6.20
  -1   3   2  123.19    6.80
  -3  -1   2  111.39    5.00
  -3   1  -2   93.89   11.60
   3  -1  -2  115.79    7.60
   1   3  -2  121.59    6.90
   1  -3   2  110.39    7.20
  -3   1  -2  127.89    7.50
  -1  -3  -2  121.19    7.30
  -1   3   2  109.49    5.90
  -3  -1   2  108.59    5.40
  -3  -1   2  121.79    6.90
   3   1   2  109.29   10.50
   3   1   2  122.49    5.90
   3   1  -2  116.39    7.00
   1  -3  -2  122.99    5.70
   3  -1   2  116.09    5.50
   3  -1   2  114.09    6.80
   1   3   2  121.39    5.00
  -3  -1  -2  121.79    4.10
  -3  -1  -2  115.49    9.70
  -1  -3   2  119.89    6.80
   1   3   2  122.29    8.80
  -3   1   2  109.59    6.60
   3   1  -2  119.39    6.10
   1  -3  -2  132.49    6.60
   1   3   2  110.29    5.90
  -1   3  -2  115.29    6.50
  -1  -3   2  110.19    5.80
  -1  -3   2  122.99    6.90
  -1   3  -2  105.29    8.50
  -2   3   2  125.79    6.60
   2   3  -2  116.49    7.30
  -2  -3  -2  120.69    9.20
  -2   3   2  119.29    6.20
  -3  -2   2  120.49    5.90
  -3  -2   2  120.69    6.70
   3  -2  -2  114.89    4.40
  -3  -2   2  123.09    7.30
  -2  -3  -2  124.59    8.10
  -2   3   2  112.69    6.50
   3   2   2  111.89   10.20
   3  -2  -2  114.69    4.10
  -3   2  -2  124.89    7.40
   2  -3   2  124.39    4.30
   2   3  -2  115.39    5.40
   2  -3   2  122.29    7.70
  -3   2  -2  116.59    7.40
   2  -3   2  123.29    6.60
   3   2   2  120.59    6.30
   3  -2  -2  130.89    7.60
  -3   2   2  115.39    4.40
  -2  -3   2  115.39    6.20
   2   3   2  123.69    9.50
  -2  -3   2  124.99    7.10
   2  -3  -2  122.99    5.00
   3  -2   2  127.59    7.90
  -3  -2  -2  119.79   10.40
   2   3   2  122.29    4.60
   3  -2   2  119.79    7.10
   3   2  -2  123.39    6.60
  -3   2   2  130.09    6.50
  -2   3  -2  133.89    7.50
  -3  -2  -2  108.59    9.00
   3   2  -2  118.69    7.00
   2  -3  -2  123.39    5.60
   2   3   2  128.19    6.40
  -2   3  -2  124.39    8.10
   3  -2   2  124.89    5.30
  -2  -3   2  115.09    6.70
  -3   3  -2   11.90    4.60
  -3  -3  -2   17.90    6.00
   3  -3   2   10.00    3.60
  -3  -3   2   20.00    4.00
   3  -3  -2   18.10    2.40
  -3  -3  -2   21.40    6.60
   3   3   2   17.30    3.40
   3   3  -2   19.90    3.60
  -3  -3   2   20.40    4.50
   3  -3   2   17.90    4.40
  -3   3   2   17.10    2.80
  -3   3  -2   16.10    4.20
   3   3  -2   15.50    4.20
   3  -3  -2   17.20    2.60
   3   3   2   21.40    6.40
   3  -3   2   19.20    2.80
  -3   3   2   16.70    3.80
   3   3   2   12.40    2.10
  -3  -3   2   20.90    3.70
   0  -4  -2 1758.32   46.20
   0  -4  -2 1747.83   46.60
  -4   0   2 1846.22   46.60
  -4   0   2 1628.74   44.70
   0  -4   2 1710.83   46.00
   0   4  -2 1808.32   48.10
   0   4   2 1788.22   45.90
   4   0  -2 1741.03   45.20
   0   4  -2 1832.82   46.70
   4   0   2 1709.13   46.30
   0   4   2 1789.52   47.20
  -4   0   2 1644.24   44.50
   0  -4   2 1773.42   46.50
   4   0   2 1731.73   45.50
  -4   0  -2 1823.82   45.20
   0   4   2 1768.52   45.80
   4   0  -2 1762.32   46.50
  -4   0  -2 1762.92   49.00
   4   0   2 1755.42   49.10
   4   1   2   13.50    6.70
   1   4  -2   21.30    2.20
  -4  -1   2   15.00    3.30
  -4  -1   2   10.60    4.20
  -4   1  -2   20.10    3.70
   4   1   2   18.00    4.80
  -1   4   2   17.20    4.20
  -4  -1   2   14.50    3.00
  -1   4   2   16.20    3.50
   1  -4   2   17.80    3.80
   4   1   2   19.00    3.50
   1   4  -2   18.10    4.40
  -4   1  -2   17.20    7.00
  -1   4   2   18.50    3.50
  -1  -4  -2   16.60    4.20
   1  -4   2   13.50    4.10
  -1  -4  -2   20.60    5.00
   4  -1  -2   17.40    4.90
   4  -1   2   17.00    3.90
  -4   1   2   16.50    2.80
  -4   1   2   20.60    3.50
  -1   4  -2   17.20    5.40
   1   4   2   14.90    3.00
   1  -4  -2   17.20    4.00
  -4  -1  -2   19.90    7.10
  -1  -4   2   18.90    4.40
   1   4   2   21.60    3.60
  -4  -1  -2   17.90    2.40
  -1  -4   2   18.80    4.00
   1   4   2   17.10    5.40
   4  -1   2   20.80    3.50
  -1  -4   2   18.50    3.60
   1  -4  -2   16.50    3.50
  -4   1   2   15.60    2.70
   4   1  -2   14.10    3.90
  -4   1   2   14.40    4.10
   4   1  -2   15.70    4.50
  -1   4  -2   17.30    4.40
  -2  -4  -2   60.29    7.10
   2  -4   2   58.89    6.60
  -2  -4  -2   70.39    8.40
  -4  -2   2   62.69    6.40
  -2   4   2   61.09    5.30
   4   2   2   58.59    8.80
  -2   4   2   66.79    5.60
  -4   2  -2   58.39    7.20
   4  -2  -2   56.19    3.40
  -4  -2   2   51.49    5.30
   2   4  -2   62.29    6.80
  -2   4   2   63.29    5.90
   4  -2  -2   58.59    6.80
   2  -4   2   59.09    5.80
  -4  -2   2   56.89    5.90
  -4   2  -2   61.29    6.10
  -4   2  -2   67.19   12.00
   4   2   2   55.59    5.40
   2  -4   2   53.69    3.20
   2   4  -2   64.99    4.00
  -2  -4   2   63.79    6.40
  -2  -4   2   53.19    6.20
  -4   2   2   51.49    3.20
  -4  -2  -2   56.89    3.30
  -2   4  -2   58.99    6.50
   4  -2   2   47.40    4.90
   2   4   2   63.39    5.00
  -4  -2  -2   56.49    8.80
   4   2  -2   62.99    6.70
   4  -2   2   65.29    6.10
  -4   2   2   63.29    5.70
   4   2  -2   69.29    6.40
  -4   2   2   60.89    5.70
  -2  -4   2   61.69    5.40
  -4  -2  -2   62.09    7.90
   2  -4  -2   62.29    4.60
  -2   4  -2   62.09    7.50
   2   4   2   55.49    4.40
   2   4   2   54.99    8.70
   2  -4  -2   56.09    5.10
  -4   3  -2    8.40    4.30
   3  -4   2   11.40    2.80
   4  -3  -2   10.20    2.30
   4  -3  -2    9.10    2.50
  -3  -4  -2    6.50    5.30
  -4  -3   2    6.50    3.90
   3  -4   2    7.30    3.60
   3   4  -2    6.30    2.80
  -4   3  -2    2.00    4.00
   4  -3  -2   11.40    4.80
  -3   4   2    8.00    3.10
  -3   4   2   11.20    4.10
  -4  -3   2    7.70    3.90
   4   3   2   13.60    4.20
   3  -4   2    4.40    4.20
  -4  -3   2   10.30    4.10
   4   3   2    4.90    6.50
  -3   4   2    8.10    3.70
   3   4  -2   13.40    4.60
  -3   4  -2    5.30    4.00
  -3   4  -2    5.10    4.70
  -4   3   2    5.10    2.30
   3   4   2    5.30    2.60
  -4  -3  -2    7.70    2.10
   4  -3   2    8.90    3.10
  -3  -4   2    3.50    3.80
   3  -4  -2    6.50    2.80
  -3  -4   2   10.00    4.00
   3   4   2    7.20    6.00
   4   3  -2    5.70    4.30
  -4  -3  -2    3.90    6.40
   3   4   2   10.80    3.60
   4  -3   2    7.40    4.30
  -4  -3  -2    2.00    6.60
   4  -3   2    4.80    4.20
   3  -4  -2    8.20    2.50
   4   3  -2    6.00    3.60
  -3  -4   2    4.70    3.20
   4  -4   2   28.60    5.40
  -4  -4  -2   25.30    7.00
   4  -4  -2   23.10    3.90
   4   4  -2   25.80    5.70
  -4  -4  -2   25.10    6.40
  -4   4  -2   26.40    5.00
  -4  -4   2   23.90    4.90
   4   4  -2   16.60    3.70
  -4  -4   2   22.20    4.50
  -4   4   2   19.70    3.50
   4  -4  -2   22.70    5.30
  -4   4   2   27.50    5.00
   4   4   2   24.60    3.50
   4   4   2   20.30    7.20
   4  -4   2   20.80    6.10
   4   4   2   19.70    3.90
   4  -4   2   23.40    3.80
   4  -4  -2   21.30    3.50
  -4  -4   2   25.50    4.70
  -4   4  -2   22.30    5.30
   0   5  -2  211.38   11.50
  -5   0   2  194.08    8.10
   0   5   2  209.68    8.70
   0   5  -2  209.68    6.00
   5   0   2  218.08   13.70
  -5   0   2  194.18    7.70
   5   0  -2  205.18    9.20
   0  -5  -2  152.08   13.40
  -5   0   2  209.68    9.60
   0   5   2  193.28    8.20
   0  -5  -2  212.18   10.10
  -5   0  -2  211.48   14.10
  -5   0  -2  217.28    8.10
   0   5   2  220.28   10.70
   0   5  -2  202.38    9.80
   0  -5   2  207.58    9.50
   5   0   2  211.18    8.70
   5   0   2  172.38   11.20
  -1  -5  -2   42.60    6.20
  -1   5   2   36.60    4.70
  -5  -1   2   46.80    5.80
  -5   1  -2   37.50    5.30
  -1  -5  -2   43.20    5.90
   5  -1  -2   25.00    7.30
  -1   5   2   43.00    9.20
  -5   1  -2   39.10    8.80
  -5  -1   2   33.60    5.10
   1   5  -2   35.90    6.00
   1  -5   2   39.90    5.40
   1   5  -2   35.80    2.90
  -5  -1   2   34.70    5.30
   5   1   2   22.70    7.20
  -1   5   2   43.50    5.60
  -5   1   2   29.30    4.80
   5  -1   2   36.00    5.30
  -1   5  -2   38.10    5.70
   1   5   2   35.50    4.60
   5   1  -2   35.10    5.20
   1  -5  -2   38.00    5.90
  -5   1   2   36.80    5.90
  -5  -1  -2   31.50    4.00
  -5   1   2   38.80    5.20
   1  -5  -2   36.10    5.10
  -5  -1  -2   33.40    7.40
   1   5   2   48.00    7.90
  -1  -5   2   34.80    6.00
   5  -1   2   35.40    5.90
   1   5   2   38.60    4.80
  -5   2  -2  129.99    8.70
   5  -2  -2  120.99    8.60
  -5  -2   2  112.99    7.20
  -2   5   2  118.79    6.80
  -2  -5  -2  122.29    9.80
  -2  -5  -2  112.09    8.90
   2  -5   2  124.19    4.70
   5   2   2  106.29   11.50
  -2   5   2  111.59    8.10
  -2   5   2  126.19    8.00
  -5   2  -2  112.39   13.20
  -5  -2   2  130.29    8.00
  -5   2  -2  118.09    7.60
   2   5  -2  127.29    8.70
   2   5  -2  129.79    5.30
   5   2   2  128.49    7.20
   5  -2  -2  120.49    5.30
  -5  -2   2  110.59    7.60
   2  -5   2  127.99    8.30
   2  -5   2  118.29    7.60
   2   5   2  116.49    6.40
  -2   5  -2  124.29    9.70
   2  -5  -2  117.79    6.30
   2   5   2  126.49   10.40
  -5  -2  -2  120.09   10.70
   5  -2   2  118.99    6.90
  -2  -5   2  113.29    7.90
   5  -2   2  125.29    8.00
   5   2  -2  123.19    8.70
  -2  -5   2  130.39    8.20
   2  -5  -2  119.89    7.10
   2   5   2  119.59    6.70
  -2  -5   2  119.49    7.30
  -5   2   2  110.49    5.00
  -5   2   2  126.89    7.30
  -5  -2  -2  123.99    5.60
  -2   5  -2  127.79    8.10
  -5   2   2  122.79    7.60
   3  -5   2   42.40    4.20
   3   5  -2   42.90    4.60
  -5  -3   2   45.30    6.80
  -3  -5  -2   37.30    6.10
   5   3   2   43.80    5.60
  -5  -3   2   36.70    5.30
   5  -3  -2   53.59    6.60
   5  -3  -2   32.70    4.00
  -3   5   2   42.90    6.30
   3  -5   2   25.40    4.40
  -3   5   2   46.80    6.30
   3  -5   2   35.70    6.10
  -5   3  -2   44.60    7.20
   3   5  -2   50.09    7.50
   5   3   2   41.20    8.30
  -3  -5  -2   46.50    7.20
  -5   3  -2   34.40    6.00
  -3   5   2   34.40    5.70
  -5  -3   2   40.80    7.20
   3  -5  -2   43.00    5.20
  -5  -3  -2   48.00    8.20
  -3  -5   2   40.70    6.20
  -3  -5   2   53.19    6.30
  -3   5  -2   40.90    5.70
  -5   3   2   40.50    6.30
  -3   5  -2   48.10    6.80
   5  -3   2   32.70    5.10
   5  -3   2   37.80    5.30
  -5  -3  -2   46.50    7.50
   5   3  -2   45.10    6.00
   3  -5  -2   47.90    4.60
   5   3  -2   39.40    7.20
  -5  -3  -2   43.40    3.90
  -3  -5   2   46.30    6.90
   3   5   2   39.70    5.20
   3   5   2   42.20    5.10
  -5   3   2   37.50    3.90
   3   5   2   58.19    8.40
   4  -5   2  129.39    6.70
   4  -5   2  118.59    8.20
   5  -4  -2  126.99    6.30
   5   4   2  121.09    7.60
   4  -5   2  130.19    9.00
  -4  -5  -2  129.09   10.20
   4   5  -2  140.29   10.00
  -4  -5  -2  124.19   11.40
  -5   4  -2  130.99    9.00
   5  -4  -2  140.09    9.60
   5  -4  -2  129.39    6.90
   4   5  -2  135.69    7.10
  -4   5   2  145.39    8.80
  -5   4  -2  127.29    8.70
  -4   5   2  129.19    7.40
  -5  -4   2  133.09    9.70
  -5  -4   2  121.19    9.40
   4   5   2  128.59    6.80
   5  -4   2  138.19    9.10
  -5  -4  -2  140.79   10.70
   5  -4   2  131.79    8.70
  -4  -5   2  133.79    8.30
   4   5   2  134.09    7.60
   5   4  -2  134.69   10.00
  -4   5  -2  141.79    9.70
  -5  -4  -2  136.09    6.00
   4  -5  -2  134.59    6.60
  -5   4   2  144.99    8.90
   4  -5  -2  126.39    7.10
   4  -5  -2  134.59    9.30
  -4   5  -2  140.79    8.60
  -5   4   2  124.89    6.40
  -4  -5   2  140.29    8.90
   4   5   2  143.89   11.10
  -4  -5   2  133.39    9.10
   5   4  -2  130.79    7.40
   5  -4   2  128.69    7.20
  -5  -4  -2  143.49   11.90
  -5  -5   2  225.58   10.80
   5   5  -2  221.58    9.40
   5  -5  -2  215.78    9.30
   5  -5  -2  205.88   11.00
   5   5   2  189.68   13.30
   5   5   2  201.48    9.10
  -5   5   2  212.08    8.90
   5  -5   2  208.98    8.90
  -5  -5   2  226.48   11.40
  -5   5  -2  216.98   11.50
  -5   5  -2  231.28   11.20
   5   5   2  237.78   14.60
   5  -5   2  207.78   10.70
  -5  -5  -2  199.98   13.30
  -5   5   2  211.78   11.00
  -5  -5  -2  207.88   12.30
  -5  -5   2  203.88   10.70
   5  -5   2  205.78   11.40
   5  -5  -2  214.78    8.60
  -6   0  -2  588.64   17.20
   6   0   2  560.84   22.80
   0  -6   2  575.94   18.20
  -6   0  -2  561.84   22.20
   0   6   2  607.04   19.90
   0   6  -2  574.64   15.30
   6   0  -2  562.24   18.60
   0   6   2  555.44   17.40
   0  -6  -2  559.64   18.40
  -6   0   2  558.14   17.10
   0   6  -2  585.54   20.40
   6   0  -2  558.44   18.80
   0   6   2  565.94   18.10
   0  -6  -2  572.84   19.00
   0  -6   2  569.34   18.80
  -6   0   2  558.64   17.50
   0   6  -2  613.04   19.30
  -6   0   2  583.14   18.80
   6   0   2  581.44   17.90
  -6  -1   2   94.39    7.00
   6   1   2   85.99    6.80
   6   1   2   75.19   11.90
  -6  -1   2   81.29    7.50
  -1  -6  -2   81.79    8.00
  -1   6   2  100.09    8.60
   1   6  -2   77.49    9.90
  -6  -1   2   89.99    7.70
  -1  -6  -2   94.19    9.00
  -1   6   2   82.69    8.00
   1   6  -2   83.69    4.20
  -6   1  -2   83.79    6.90
   1  -6   2   94.89    7.60
  -6   1  -2   80.39   12.60
   1   6  -2   87.79    7.80
  -1   6   2   90.69    6.10
   1  -6   2   89.29    6.90
   6  -1  -2   86.49    8.30
   6   1  -2   88.29    8.20
  -6   1   2   89.69    7.80
   6  -1   2   77.19    6.70
  -6  -1  -2   89.89   11.70
  -6  -1  -2   84.99    5.70
   1   6   2   90.49    9.40
  -1  -6   2   90.39    7.60
   1   6   2   88.09    5.90
  -1   6  -2   81.49    9.10
  -6   1   2   91.49    6.70
   6   1  -2   77.09    8.40
   1  -6  -2   96.39    7.60
  -1   6  -2   87.69    7.20
   1   6   2   82.89    6.60
  -1  -6   2   81.19    6.70
  -6   1   2   84.69    6.90
  -6  -2   2   12.30    4.80
   2   6  -2   17.20    2.90
   2  -6   2   23.20    2.80
   2  -6   2   22.30    5.00
   6   2   2   14.20    4.30
  -6   2  -2    6.60    8.50
   6  -2  -2    8.70    5.50
   2  -6   2   19.70    4.70
  -2  -6  -2   29.70    6.30
  -2   6   2   19.40    3.70
  -6  -2   2   18.70    5.10
  -2   6   2   16.20    4.50
  -2   6   2   14.90    4.70
  -6   2  -2   13.40    5.10
  -6   2  -2   14.00    5.20
   6  -2  -2   21.30    3.80
   6   2   2   19.60    7.40
  -6  -2   2   14.90    4.80
  -2  -6  -2   13.80    6.10
   6   2  -2   20.50    5.20
  -6   2   2   11.60    4.50
   2  -6  -2   17.50    4.20
   6   2  -2   27.00    6.20
  -6   2   2   15.30    3.00
  -6   2   2   14.70    4.80
  -2  -6   2   12.40    4.50
  -2  -6   2   14.30    4.00
  -2   6  -2   13.70    4.90
   6  -2   2    8.40    4.10
  -6  -2  -2    5.20    7.10
   2  -6  -2   20.40    4.10
   6  -2   2   19.40    5.30
  -2   6  -2   18.70    6.10
   2   6   2   18.10    3.80
  -6  -2  -2   15.50    3.60
   2   6   2   19.40    4.10
  -6  -2  -2   16.10    7.80
  -3   6   2    7.30    4.50
  -6   3  -2   -2.50    4.70
  -6  -3   2    1.20    4.40
   3  -6   2    3.20    3.10
   6   3   2    5.20    6.00
   3   6  -2    8.50    5.30
  -3  -6  -2    2.60    8.80
   3  -6   2    5.50    4.50
  -6  -3   2    8.80    4.60
   6  -3  -2   -1.60    5.30
  -6  -3   2    1.20    4.80
   3  -6   2    3.10    4.10
  -6   3  -2    8.10    8.40
  -3   6   2    8.00    4.70
   6  -3  -2    9.00    3.10
   3   6  -2   10.00    3.10
  -6   3  -2    6.50    4.50
  -3  -6  -2    7.20    5.90
  -3   6   2   12.70    4.20
  -3  -6   2    0.60    4.70
   3  -6  -2   10.20    3.70
   3   6   2    8.90    3.80
  -6  -3  -2    4.40    3.20
  -3   6  -2   10.10    6.10
   3  -6  -2    5.70    3.10
  -6  -3  -2    3.40    6.90
   6  -3   2    5.50    4.50
   6   3  -2    4.40    4.20
  -6   3   2    5.80    2.70
  -3  -6   2    5.70    5.10
  -6   3   2    4.10    5.40
   6   3  -2   10.30    6.00
   3   6   2   11.10    7.00
  -3  -6   2    9.80    4.50
  -6  -3  -2    5.10    7.60
   6  -3   2    8.10    4.60
   3   6   2   10.80    3.80
   6   4   2   45.10    5.50
   4  -6   2   41.30    7.40
   4  -6   2   41.50    6.10
  -4   6   2   37.00    5.40
  -6   4  -2   37.10    5.90
  -6  -4   2   47.60    7.70
   4   6  -2   49.70    8.80
   6   4   2   52.69    9.20
  -4  -6  -2   41.10    7.20
   4   6  -2   38.40    4.50
   6  -4  -2   37.00    6.70
  -6  -4   2   45.70    6.30
   6  -4  -2   51.69    5.20
   4  -6   2   46.20    5.50
  -4   6   2   40.40    6.40
  -6  -4   2   42.10    6.80
   4   6   2   38.00    8.30
  -6  -4  -2   35.40    4.80
  -6   4   2   40.60    4.70
  -4   6  -2   45.20    7.10
  -6  -4  -2   43.90    8.80
  -4  -6   2   50.89    6.50
   6   4  -2   46.80    6.30
  -4  -6   2   44.90    7.00
  -4   6  -2   44.90    6.70
   4  -6  -2   39.20    5.70
  -4  -6   2   42.70    7.60
   6   4  -2   50.69    7.60
  -6   4   2   45.60    7.00
   4  -6  -2   46.90    5.40
   4   6   2   43.70    5.80
  -6  -4  -2   45.00    8.40
   4   6   2   40.30    5.70
   6  -4   2   47.40    6.10
   4  -6  -2   53.89    6.80
   6   5   2   78.09    7.10
   5  -6   2   77.09    8.40
  -6   5  -2   91.29    8.80
  -5   6   2   73.79    8.10
  -5   6   2   71.19    6.70
   6  -5  -2   73.99    8.90
   5  -6   2   73.99    8.40
  -5  -6  -2   70.89    9.50
  -6  -5   2   84.89   13.80
  -6   5  -2   74.59    8.40
   6   5   2   83.39   12.90
   5  -6   2   70.89    6.50
   6  -5  -2   71.69    6.30
  -6  -5   2   70.29    9.70
  -5  -6  -2   85.39   10.00
  -6  -5   2   71.69    8.00
   5   6  -2   85.59    9.80
   6  -5  -2   69.49    6.80
   5   6  -2   74.39    6.50
   6   5  -2   71.39    8.70
  -5   6  -2   68.59    8.60
  -6   5   2   75.29    6.30
   5   6   2   72.89    6.90
  -6  -5  -2   58.79   10.10
   6  -5   2   60.39    8.10
  -5  -6   2   76.59    8.70
  -6   5   2   62.09    8.00
  -6  -5  -2   79.59   10.10
   5  -6  -2   71.29    6.70
   5  -6  -2   78.29    8.80
  -5  -6   2   78.49    8.30
   6  -5   2   71.79    7.90
  -5  -6   2   78.19    7.80
   5   6   2   75.29    6.80
  -5   6  -2   77.19    8.00
   5  -6  -2   69.29    6.20
   6  -5   2   69.29    8.70
   6  -6  -2   11.60    4.10
  -6   6   2    7.80    5.70
  -6  -6  -2   14.40    7.20
   6  -6   2    5.50    4.50
  -6   6   2   11.90    4.10
  -6  -6   2   19.80    6.00
   6  -6  -2   13.70    5.90
   6   6   2   10.60    4.50
  -6  -6  -2    8.70    6.50
   6   6  -2   14.70    4.50
  -6   6  -2   14.70    5.80
   6   6   2   10.40    8.00
   6  -6  -2   11.80    4.00
   6   6  -2    6.80    6.30
  -6  -6   2   15.40    5.80
   6   6   2   10.90    5.10
   6  -6   2    6.60    5.30
  -6   6  -2   16.40    5.90
   6  -6   2    5.70    5.50
  -6  -6   2   22.00    6.20
   7   0   2  182.78   15.90
   0   7  -2  196.78    6.50
  -7   0  -2  206.68    9.00
   0  -7   2  190.88   10.20
   0   7   2  197.98    9.80
  -7   0   2  193.38    9.80
  -7   0   2  204.58   10.60
   7   0   2  194.98   11.00
   7   0  -2  186.08   11.50
   7   0  -2  186.78   11.10
   0   7   2  196.88    8.80
   0   7  -2  204.18   10.90
  -7   0  -2  175.38   15.30
   0  -7   2  182.78    9.40
  -7   0   2  189.78    9.40
   0  -7  -2  195.98   10.10
   7   0   2  202.68   11.60
   0  -7  -2  212.58   10.90
   0   7   2  201.38   11.60
  -1   7   2   33.80    6.60
  -1   7   2   43.20    6.00
  -7  -1   2   27.30    5.60
   7   1   2   40.70    9.00
   1  -7   2   39.10    5.50
  -7  -1   2   30.30    5.90
   1   7  -2   37.30    6.70
  -1   7   2   28.30    4.90
  -7   1  -2   32.20    5.30
   1  -7   2   33.20    5.30
   1   7  -2   38.70    7.40
  -7  -1   2   23.90    5.40
  -1  -7  -2   35.70    6.90
   7   1   2   28.90    5.40
  -7   1  -2   28.70    9.10
   1   7  -2   29.50    3.30
  -1  -7  -2   41.70    7.10
   7  -1  -2   31.10    6.30
  -7  -1  -2   34.20    5.50
  -1   7  -2   34.00    5.90
  -7   1   2   31.80    5.80
  -7   1   2   34.20    5.60
   1   7   2   33.50    7.10
   7  -1   2   33.80    5.40
  -7  -1  -2   29.00    8.30
   7  -1   2   36.10    6.20
  -1   7  -2   28.50    6.50
   1   7   2   30.00    4.90
   1  -7  -2   33.20    5.00
  -7   1   2   26.90    5.10
   7   1  -2   27.20    6.50
  -7  -1  -2   31.30    8.50
  -1  -7   2   25.30    4.40
   1   7   2   31.90    4.50
   7   1  -2   40.10    6.30
  -1  -7   2   29.90    5.10
   1  -7  -2   27.30    5.20
   7  -2  -2  104.79    9.30
   2   7  -2  104.19   10.70
   7   2   2  124.79   13.20
   2  -7   2  108.69    8.60
   2  -7   2  107.39    8.00
  -7   2  -2  113.09    9.50
  -7   2  -2  116.69    8.60
   7   2   2  113.59    8.20
   2   7  -2  116.79    5.60
  -2  -7  -2  103.79    8.80
  -7  -2   2  108.29    8.80
   2  -7   2  107.59    5.30
  -7  -2   2  107.19    9.20
  -7  -2   2  113.09    8.80
  -2  -7  -2   97.09   10.60
   2   7  -2  122.09    9.00
  -7   2  -2  118.19   14.60
  -2   7   2  108.29    8.80
  -2   7   2  116.19    6.90
   7  -2   2  115.29    8.90
   7   2  -2  116.29    8.60
   2  -7  -2  112.49    7.80
   7   2  -2   95.89   10.40
  -7   2   2   98.09    6.50
   2  -7  -2  110.89    7.20
  -7  -2  -2  107.39    6.80
   2   7   2  120.99   11.20
  -2  -7   2  110.39    7.80
   2   7   2  105.19    7.00
   2   7   2  103.69    7.70
  -7   2   2  109.99    8.60
  -7   2   2  109.79    8.90
  -2   7  -2  106.19    8.80
   7  -2   2  112.69    8.00
  -2   7  -2  110.39    9.90
  -7  -2  -2   99.09   12.20
  -7  -2  -2  105.19   13.10
   3  -7   2   69.59    7.70
   7  -3  -2   75.29    6.40
  -3  -7  -2   60.59    9.00
  -7  -3   2   58.69    8.50
  -3  -7  -2   64.89    8.90
  -3   7   2   66.99    7.70
  -7  -3   2   68.89    8.50
   3   7  -2   73.49    5.30
   7   3   2   74.99    7.40
   3   7  -2   57.99    9.00
   7   3   2   69.79    9.80
  -7   3  -2   78.59   11.60
   7  -3  -2   70.89    9.20
  -7   3  -2   71.09    8.80
  -7  -3   2   86.79    8.40
  -3   7   2   66.29    7.40
  -7   3  -2   67.29    7.90
   3  -7   2   53.29    7.30
  -3   7   2   77.59    7.10
   3  -7   2   67.29    5.30
   3   7   2   73.69    6.30
   7   3  -2   65.59    7.70
  -7  -3  -2   85.69   12.20
  -7   3   2   68.29    7.90
  -7  -3  -2   64.69    6.10
   3   7   2   76.09   10.90
  -7  -3  -2   71.59    9.30
  -7   3   2   71.89    9.40
   7   3  -2   67.09   10.60
  -3  -7   2   84.49    8.40
  -7   3   2   65.89    5.50
   7  -3   2   71.69    8.00
  -3  -7   2   67.59    7.40
  -3   7  -2   87.09    8.20
  -3   7  -2   84.29    9.40
   3  -7  -2   79.19    6.80
   3  -7  -2   70.99    6.30
   7  -3   2   83.89    7.20
   3   7   2   82.49    7.10
  -4   7   2  131.89    9.50
   7   4   2  129.59    8.80
  -4  -7  -2  124.29   11.80
   7   4   2  135.99   14.40
  -7   4  -2  142.39   17.80
   7  -4  -2  144.09   10.70
  -7   4  -2  135.89    9.70
   4  -7   2  136.69    8.80
  -7   4  -2  134.39   10.30
  -7  -4   2  115.09   10.20
  -4   7   2  134.19    8.90
  -7  -4   2  128.69   10.10
   4  -7   2  121.89    7.00
   7  -4  -2  127.09    7.80
  -7  -4   2  136.69    9.60
  -4  -7  -2  139.99   11.10
   4   7  -2  138.19    7.50
   4  -7  -2  126.39    8.50
  -7  -4  -2  138.29    7.10
  -7  -4  -2  136.19   13.20
  -7  -4  -2  144.99   12.80
  -7   4   2  120.79    9.50
  -7   4   2  129.99    7.20
   4   7   2  128.99    8.60
   7   4  -2  125.09    8.70
   4   7   2  123.19   12.70
  -4   7  -2  130.19    9.40
   7   4  -2  135.89   13.80
   4  -7  -2  145.69    8.20
  -4   7  -2  125.89   10.60
  -7   4   2  126.39   11.70
  -4  -7   2  126.59    9.10
   7  -4   2  133.39    8.80
   7  -4   2  124.99    9.50
  -4  -7   2  133.39    9.30
  -4  -7   2  120.99   11.80
   4   7   2  128.89    8.10
  -5  -7  -2  196.98   13.40
   5  -7   2  175.58   10.60
  -7  -5   2  171.98   10.90
  -5   7   2  166.78    9.80
  -7  -5   2  177.28   12.20
  -7  -5   2  170.48   11.10
   5   7  -2  179.38    8.60
   7   5   2  158.78    9.80
   7  -5  -2  164.98   11.40
  -7   5  -2  154.08   11.20
  -7   5  -2  172.08   11.30
  -5  -7  -2  177.58   12.40
   5   7  -2  182.68   12.70
  -5   7   2  164.58   10.60
   7   5   2  179.88   15.40
   5  -7   2  158.48    8.60
   5  -7   2  180.48   11.20
   7  -5  -2  168.18    8.70
  -7  -5  -2  159.08   13.50
  -5  -7   2  172.18   10.70
   5   7   2  160.18    9.50
  -5   7  -2  173.38   11.70
   7   5  -2  180.18    9.80
   5  -7  -2  160.28    9.50
   5   7   2  159.18    9.40
  -5  -7   2  173.98   11.10
  -5   7  -2  175.88   10.60
   5  -7  -2  175.48    8.90
   5   7   2  199.28   15.20
   7  -5   2  164.98   10.80
   7   5  -2  170.18   14.00
  -7   5   2  177.08   10.70
   7  -5   2  155.28    9.50
  -7   5   2  169.38    8.30
  -7  -5  -2  168.98   13.50
  -5  -7   2  196.68   11.70
  -7  -5  -2  175.78    8.30
   6   7  -2  123.89    8.20
   6   7  -2  142.69   13.10
   7  -6  -2  133.89    9.30
  -6  -7  -2  137.69   13.40
  -7  -6   2  146.49   11.60
   7  -6  -2  132.09    8.60
  -6   7   2  137.19    9.10
  -7  -6   2  123.79   11.30
  -7   6  -2  139.99   10.30
   6  -7   2  125.59   10.10
   6  -7   2  120.59   10.60
  -7  -6   2  125.59   10.30
  -6   7   2  137.99   10.40
  -7   6  -2  128.99   10.80
   7  -6  -2  134.59   11.00
   6  -7   2  113.69   10.40
  -6  -7  -2  140.49   12.50
   7   6   2  134.99    9.40
   7   6   2  123.19   15.50
   7  -6   2  139.19    9.30
   7  -6   2  152.48   11.30
  -6  -7   2  129.09   10.80
   6   7   2  144.69   15.00
   7  -6   2  142.79   10.60
   6   7   2  145.39    9.30
  -7  -6  -2  137.19   12.90
   7   6  -2  130.59    9.00
   6  -7  -2  135.09   10.80
  -7  -6  -2  144.39   14.00
  -7   6   2  141.69   10.40
   6  -7  -2  131.29    8.60
   6   7   2  123.29    9.20
  -6   7  -2  129.49   15.00
  -6  -7   2  147.49   10.40
   7   6  -2  115.59   12.70
   6  -7  -2  137.19    9.30
  -6  -7   2  136.69   11.20
  -7   6   2  128.69    8.40
  -6   7  -2  122.39   10.70
   7  -7  -2  119.99    9.60
   7  -7   2  125.09    9.30
  -7  -7   2  141.19   11.60
  -7   7  -2  128.69   10.90
   7   7  -2  103.09    8.50
  -7   7  -2   96.49   10.70
   7   7   2  113.89    9.70
  -7   7   2  114.99   10.40
  -7  -7  -2   98.09   13.60
  -7   7   2  117.69    9.10
  -7  -7   2  111.79   10.90
   7  -7  -2  113.69    8.90
   7  -7   2  102.59   10.20
   7  -7  -2  106.79   11.00
  -7  -7  -2  129.69   13.10
   7   7   2  107.79    9.30
   7   7  -2  102.49   14.30
  -7  -7   2   97.89   11.90
   7   7   2  123.29   15.60
   7  -7   2  116.09   10.90
  -8   0  -2   34.50    9.60
   8   0   2   42.70   11.10
  -8   0   2   49.30    6.70
   0   8   2   49.40    7.00
   8   0   2   54.39    6.50
   0   8   2   43.20    5.50
   0  -8  -2   47.30    7.20
   0  -8   2   44.70    7.40
  -8   0   2   48.80    6.90
   0  -8  -2   48.50    7.10
   0   8  -2   43.50    3.70
   0   8   2   58.19    8.00
   8   0   2   53.49   11.20
   0   8  -2   55.09    9.00
   0  -8   2   48.00    6.60
   8   0  -2   48.20    7.30
  -8   0   2   38.60    6.30
   8   0  -2   43.60    7.80
   0   8  -2   44.00    7.70
  -1   8   2   49.40    7.80
   1   8  -2   34.10    7.60
   1  -8   2   28.60    5.90
   1  -8   2   36.60    6.00
   8   1   2   24.90    5.70
  -1  -8  -2   40.20    7.00
   8  -1  -2   41.00    7.20
  -8   1  -2   28.00    9.60
  -8   1  -2   31.30    5.60
  -1   8   2   31.70    4.90
  -1   8   2   28.10    5.60
  -8  -1   2   35.70    7.10
  -8  -1   2   21.10    5.90
  -1  -8  -2   33.20    6.50
   1   8  -2   23.00    5.60
  -8  -1   2   33.40    6.20
   1   8  -2   24.30    3.60
   8   1   2   24.90    8.80
   8   1  -2   21.30    6.60
  -8   1   2   22.50    5.90
  -8  -1  -2   28.80    9.20
  -1   8  -2   44.80    8.00
   1   8   2   42.10    6.10
   1  -8  -2   36.20    5.60
  -1  -8   2   18.70    4.50
   8   1  -2   21.20    6.90
  -8  -1  -2   30.40   10.00
  -1  -8   2   26.70    5.00
   1  -8  -2   31.10    5.90
   8  -1   2   30.00    5.60
  -1   8  -2   29.30    5.70
  -8   1   2   29.20    4.90
   1   8   2   21.20    4.00
  -8   1   2   30.20    6.10
  -8   1   2   26.70    5.90
  -8  -1  -2   33.50    5.40
   8  -1   2   32.60    6.90
   8   2   2   52.09   10.60
  -8  -2   2   54.49    9.10
  -8   2  -2   55.99    7.80
   2   8  -2   53.99    8.80
   8  -2  -2   59.09    8.90
   2  -8   2   55.49    7.20
  -2   8   2   52.29    7.50
   2  -8   2   49.20    7.50
  -8  -2   2   55.39    8.60
  -2  -8  -2   60.59    9.70
  -8   2  -2   50.69   11.10
  -2   8   2   60.69    6.20
  -8   2  -2   51.19    9.30
  -2  -8  -2   52.19    8.80
   2   8  -2   51.89    4.60
   2  -8   2   49.60    4.80
  -2   8   2   62.29    8.90
   2   8  -2   66.19    9.90
   8   2   2   52.39    7.20
  -8  -2  -2   48.70    6.70
  -8  -2  -2   45.00   10.50
   2  -8  -2   62.29    6.80
   2   8   2   45.50    5.80
   2  -8  -2   59.39    7.20
  -2   8  -2   56.49    9.30
  -2   8  -2   58.79    7.70
   8   2  -2   58.99    8.10
  -8   2   2   54.99    8.70
  -8   2   2   57.99    6.50
  -8   2   2   56.39    9.00
  -8   2   2   50.69    7.10
   2   8   2   39.70    6.70
   8  -2   2   50.29    7.40
  -2  -8   2   64.19    7.40
   8  -2   2   51.19    7.30
   2   8   2   55.79   10.20
   8   2  -2   58.69    8.30
  -8  -2  -2   45.60    9.70
  -2  -8   2   50.09    7.10
  -8   3  -2   41.50   11.00
  -3  -8  -2   35.20    7.50
   3   8  -2   37.00    7.30
   8   3   2   33.20    5.80
   3  -8   2   41.90    6.60
   3  -8   2   40.10    4.60
   8   3   2   50.89   10.10
  -3   8   2   42.70    6.90
  -8  -3   2   42.00    7.30
   3   8  -2   34.50    4.40
  -8   3  -2   36.40    6.40
   8  -3  -2   49.60    8.00
  -3  -8  -2   42.70    7.70
  -8   3  -2   30.90    6.60
   3   8  -2   31.40    7.80
  -3   8   2   36.80    5.50
   3  -8   2   36.90    6.50
   8  -3  -2   40.70    5.80
  -8  -3   2   40.90    7.40
  -3   8   2   40.90    6.80
   8   3  -2   21.20    5.60
   3   8   2   44.00    8.90
   3  -8  -2   37.80    6.90
  -8   3   2   32.20    4.60
  -8  -3  -2   29.90    9.20
  -8   3   2   33.70    6.30
  -8  -3  -2   33.60    5.30
  -3  -8   2   36.90    6.00
  -3   8  -2   39.30    6.50
   8  -3   2   52.99    7.00
  -8   3   2   38.30    7.00
   3   8   2   32.10    5.00
   8   3  -2   32.60    7.90
  -8  -3  -2   33.00    9.10
  -3  -8   2   44.00    6.50
  -3   8  -2   34.80    6.70
   3  -8  -2   51.99    8.90
  -8  -4   2   95.29   10.80
  -4   8   2   95.49    9.20
   4  -8   2   89.99    8.60
   4   8  -2  107.89    6.80
   4   8  -2   81.69   11.10
  -4   8   2   94.69    9.20
   8  -4  -2   97.39   10.20
  -4  -8  -2   97.39   11.80
  -8   4  -2   97.89   10.20
  -8   4  -2   69.79    9.30
  -8   4  -2   80.09   12.90
   8   4   2  112.69    8.40
   4  -8   2   85.29    9.30
   4  -8   2   81.09    6.90
   8   4   2   81.19   11.70
  -8  -4   2   90.49   10.00
   8  -4  -2   97.99    7.90
  -4  -8  -2  108.19   10.80
   8   4  -2   98.99   12.80
   8   4  -2   96.09    8.50
  -4  -8   2   92.19    9.00
  -8   4   2  104.19    7.10
  -8  -4  -2  106.09   13.50
  -8  -4  -2   96.19   12.50
  -4   8  -2   95.99   10.20
  -8  -4  -2   91.99    7.50
  -4   8  -2   96.09    8.90
  -8   4   2  107.99   12.60
   4   8   2   90.69    7.60
  -4  -8   2  103.39    9.70
   4   8   2   90.19    8.80
   4   8   2  121.19   12.90
   4  -8  -2   97.69    8.30
   8  -4   2  101.59    9.70
  -8   4   2   95.79    9.40
   8  -4   2   97.89    8.20
  -8  -5   2  171.88   12.70
  -8   5  -2  140.39   25.90
  -5   8   2  154.88   10.40
   5  -8   2  148.79   10.60
   5   8  -2  151.58   12.90
  -5  -8  -2  161.18   13.70
   8   5   2  149.19   10.20
  -8  -5   2  146.39   11.70
  -8   5  -2  166.38   11.20
   8  -5  -2  148.09   11.70
  -5  -8  -2  142.59   12.20
   8  -5  -2  153.58    9.70
  -8  -5   2  147.19   10.60
   5  -8   2  132.29    8.80
   5   8  -2  150.18    9.60
   5  -8   2  155.78   11.10
  -5   8   2  163.48   11.10
   8   5   2  139.69   16.20
  -8   5  -2  147.69   11.10
  -5   8  -2  145.09   11.40
  -8  -5  -2  155.18   14.20
   5   8   2  149.99   10.10
   8   5  -2  141.89   14.90
   5  -8  -2  131.39   11.00
  -5   8  -2  156.18   10.80
  -8   5   2  163.18    8.70
  -8   5   2  148.49   10.90
  -8  -5  -2  143.89   14.60
   8  -5   2  150.18   10.00
  -5  -8   2  151.38   10.50
   5   8   2  145.59    9.40
   8  -5   2  150.48   11.20
  -5  -8   2  172.08   11.60
   8   5  -2  161.38   10.00
  -8   5   2  154.08   15.20
   5   8   2  138.99   14.20
   5  -8  -2  141.59   10.50
  -8  -5  -2  156.38    9.00
   5  -8  -2  140.59   10.30
   6   8  -2  120.09    9.10
  -8   6  -2  132.89   11.20
  -8   6  -2  118.09   10.90
  -6   8   2  128.89   10.90
  -6   8   2  119.09   10.30
  -6  -8  -2  124.89   12.90
  -8  -6   2  122.09   12.20
   6  -8   2  132.89   11.30
   6  -8   2   83.99   12.80
  -8  -6   2  124.99   13.10
   8  -6  -2  113.49    9.90
  -6  -8  -2  114.49   13.20
  -8  -6   2  128.89   11.10
   8   6   2  128.89    9.80
   8   6   2  135.09   16.40
   8  -6  -2  121.29   11.30
   6  -8   2  130.89   10.50
   6   8  -2  123.99   13.90
  -8   6   2  133.79   10.80
  -6   8  -2  121.99   10.90
   6   8   2  129.89   15.40
   8   6  -2  124.49    9.60
  -8  -6  -2  102.39   14.70
  -8   6   2  129.39    9.30
   8   6  -2  137.19   14.50
   8  -6   2  136.79   11.50
   6   8   2  140.09   10.30
  -6  -8   2  134.49   11.40
  -6  -8   2  123.59   11.50
   6  -8  -2  120.79   10.60
  -6  -8   2  133.79   10.70
   6  -8  -2  121.19   11.00
   8  -6   2  136.49    9.30
  -6   8  -2  126.69   10.60
   6   8   2  151.68    9.80
   6  -8  -2  121.49    9.80
  -8  -6  -2  137.09   13.70
   7   8  -2  137.49   15.80
  -8   7  -2  138.59   12.10
   8  -7  -2  142.69   11.60
   8   7   2  131.69   17.80
  -8  -7   2  125.59   12.40
  -7   8   2  146.99   12.10
   8   7   2  127.19   11.60
   7  -8   2  130.39   12.30
   7   8  -2  126.89    9.50
   8   7   2  137.89   10.40
   7  -8   2  142.59   11.60
  -7   8   2  128.09   11.00
  -8   7  -2  141.59   11.90
   8  -7  -2  132.19   12.40
  -8  -7   2  164.18   12.30
  -8  -7   2  156.18   13.00
   7  -8   2  169.18   10.60
  -7  -8  -2  122.39   13.70
  -7  -8  -2  117.39   13.50
   8  -7  -2  150.88   10.70
  -7  -8   2  152.98   12.60
  -7  -8   2  156.18   12.40
   8  -7   2  138.59   12.00
   7  -8  -2  135.19   12.30
  -7   8  -2  150.18   12.30
   8   7  -2  158.68   16.30
   8   7  -2  134.79   10.20
   7   8   2  154.18   10.60
   7   8   2  138.39   11.00
   7  -8  -2  134.39   10.70
  -7   8  -2  135.99   11.40
  -8  -7  -2  148.29   14.10
  -8   7   2  138.09   11.30
  -7  -8   2  138.29   12.40
   8  -7   2  155.88   10.60
   7   8   2  152.48   17.00
  -8  -7  -2  169.48   15.70
  -8   7   2  151.38   10.00
  -8  -8   2  166.08   13.10
   8  -8   2  142.49   13.00
   8   8   2  140.09   10.70
  -8   8  -2  147.99   12.80
   8  -8  -2  159.78   13.00
   8   8   2  136.19   12.10
   8   8  -2  153.08   16.80
  -8  -8   2  194.08   13.20
  -8   8   2  154.78   12.70
   8  -8   2  153.88   13.20
   8  -8  -2  136.79   11.90
  -8  -8   2  141.19   13.60
  -8  -8  -2  155.18   14.40
  -8   8  -2  145.89   13.00
   8   8  -2  163.98   10.50
  -8  -8  -2  117.79   15.90
   8   8   2  185.58   19.30
   8  -8   2  150.38   10.80
  -8   8   2  146.79   11.10
  -9   0   2   18.40    6.60
   9   0  -2   31.60    7.20
   0   9  -2   31.70    3.50
  -9   0  -2   39.90   14.30
   0  -9  -2   23.40    6.00
  -9   0   2   18.80    7.10
   0  -9   2   28.10    5.40
  -9   0   2   16.80    6.40
   0   9   2   33.40    6.20
  -9   0  -2   24.60    5.90
   9   0   2   20.70    6.00
   0   9   2   38.50    7.80
   0  -9  -2   28.00    5.70
   9   0  -2   28.30    8.30
   0   9  -2   22.60    5.90
   9   0   2   27.00   11.00
   0  -9   2   26.00    5.20
   0   9  -2   41.50    8.40
   0   9   2   17.10    4.10
   1  -9   2   47.90    6.70
  -1  -9  -2   42.70    6.60
   1  -9   2   47.50    6.90
  -1   9   2   39.60    6.40
   9  -1  -2   45.20    7.60
  -1   9   2   50.99    5.90
  -9   1  -2   35.30    6.40
  -9  -1   2   39.40    7.20
   9   1   2   34.10    6.60
  -9   1  -2   40.30   11.30
   1   9  -2   43.80    8.00
  -9  -1   2   35.80    7.00
   1   9  -2   35.60    6.70
   1   9  -2   44.90    4.50
  -9  -1   2   46.10   11.30
  -1  -9  -2   46.20    7.10
  -1   9   2   60.09    8.60
   9   1   2   38.00   11.60
  -9   1   2   41.40    7.10
  -9  -1  -2   43.80    6.60
  -9   1   2   38.50    7.40
  -1  -9   2   49.20    7.30
  -1  -9   2   39.70    6.90
  -9   1   2   51.19    7.70
   1  -9  -2   40.40    6.30
   9  -1   2   32.90    6.40
   1   9   2   33.50    7.50
  -9  -1  -2   28.90   10.70
  -9   1   2   44.20    6.10
   1   9   2   52.39    7.10
  -1   9  -2   45.10    8.20
   9  -1   2   32.30    7.70
  -1   9  -2   50.99    8.40
  -9  -1  -2   46.90   10.70
   9   1  -2   29.80    8.50
   9   1  -2   45.10    7.60
   1  -9  -2   35.70    5.80
  -2  -9  -2   58.39    8.60
   2   9  -2   55.79    5.20
  -9   2  -2   60.29    8.30
  -2   9   2   58.39    8.30
  -2   9   2   66.29   10.20
  -9   2  -2   57.39    8.40
   2  -9   2   50.89    8.10
   2   9  -2   59.99    9.30
   2  -9   2   70.39    5.60
  -2  -9  -2   57.49    7.80
   9  -2  -2   66.99    8.60
  -9  -2   2   62.49    9.90
   9   2   2   63.79    7.30
  -9   2  -2   76.19   12.30
   2   9  -2   55.79    9.60
   2  -9   2   54.49    7.60
  -9  -2   2   59.69    9.00
  -2   9   2   62.19    6.90
  -9  -2   2   64.89   10.30
   9   2  -2   53.19    9.10
   2   9   2   59.29    8.10
   2  -9  -2   56.29    7.60
   9  -2   2   60.89    9.70
  -9  -2  -2   50.09   11.20
  -9   2   2   46.50    7.40
  -2   9  -2   65.99    9.00
  -9   2   2   58.99    7.70
   2   9   2   61.79    6.40
  -9  -2  -2   47.50   10.90
  -2  -9   2   51.89    7.30
  -2  -9   2   57.19    8.00
  -2   9  -2   57.79    8.20
   2   9   2   62.99   11.30
   9   2  -2   46.40    7.40
  -9   2   2   63.09    8.80
   9  -2   2   52.09    7.20
   2  -9  -2   48.60    7.20
  -9   2   2   48.60    7.50
  -9  -2  -2   55.39    8.00
   9  -3  -2   83.39   10.10
  -9   3  -2   86.99    9.50
   3   9  -2   80.09   10.70
   3  -9   2   65.69    8.40
  -3  -9  -2   96.99   10.60
  -9   3  -2   80.19   11.10
  -9  -3   2   80.19   11.40
  -3  -9  -2   97.19   10.90
   9   3   2   97.19    8.70
   3  -9   2   82.09    9.20
   9   3   2   86.99   15.90
  -9   3  -2   83.49   16.80
   3   9  -2   73.79    6.90
  -9  -3   2   85.69    9.70
   3   9  -2   95.49   12.20
  -3   9   2   68.49    8.80
  -9  -3   2  103.39   10.90
   3   9   2   67.99   12.00
  -9   3   2   91.79    7.80
  -3   9  -2  103.09   10.50
   3  -9  -2   83.79    8.00
  -3  -9   2   79.49    8.20
  -3  -9   2   87.19    8.30
   9   3  -2   69.59   13.00
  -3   9  -2   72.49    9.30
  -9   3   2   83.89    9.50
  -9  -3  -2   76.99   13.90
   9  -3   2   86.29   10.60
  -9   3   2   91.79   11.00
  -9  -3  -2   73.69    8.20
   3   9   2   80.59    7.40
   9  -3   2   86.99    8.80
   3   9   2   83.89    9.00
   9   3  -2   83.19    9.20
   3  -9  -2   80.59    8.60
  -9  -3  -2  101.59   13.50
  -9  -4   2  220.58   13.00
   9  -4  -2  223.98   13.00
   9   4   2  198.08   18.10
   4   9  -2  238.58   15.90
   4  -9   2  223.88   12.70
  -9  -4   2  244.78   23.80
   4  -9   2  217.38   12.30
   9   4   2  222.08   11.60
  -9   4  -2  230.78   13.20
  -9   4  -2  237.68   14.10
  -4  -9  -2  226.28   13.90
  -4   9   2  211.38   12.50
   4  -9   2  224.78   10.10
  -9   4  -2  218.28   22.10
  -4   9   2  199.08   13.50
  -9  -4   2  232.48   13.60
   4   9  -2  244.38   10.30
   9  -4  -2  230.08   11.40
  -4  -9  -2  225.28   14.60
   4   9  -2  215.08   14.50
  -4   9  -2  237.28   12.90
   4   9   2  214.98   12.30
  -4  -9   2  230.68   12.10
  -9   4   2  218.48   12.60
   9  -4   2  229.78   11.90
  -9  -4  -2  206.18   11.00
  -4  -9   2  231.08   12.90
  -4   9  -2  235.38   14.10
   4   9   2  245.88   16.60
   9   4  -2  231.48   17.20
  -9  -4  -2  255.57   16.80
  -9   4   2  241.78   10.50
   4  -9  -2  223.68   11.40
   4  -9  -2  243.58   12.30
   9  -4   2  216.48   13.10
  -9  -4  -2  240.68   17.80
   9   4  -2  221.58   11.90
  -9   4   2  235.88   15.30
   4   9   2  221.88   11.30
  -9  -5   2  261.97   14.90
  -5  -9  -2  251.17   15.90
  -9  -5   2  273.47   14.60
  -9  -5   2  229.68   15.20
  -5   9   2  263.77   13.90
   9  -5  -2  265.37   14.40
  -5   9   2  239.18   13.50
   5  -9   2  258.37   14.20
   5   9  -2  269.47   16.20
  -9   5  -2  258.37   23.50
   5  -9   2  256.37   13.30
   9   5   2  260.97   19.70
   5   9  -2  247.88   11.40
   5   9  -2  265.77   16.70
  -9   5  -2  258.77   14.60
  -9   5  -2  245.18   13.90
   5  -9   2  222.68   11.60
  -5  -9  -2  268.17   15.30
   9   5   2  263.17   12.90
   9  -5  -2  259.17   12.20
   5  -9  -2  241.38   12.80
  -5   9  -2  267.37   14.00
  -9  -5  -2  278.37   17.40
  -9   5   2  290.67   18.10
  -9  -5  -2  241.58   11.70
  -9   5   2  240.08   13.60
   9  -5   2  270.47   13.00
  -5   9  -2  250.87   14.30
  -9   5   2  249.78   11.50
  -5  -9   2  251.27   13.60
  -9  -5  -2  254.17   17.50
   9   5  -2  209.88   17.80
   5   9   2  224.58   17.30
   9   5  -2  253.57   12.90
   5  -9  -2  249.88   13.60
   5  -9  -2  247.48   12.20
   5   9   2  255.27   13.10
   5   9   2  242.18   12.10
  -5  -9   2  246.78   14.00
   9  -5   2  240.28   13.70
  -6   9   2  247.08   14.00
  -9  -6   2  255.87   14.60
   9  -6  -2  267.57   14.90
   6  -9   2  245.88   14.20
   9   6   2  232.08   20.10
  -6  -9  -2  268.17   16.00
   6   9  -2  267.77   17.50
  -9   6  -2  271.97   14.80
  -9  -6   2  264.67   16.90
  -6   9   2  258.37   14.40
  -9   6  -2  258.27   14.50
  -6  -9  -2  257.77   16.70
   6  -9   2  245.28   14.20
   6   9  -2  260.87   12.10
  -9   6  -2  285.17   25.60
  -9  -6   2  256.37   15.70
   9   6   2  265.27   13.10
  -6   9  -2  261.47   14.80
  -9  -6  -2  263.27   12.70
  -6  -9   2  258.07   14.40
  -9   6   2  249.78   12.20
  -6  -9   2  269.57   14.80
  -9  -6  -2  260.07   18.60
  -9   6   2  289.87   20.20
   6   9   2  230.38   17.50
  -9  -6  -2  246.78   17.00
   9   6  -2  256.87   13.20
   6  -9  -2  246.38   12.70
   9  -6   2  271.27   14.90
   9  -6   2  255.47   13.50
   6   9   2  256.27   13.00
   6  -9  -2  269.87   14.80
  -9   6   2  249.88   14.10
   9   6  -2  255.17   18.50
   6   9   2  271.67   19.90
   6  -9  -2  237.08   13.40
  -6   9  -2  252.17   13.90
   9  -7  -2  318.47   16.60
  -9   7  -2  335.37   16.90
   7   9  -2  326.27   20.00
   7  -9   2  341.47   17.80
  -7  -9  -2  357.06   18.50
  -9  -7   2  343.47   18.40
   9   7   2  367.26   22.90
  -9  -7   2  366.46   17.80
   7   9  -2  335.27   14.50
  -7  -9  -2  319.67   18.10
  -7   9   2  328.87   16.00
   9   7   2  339.17   15.40
  -9   7  -2  357.26   17.10
  -9  -7   2  346.27   17.10
  -9   7  -2  331.47   32.40
  -7   9   2  341.47   16.90
   7  -9   2  354.06   15.00
   9  -7  -2  344.47   15.60
   7  -9   2  331.17   16.60
  -9  -7  -2  356.46   20.70
  -9  -7  -2  337.37   19.20
   7  -9  -2  347.17   15.60
   7   9   2  348.97   15.40
   7  -9  -2  309.57   15.90
  -9   7   2  332.37   16.40
  -9   7   2  336.67   25.20
  -7  -9   2  319.07   16.70
  -9   7   2  317.07   14.60
   7   9   2  379.06   22.60
  -7  -9   2  318.67   16.50
   9  -7   2  314.57   16.70
   9  -7   2  349.47   15.90
   9   7  -2  375.16   22.80
  -7   9  -2  361.76   17.40
  -7   9  -2  360.66   16.80
   7  -9  -2  352.66   16.80
  -8   9   2  273.97   18.10
  -9  -8   2  377.26   18.40
   8  -9   2  368.76   15.90
  -9   8  -2  370.26   17.90
   9  -8  -2  332.27   18.80
   9  -8  -2  342.87   17.80
  -8  -9  -2  363.76   19.20
   8  -9   2  346.87   18.70
   9   8   2  354.96   23.80
   8   9  -2  365.66   22.30
  -8  -9  -2  376.96   20.90
  -8   9   2  359.56   17.50
  -9  -8   2  361.16   18.20
  -9  -8   2  330.97   18.50
  -9   8  -2  383.16   18.10
   8  -9   2  365.86   17.80
  -8  -9   2  347.97   18.70
   8   9   2  349.47   15.80
   8  -9  -2  345.17   17.40
   9   8  -2  346.77   15.50
   8   9   2  368.96   23.40
  -9  -8  -2  373.36   19.90
   9  -8   2  369.76   18.40
   9   8  -2  300.17   22.80
   8  -9  -2  357.26   17.90
  -9  -8  -2  364.26   21.10
  -8   9  -2  339.17   17.40
  -9   8   2  330.77   16.00
  -8  -9   2  345.67   17.80
   9  -8   2  354.86   16.60
  -8   9  -2  388.26   17.30
  -8  -9   2  330.77   18.70
   8  -9  -2  354.46   16.70
  -9   8   2  356.86   17.40
   8   9   2  300.67   18.50
  -9  -9  -2  519.25   23.40
  -9  -9   2  502.25   22.60
  -9   9  -2  536.05   22.10
   9   9  -2  503.45   20.00
  -9  -9   2  519.35   22.00
   9  -9  -2  507.15   21.30
   9   9  -2  481.95   26.20
   9   9   2  488.15   28.50
   9  -9   2  539.05   20.70
  -9   9  -2  525.45   21.80
   9  -9  -2  462.95   22.20
   9  -9   2  540.55   22.70
  -9  -9   2  491.45   22.80
   9  -9  -2  511.85   21.40
   9   9   2  466.55   19.90
   9  -9   2  506.75   23.30
   0 -10  -2   33.70    6.50
 -10   0   2   30.40    9.10
   0  10  -2   26.90    6.80
   0  10  -2   33.40    4.70
   0 -10   2   26.90    5.50
  10   0   2   27.50   15.00
   0 -10  -2   33.10    6.30
   0  10   2   50.49    9.30
   0 -10   2   28.50    5.40
   0  10   2   58.69    8.00
  10   0   2   46.70    7.20
 -10   0  -2   46.80   11.70
 -10   0   2   35.30    8.00
  10   0  -2   41.10    7.80
 -10   0   2   43.10    8.00
 -10   0  -2   34.30   11.50
   0  10   2   38.40    5.60
  10   0  -2   40.90   10.30
   0  10  -2   54.99    9.00
  -1  10   2   20.60    7.60
 -10   1  -2   21.30   10.90
  -1 -10  -2   19.70    5.80
  -1  10   2   14.70    5.80
 -10   1  -2   11.10    6.00
   1 -10   2   14.10    5.00
  -1  10   2   15.30    4.40
  10   1   2   20.70    6.40
 -10   1  -2    4.70    9.10
   1  10  -2   23.60    6.80
   1  10  -2   16.30    3.50
  10  -1  -2   10.60    7.30
  -1 -10  -2   12.20    5.50
 -10  -1   2   23.90    7.40
 -10  -1   2   12.80    7.70
   1 -10   2    9.30    4.90
 -10  -1   2    4.50    7.50
   1  10  -2   18.30    7.70
  10   1   2   22.80   11.90
  10  -1   2    8.40    8.30
  10   1  -2   23.90    9.20
   1  10   2   20.20    5.90
   1  10   2   16.00    8.00
 -10   1   2    9.60    8.10
  -1 -10   2    6.70    4.70
  10  -1   2   12.30    6.20
  -1 -10   2   17.20    5.30
   1  10   2   21.20    4.70
 -10   1   2    2.40    5.80
  -1  10  -2   15.40    6.80
  -1  10  -2   10.30    6.10
   1 -10  -2   16.10    5.60
  10   1  -2   16.20    6.70
 -10   1   2    7.40    6.60
 -10   1   2   10.40    7.30
   1 -10  -2   19.00    5.80
 -10  -1  -2   17.40   10.60
 -10  -1  -2   15.70    6.20
 -10  -1  -2   14.00   10.60
 -10   2  -2   28.70   12.00
   2  10  -2   36.70    7.40
  10   2   2   39.90    7.30
  -2  10   2   42.60    7.60
   2 -10   2   47.60    8.50
  -2 -10  -2   49.99    8.40
  10   2   2   30.90   11.20
   2 -10   2   49.10    7.40
 -10   2  -2   34.70    9.70
 -10  -2   2   53.79    9.10
  -2 -10  -2   47.40    8.20
  -2  10   2   57.59   10.30
 -10   2  -2   43.30    7.30
 -10  -2   2   42.80    8.70
 -10  -2   2   39.90    8.00
  10  -2  -2   44.60    8.10
  -2  10   2   37.00    6.00
   2  10  -2   54.29    9.10
   2  10  -2   38.00    5.50
   2 -10  -2   45.80    7.50
 -10  -2  -2   50.49   11.70
  10  -2   2   38.10    7.20
  -2  10  -2   42.00    6.90
  10   2  -2   36.70    7.50
 -10   2   2   50.19    8.70
  -2 -10   2   36.40    6.30
   2 -10  -2   59.59    7.50
   2  10   2   40.50    7.20
   2  10   2   48.20    9.80
  -2 -10   2   31.70    5.60
 -10  -2  -2   54.29    7.30
 -10  -2  -2   47.10   11.40
 -10   2   2   33.40    8.30
  10  -2   2   39.70    9.20
   2  10   2   37.60    5.60
 -10   2   2   40.20    9.20
 -10   2   2   33.60    6.60
  -2  10  -2   32.00    7.40
   3  10  -2   33.30    8.70
  10   3   2   19.80    6.50
  -3  10   2   27.20    7.40
 -10   3  -2   21.20   12.20
  -3 -10  -2   40.40    8.40
   3  10  -2   30.00    5.00
   3  10  -2   21.20    7.40
  10  -3  -2   21.80    8.30
 -10   3  -2   26.00    8.30
 -10  -3   2   19.30    8.60
 -10  -3   2   26.80    7.80
  10   3   2   16.40   11.00
  -3 -10  -2   23.60    7.30
  -3  10   2   31.00    6.10
  -3  10   2   27.60    6.20
   3 -10   2   25.60    6.40
   3 -10   2   33.40    6.60
 -10   3  -2   22.60    7.00
 -10  -3   2   38.00    8.90
 -10   3   2   49.10   10.10
  -3  10  -2   29.60    6.90
   3 -10  -2   29.90    6.00
 -10   3   2   23.60    8.60
  -3 -10   2   22.90    5.60
  10   3  -2   31.90   10.40
   3  10   2   16.10    6.10
 -10   3   2   31.70    7.50
   3  10   2   20.30    5.20
  10   3  -2   36.10    7.10
 -10  -3  -2   20.30   10.70
  10  -3   2   34.30    6.90
 -10   3   2   53.19    8.30
  -3 -10   2   23.50    5.30
  -3  10  -2   23.80    6.50
  10  -3   2   30.00    7.80
 -10  -3  -2   23.00   10.70
   3  10   2   39.30    9.80
   3 -10  -2   27.70    5.90
   4 -10   2  105.49   10.80
 -10  -4   2  105.99   11.80
   4  10  -2  115.79    7.90
  -4  10   2  123.29   11.70
 -10  -4   2   87.19   12.20
 -10  -4   2  102.99   13.40
  10  -4  -2   90.49   11.80
  10  -4  -2   97.79   12.00
 -10   4  -2  107.29   11.20
   4  10  -2   94.79   12.60
  -4  10   2   96.99   10.50
  10   4   2  119.09    9.70
   4  10  -2  100.19   13.10
  10   4   2  110.49   18.30
   4 -10   2  106.29   10.10
  -4 -10  -2   98.09   12.20
  -4 -10  -2  115.19   11.80
 -10   4  -2   94.59   15.70
 -10   4  -2  119.39   12.80
 -10   4   2  113.09    9.10
   4 -10  -2   99.59    9.60
  -4 -10   2  106.39    9.30
  -4 -10   2   98.09   10.00
 -10   4   2   96.29   10.90
  10  -4   2   82.59   11.90
 -10   4   2  109.49   14.70
  10   4  -2   92.39    9.50
 -10  -4  -2  116.69   15.50
  10   4  -2   77.39   23.00
 -10  -4  -2   94.59   16.60
   4  10   2   82.99    8.40
   4 -10  -2  105.49    9.80
   4  10   2   80.49   14.10
  -4  10  -2  121.49   11.60
 -10  -4  -2  104.99   10.10
  -4  10  -2  111.79   11.00
  10  -4   2  102.09   10.10
   5  10  -2  107.89   13.70
 -10  -5   2  117.49   14.00
  10  -5  -2   98.79   12.00
   5 -10   2  112.09   11.50
  -5  10   2  114.19   11.70
  10   5   2  106.39   10.00
 -10  -5   2   93.09   12.60
  -5  10   2  121.49   11.10
 -10   5  -2   82.19   12.80
 -10   5  -2  113.99   16.60
  10   5   2  116.59   18.80
 -10  -5   2  100.89   11.90
   5 -10   2  116.49   10.30
  -5 -10  -2  108.39   12.80
  10  -5  -2   95.19   11.90
  -5 -10  -2   83.19   13.30
   5  10  -2  115.19   14.50
   5  10  -2  113.49    8.80
 -10   5  -2  111.59   11.50
   5 -10  -2  119.49   12.20
   5  10   2   99.99   11.10
   5 -10  -2  108.09   10.80
 -10  -5  -2  112.39   16.30
 -10   5   2  101.69    9.80
  10   5  -2  139.99   17.70
 -10  -5  -2   83.39   12.80
   5 -10  -2  109.69    9.60
  -5 -10   2  102.89   10.40
  10   5  -2  103.59   10.00
 -10  -5  -2  109.99   10.60
   5  10   2  117.29    9.60
   5  10   2   92.39   15.60
 -10   5   2  125.19   11.60
  10  -5   2   98.19   11.90
  10  -5   2  122.89   10.40
 -10   5   2   94.89   16.40
  -5 -10   2  121.79   10.60
  -5  10  -2  102.49   11.00
  -5  10  -2  129.99   11.70
  10  -6  -2   90.09   11.00
   6  10  -2   71.49    8.70
  -6  10   2   75.99   10.30
 -10   6  -2   83.29   11.50
   6  10  -2   98.49   13.10
 -10  -6   2   82.59   11.70
   6  10  -2  107.09   15.60
 -10   6  -2   90.89   17.10
  -6 -10  -2  102.79   13.60
  -6  10   2   95.29   12.00
  10   6   2  108.89   19.00
 -10  -6   2   89.79   11.90
 -10  -6   2  103.89   13.60
   6 -10   2  112.89   11.40
  10  -6  -2   82.29   11.30
  10   6   2   81.29   10.20
  -6 -10  -2   86.59   14.20
   6 -10   2   72.59   11.60
 -10   6  -2   90.09   13.10
 -10   6   2   89.29   14.00
   6 -10  -2   99.69   12.60
 -10  -6  -2  129.49   17.90
   6  10   2   95.79    9.60
   6  10   2  103.39   17.60
  10   6  -2   95.09   14.30
  10   6  -2  104.39   10.40
  -6  10  -2   89.89   11.00
  -6 -10   2  106.49   11.90
  -6  10  -2   91.59   11.30
   6 -10  -2   92.49   10.10
  10  -6   2   93.09   11.90
 -10   6   2   76.39    9.50
 -10  -6  -2   84.09   15.10
   6 -10  -2   94.19   10.90
  10  -6   2   87.89   11.00
   6  10   2   85.59   11.90
 -10   6   2   87.49   10.90
  -6 -10   2   98.89   11.20
 -10  -6  -2  116.49   15.30
 -10   7  -2  111.69   19.30
 -10  -7   2  129.49   13.80
  -7 -10  -2  158.48   14.90
   7  10  -2  110.19   16.70
   7  10  -2  142.59   17.00
 -10   7  -2  122.29   12.80
  10  -7  -2  132.99   13.10
   7 -10   2  119.89   11.70
 -10  -7   2  136.09   14.80
  10   7   2  163.18   21.20
 -10   7  -2  110.39   13.50
   7  10  -2  140.59   10.70
 -10  -7   2  130.09   14.50
  10   7   2  126.29   11.50
  10  -7  -2  151.78   13.00
  -7  10   2  137.59   13.30
  -7  10   2  141.69   12.60
   7 -10   2  143.09   12.60
  -7 -10  -2  117.89   16.00
   7 -10   2  116.09   13.90
  10   7  -2  137.89   11.60
   7 -10  -2  137.29   12.40
  10  -7   2  131.69   12.00
  -7 -10   2  134.39   12.50
  10   7  -2  122.49   20.20
  -7  10  -2  150.58   12.50
 -10  -7  -2  158.78   16.30
   7  10   2  131.29   11.00
  10  -7   2  131.59   13.50
   7 -10  -2  125.19   12.90
 -10   7   2  135.69   18.40
 -10  -7  -2  136.89   17.70
 -10   7   2  137.69   12.70
   7  10   2  148.99   13.70
  -7  10  -2  121.69   12.80
   7  10   2  178.48   19.50
   7 -10  -2  139.79   13.50
  -7 -10   2  107.89   13.10
   8  10  -2  148.49   11.50
  10  -8  -2  161.48   13.90
  -8 -10  -2  149.39   23.70
  10  -8  -2  109.39   13.70
   8 -10   2  154.58   13.80
 -10   8  -2  136.79   13.20
  10   8   2  133.49   11.90
   8 -10   2  137.99   15.00
 -10  -8   2  149.29   15.00
  10   8   2  110.19   17.50
   8  10  -2  113.79   18.60
  -8  10   2  135.99   13.80
 -10   8  -2  118.49   14.20
 -10  -8   2  122.79   16.60
 -10  -8   2  156.78   15.10
  -8  10   2  131.09   19.80
 -10   8  -2  214.18   31.50
 -10   8   2  166.98   27.90
   8  10   2  142.99   11.60
   8 -10  -2  148.69   12.70
  10  -8   2  153.38   14.60
   8 -10  -2  150.98   14.80
  -8 -10   2  119.59   14.40
  10   8  -2  154.78   11.80
  10   8  -2  117.39   21.40
  -8 -10   2  145.79   13.70
 -10  -8  -2  133.19   20.80
  10  -8   2  136.29   12.90
 -10  -8  -2  144.49   16.80
  -8  10  -2  135.09   13.70
   8 -10  -2  149.69   14.30
 -10   8   2  134.69   13.00
 -10   9  -2  294.97   18.00
 -10   9  -2  264.37   34.40
  -9  10   2  249.38   18.60
   9 -10   2  259.27   19.90
  10  -9  -2  253.37   17.40
 -10   9  -2  261.87   16.80
 -10  -9   2  275.47   19.40
  -9  10   2  242.78   15.70
  10   9   2  205.48   22.10
  -9 -10  -2  278.87   18.70
   9  10  -2  265.97   15.00
   9 -10   2  285.27   18.10
 -10  -9   2  274.07   17.90
  10  -9  -2  265.17   17.80
  10  -9   2  285.67   17.90
  10   9  -2  271.07   15.20
  -9  10  -2  246.08   16.50
  -9  10  -2  247.08   17.10
   9 -10  -2  268.27   17.30
   9  10   2  263.47   15.10
   9 -10  -2  233.18   18.40
   9 -10  -2  288.57   17.50
  10   9  -2  263.87   24.20
 -10   9   2  282.27   37.10
  -9 -10   2  272.07   21.70
  10  -9   2  303.17   16.30
 -10   9   2  244.58   15.60
 -10  -9  -2  273.17   19.10
  10 -10  -2  162.58   21.30
  10 -10   2  110.79   16.50
  10  10  -2  107.29   12.50
  10 -10  -2  118.49   15.90
 -10  10  -2  142.79   16.30
 -10 -10   2  155.28   15.90
 -10  10   2  117.29   12.90
  10  10   2  138.09   13.30
 -10  10  -2  117.29   13.40
 -10 -10  -2  124.79   17.40
 -11   0  -2   20.20   12.10
   0  11  -2   13.20    7.70
 -11   0  -2   14.20   12.00
   0 -11  -2   11.50    6.30
   0 -11   2    7.60    5.30
  11   0   2   18.20   11.90
   0  11   2   12.70    5.00
   0 -11   2   11.20    4.90
   0  11   2   29.60    8.80
 -11   0   2    7.30    8.20
 -11   0  -2   10.30    7.10
   0  11  -2   20.30    6.70
  11   0  -2   24.80    7.60
   0 -11  -2   17.70    6.30
   0  11   2   15.90    6.60
  11   0   2   17.60    6.90
 -11   0   2   23.10    7.70
 -11   0   2    5.50    9.00
  -1  11   2   -4.20    4.90
 -11   1  -2   -9.70    8.10
   1 -11   2    5.50    5.10
  -1 -11  -2   -0.30    5.40
   1  11  -2    5.30    6.40
 -11   1  -2   -0.60   11.90
   1 -11   2    1.80    4.80
  -1  11   2   14.80    7.20
 -11  -1   2    7.00    8.40
 -11  -1   2    3.70    8.90
   1  11  -2    1.40    3.70
  11   1   2   -5.50    6.00
   1  11  -2    0.00    7.10
 -11   1  -2    4.70    7.20
  11   1   2   -1.60   12.20
  11  -1  -2    3.10    7.10
 -11  -1   2    2.90    7.30
  -1  11   2    2.40    4.30
  -1 -11  -2    7.60    5.90
   1  11   2   -2.70    3.80
  11   1  -2  -17.90   12.40
 -11  -1  -2    9.70   11.40
   1  11   2   -1.60    5.60
 -11   1   2   -0.50    8.20
  11   1  -2    5.80    6.80
  11  -1   2    7.00    6.40
 -11   1   2    5.80    6.90
 -11  -1  -2   14.80   12.30
 -11   1   2    0.90    7.10
 -11   1   2   10.10   15.30
 -11  -1  -2    6.20    6.70
  -1 -11   2   -3.40    4.90
   1 -11  -2    0.00    4.70
  -1 -11   2    3.60    5.10
  -1  11  -2    8.80    6.80
  -1  11  -2   -3.10    5.50
   1  11   2   -0.60    7.10
   1 -11  -2    1.30    4.90
  -2  11   2    5.60    7.50
 -11   2  -2   11.90    8.50
   2 -11   2    6.90    5.10
 -11  -2   2    6.90   10.00
 -11   2  -2    2.60   12.80
 -11   2  -2    9.40    6.50
   2  11  -2   15.20    6.80
  -2 -11  -2   10.60    6.20
  -2  11   2   11.80    5.30
  11   2   2    8.80   11.90
  11  -2  -2   13.90    7.70
  11   2   2    5.40    6.30
 -11  -2   2    8.10    8.90
   2 -11   2    5.10    5.10
   2  11  -2   16.00    8.20
   2  11  -2    6.00    4.30
  -2 -11  -2   19.20    6.70
 -11  -2   2    5.90    7.50
  -2  11   2    9.00    6.10
 -11   2   2    9.20    7.50
 -11   2   2   34.90    7.40
  11  -2   2    5.80    9.10
   2 -11  -2   10.60    5.60
  -2 -11   2   11.90    6.00
   2  11   2    1.90    7.60
   2 -11  -2    9.10    5.70
 -11   2   2    8.60   11.30
  11   2  -2   12.10   10.30
 -11  -2  -2   20.60   11.20
  11  -2   2   11.50    6.70
 -11  -2  -2    7.40   10.90
  -2 -11   2    5.70    5.40
 -11  -2  -2   10.40    7.30
  -2  11  -2   11.90    6.70
   2  11   2    6.40    5.80
 -11   2   2    3.60    8.40
  11   2  -2   10.40    6.90
  -2  11  -2    1.50    6.20
   2  11   2   13.30    5.10
   3 -11   2   22.70    6.70
   3  11  -2   19.50    5.10
  11   3   2   16.00    6.80
 -11   3  -2   15.10    8.40
  -3  11   2   20.40    6.50
   3  11  -2   25.10    9.00
  11   3   2   12.20   13.00
  -3 -11  -2   14.40    6.60
 -11  -3   2   23.30    8.00
 -11   3  -2   28.40    7.50
  -3 -11  -2   18.70    6.80
 -11   3  -2   35.00   14.00
 -11  -3   2    9.00    9.30
   3 -11   2   26.80    6.80
  11  -3  -2   26.80    8.40
 -11  -3   2   30.00   10.10
  -3  11   2   25.70    7.80
   3  11  -2   28.80    8.80
  -3  11   2   19.00    6.90
   3 -11  -2   31.20    6.80
   3  11   2   22.40    7.40
   3  11   2   14.50    5.10
  -3  11  -2   26.70    7.20
  11  -3   2   23.70    7.10
   3  11   2   31.40    9.50
  -3 -11   2   21.40    5.90
   3 -11  -2   30.50    6.80
 -11  -3  -2    0.50   11.10
 -11   3   2   22.50    7.70
 -11  -3  -2   11.40    7.50
 -11   3   2   17.40    9.10
 -11   3   2   33.40    7.10
 -11  -3  -2   30.50   12.10
  11   3  -2   22.50    7.70
  11  -3   2   14.70    8.80
  -3 -11   2   20.10    6.30
  -3  11  -2   32.80    8.40
  11   3  -2   27.00   11.90
   4  11  -2   35.60    9.30
  -4  11   2   16.70    6.50
 -11  -4   2   26.30    9.90
  11   4   2   33.50   13.10
 -11   4  -2   17.70   14.40
   4 -11   2   25.20    7.20
  11  -4  -2   28.50    8.50
 -11   4  -2   26.10    7.90
  -4 -11  -2   40.00    9.00
  11   4   2   21.00    6.90
  -4 -11  -2   29.40    8.40
   4 -11   2   19.90    6.30
 -11   4  -2   27.90    9.00
 -11  -4   2   17.70    9.80
   4  11  -2   22.30    8.80
  -4  11   2   20.40    7.90
 -11  -4   2   26.00    8.60
  -4 -11   2   11.20    5.90
 -11   4   2   26.20    7.90
  -4  11  -2   16.10    6.60
   4  11   2   28.40    6.30
   4  11   2   22.50    9.70
   4 -11  -2   25.40    6.30
  -4  11  -2   18.80    7.10
 -11   4   2   28.10    6.80
   4  11   2   28.40    7.80
   4 -11  -2   21.70    6.60
 -11  -4  -2   12.80   12.30
  -4 -11   2   26.20    6.50
  11  -4   2   16.50    8.40
  11   4  -2   28.30    7.40
  11  -4   2   31.90    7.30
 -11  -4  -2   38.60    8.40
 -11  -4  -2   39.20   12.00
  11   4  -2   14.00   11.80
 -11   4   2   15.20   10.50
   5 -11   2   65.99   11.40
 -11  -5   2   61.79   10.90
 -11   5  -2   44.80   10.10
 -11  -5   2   78.69   12.00
  11  -5  -2   69.19   10.30
  -5 -11  -2   58.89   10.10
   5  11  -2   62.19   11.50
  11   5   2   29.10   13.50
 -11   5  -2   66.89   16.90
  -5  11   2   70.49   12.90
   5  11  -2   57.89   10.20
  -5 -11  -2   69.69   10.00
  -5  11   2   70.99    9.70
   5 -11   2   63.19    8.80
 -11  -5   2   66.09   10.30
   5  11  -2   61.69    8.40
 -11   5  -2   53.19    9.60
  11   5   2   46.70    7.90
   5 -11  -2   66.79   10.70
  11   5  -2   46.20    8.70
   5  11   2   64.09    8.10
   5  11   2   53.99    9.40
  11  -5   2   75.79   10.50
   5 -11  -2   54.29    7.60
 -11   5   2   49.99    8.50
  -5 -11   2   42.50    7.40
  -5  11  -2   70.49   10.10
 -11  -5  -2   65.69   12.50
   5  11   2   55.79   11.80
  11   5  -2   66.09   14.10
   5 -11  -2   87.09   11.10
  -5 -11   2   59.69   10.10
 -11   5   2   63.39   10.10
 -11   5   2   52.19   12.40
  -5  11  -2   62.69   11.10
 -11  -5  -2   60.89   13.20
  11  -5   2   59.69    9.90
   6  11  -2   96.79   15.40
 -11   6  -2   52.99   10.20
 -11  -6   2   95.19   12.80
 -11  -6   2   89.99   12.70
 -11   6  -2   70.49   10.80
   6 -11   2   79.99   11.40
   6  11  -2   94.79   16.40
   6  11  -2   76.09    9.60
  11   6   2   63.89   14.70
  -6  11   2   93.19   11.50
  11  -6  -2   83.09   11.20
 -11  -6   2   93.29   12.40
 -11   6  -2   58.69   17.70
  11  -6  -2   56.19   11.40
   6 -11   2   71.19   12.70
  -6 -11  -2   95.09   13.00
  -6  11   2   77.79   10.70
  11   6   2   75.59   11.00
   6 -11  -2  103.99   13.10
  11  -6   2   94.09   11.70
 -11   6   2   62.29    9.50
  -6 -11   2   74.69   10.30
   6  11   2   58.49   12.60
  -6 -11   2   91.89   15.20
   6  11   2   72.19   13.50
   6  11   2   71.59    9.60
  11  -6   2   96.99   13.30
   6 -11  -2   70.29   11.20
  11   6  -2   68.89    9.40
 -11  -6  -2   75.99   13.10
   6 -11  -2   79.59   10.70
  -6  11  -2   57.99    8.90
 -11   6   2   73.19   15.30
  -6  11  -2  102.89   11.60
  11   6  -2   80.49   14.80
 -11  -6  -2   65.09   14.20
 -11   7  -2  115.89   14.70
 -11   7  -2   94.99   12.80
 -11  -7   2   99.39   16.30
  11   7   2   79.09   17.20
 -11  -7   2  104.49   13.40
   7  11  -2   83.99   14.60
  -7  11   2  101.79   12.60
 -11   7  -2  112.29   21.00
  -7 -11  -2   90.89   14.70
  -7  11   2   83.19   13.80
  11  -7  -2   92.99   11.50
   7  11  -2   66.29   10.10
   7 -11   2   87.19   14.20
   7 -11   2  110.89   12.90
  11   7  -2   83.99   15.90
   7 -11  -2  117.29   14.00
 -11  -7  -2   56.29   14.60
  11   7  -2   90.19   11.40
   7 -11  -2   98.79   13.50
 -11  -7  -2   85.59   13.60
 -11   7   2   78.09   12.80
   7 -11  -2  103.99   12.50
   7  11   2   59.89    8.40
 -11   7   2   82.69   18.10
  11  -7   2   89.19   11.50
  11  -7   2   85.99   11.30
  -7 -11   2   86.39   15.40
  -7  11  -2   74.49   13.20
  -7  11  -2   56.79    9.30
   8  11  -2  148.69   12.30
 -11  -8   2  123.09   16.00
   8 -11   2   88.39   18.20
  11   8   2  139.19   12.90
  -8  11   2  127.09   16.00
 -11  -8   2  135.09   18.10
  11  -8  -2  126.59   14.40
   8  11  -2  124.89   20.30
  -8  11   2  118.49   13.00
 -11   8  -2  184.08   32.30
  -8 -11  -2  134.99   15.70
 -11  -8   2  111.39   17.90
 -11   8  -2  130.79   16.10
   8 -11   2  136.79   14.40
 -11   8  -2  127.49   13.90
  11   8  -2  107.39   17.60
  -8 -11   2  112.99   13.50
   8 -11  -2  115.89   13.80
   8  11   2  111.79   11.70
  11   8  -2  134.39   12.60
   8 -11  -2  133.69   15.30
 -11  -8  -2  121.69   17.60
   8 -11  -2  131.59   15.20
  11  -8   2  123.09   15.60
  11  -8   2  128.89   13.40
  -8  11  -2  135.69   15.10
 -11   8   2  110.29   12.60
  -8  11  -2  115.89   13.00
 -11   9  -2  185.58   15.80
 -11   9  -2  187.28   26.40
  11   9   2  245.18   15.30
 -11   9  -2  252.87   38.90
   9 -11   2  218.38   18.90
  11  -9  -2  231.48   17.70
  -9  11   2  218.28   15.40
 -11  -9   2  194.98   23.50
   9  11  -2  234.48   14.90
   9  11  -2  269.17   23.60
   9 -11   2  209.48   20.00
  -9 -11  -2  246.88   18.40
 -11  -9   2  208.08   21.00
 -11  -9  -2  250.17   19.70
  11  -9   2  227.58   17.90
   9  11   2  217.08   15.40
  11  -9   2  242.58   16.30
 -11   9   2  221.88   15.70
  11   9  -2  243.48   15.50
  -9  11  -2  228.68   18.20
  -9  11  -2  211.48   15.90
   9 -11  -2  244.38   18.40
   9 -11  -2  220.98   17.70
   9 -11  -2  241.58   28.80
  -9 -11   2  230.38   16.50
 -11  10  -2   70.09   12.90
 -11  10  -2   94.79   14.30
  11 -10  -2   88.59   13.10
 -11  10  -2  100.79   27.70
 -10 -11  -2  127.99   16.50
 -10  11   2   91.99   13.00
  10 -11   2   93.79   13.70
  11  10   2  109.09   12.60
 -11 -10   2  110.59   15.90
 -10  11  -2   64.89   14.10
 -11 -10  -2  106.49   17.90
 -11  10   2  100.59   13.40
  10  11   2   99.09   12.60
 -10  11  -2   79.19   12.90
  10 -11  -2  121.39   14.30
  11 -10   2  122.59   17.90
  11  10  -2  101.29   13.50
 -10 -11   2  128.09   14.70
 -11  11  -2   86.99   12.50
 -11  11   2   76.09   11.30
  11 -11   2  101.89   15.20
 -11 -11   2   93.39   15.00
  11 -11  -2   71.59   15.10
 -11 -11  -2   76.89   13.80
  11  11  -2   63.19   11.00
  11  11   2   96.69   13.60
   0 -12   2    5.50    5.40
 -12   0  -2    2.60   12.40
   0  12  -2   -1.80    6.50
   0 -12   2    6.00    5.50
   0  12   2    1.10    6.00
 -12   0   2  -10.90    9.40
   0  12  -2    5.40    7.20
 -12   0  -2   -1.70   13.00
   0 -12  -2    0.30    5.20
   0 -12  -2   11.20    5.20
   0  12   2    3.60    4.70
  12   0  -2   10.40    7.20
  12   0   2   -2.50    6.50
 -12   0  -2   -2.00    7.60
 -12   0   2   11.80   13.90
 -12   0   2    9.90    8.50
   0  12   2    9.50    8.60
   1 -12   2    7.40    6.10
 -12   1  -2   10.00    9.70
  -1  12   2   19.60    8.60
   1 -12   2    8.30    5.80
  12   1   2   47.50   15.20
 -12  -1   2   18.90    8.60
 -12  -1   2    6.40    9.90
  -1 -12  -2   14.40    6.30
 -12   1  -2  -11.00   13.60
  -1  12   2   13.20    6.40
  -1 -12  -2   10.70    6.80
   1  12  -2    7.40    7.70
  -1  12   2   10.70    6.00
  12   1   2   22.90    7.50
  12  -1  -2   13.40    7.70
   1  12  -2    5.40    7.20
 -12   1  -2   10.00   13.40
 -12  -1   2   -5.10   12.60
 -12   1  -2   20.80    8.00
  -1 -12   2    4.40    5.10
  -1  12  -2    4.20    6.00
 -12  -1  -2   15.90   12.80
   1 -12  -2    3.60    5.50
 -12   1   2    8.40    9.90
 -12   1   2   30.80   10.90
 -12  -1  -2   -8.80    7.80
  12   1  -2   22.30   13.20
 -12  -1  -2    0.50   13.10
  -1 -12   2    6.40    4.90
   1  12   2   10.60    5.20
   1 -12  -2    5.50    5.30
  -1  12  -2    4.30    7.20
 -12   1   2   16.40    8.30
  12  -1   2   10.90    7.10
   1  12   2   10.60    8.40
  12   1  -2   12.00    7.50
   1  12   2   17.20    6.90
   2  12  -2   21.60    8.90
  -2  12   2   12.30    6.70
  -2  12   2   16.40    6.70
 -12   2  -2   -1.80    9.40
  12   2   2   -9.70   14.20
  -2 -12  -2    8.50    7.20
   2  12  -2    3.10    7.40
  -2 -12  -2   15.40    6.80
 -12  -2   2   10.50    8.80
 -12  -2   2   15.60   11.20
   2 -12   2    7.60    6.10
  12   2   2   13.50    7.30
  12  -2  -2    5.50    7.60
   2 -12   2    7.00    6.60
 -12   2  -2    1.00   13.60
 -12  -2   2   11.20   10.40
 -12   2  -2   14.70    7.80
  -2  12   2    1.50    7.90
  -2 -12   2    4.70    5.30
  -2 -12   2    5.00    4.90
   2 -12  -2   10.60    6.00
   2  12   2   16.30    7.10
 -12  -2  -2   16.50   12.60
   2  12   2   11.80    9.50
  12   2  -2   14.20    7.40
  12   2  -2    6.30   12.30
 -12   2   2   11.60   10.10
  12  -2   2   12.90    7.60
 -12  -2  -2  -15.60   12.20
  -2  12  -2    9.90    7.00
 -12   2   2    2.50    7.80
 -12  -2  -2   27.70    8.70
   2  12   2    7.00    5.10
  -2  12  -2   -1.00    6.40
   2 -12  -2   16.20    5.90
   3  12  -2    4.30    5.10
  12   3   2    6.90    6.90
  -3 -12  -2    0.80    6.90
   3  12  -2   -2.70    8.10
   3 -12   2    1.30    6.00
 -12  -3   2   15.70    9.20
  -3  12   2    6.40    6.60
  -3  12   2    6.30    6.40
  -3  12   2   14.60    7.90
 -12   3  -2   10.50   14.70
 -12   3  -2   15.40    8.00
   3  12  -2   -7.30    7.20
   3 -12   2   16.00    6.90
  -3 -12  -2    6.30    6.60
  12   3   2    3.10   13.40
 -12   3  -2    1.10    9.20
 -12  -3   2   -0.90   10.30
  12  -3  -2    9.20    8.10
 -12  -3   2    8.10   11.20
   3 -12  -2    5.30    5.80
 -12   3   2    6.10    8.20
  12  -3   2   -6.10   10.10
  -3  12  -2   -1.20    6.30
 -12  -3  -2   21.00   12.70
   3 -12  -2    2.00    5.70
  -3  12  -2   -5.70    6.10
  -3 -12   2    3.10    5.50
   3  12   2   -2.80    9.90
  12   3  -2   -0.10   12.80
  12   3  -2    1.70    7.00
  12  -3   2   -6.10    6.80
 -12  -3  -2   10.50   13.20
 -12   3   2    7.70   10.70
   3  12   2    2.10    6.50
   3  12   2   -3.70    5.00
 -12   4  -2    2.10   15.70
   4 -12   2   36.00    7.70
 -12  -4   2   33.30   11.70
 -12  -4   2    7.20   10.90
 -12   4  -2   23.10    9.90
 -12   4  -2   29.70    8.40
  -4  12   2   26.20    7.40
   4  12  -2   21.10    9.70
  12   4   2   23.80   11.30
 -12  -4   2   40.80   10.00
  -4  12   2   23.80    9.20
  -4 -12  -2   38.10   12.30
  12  -4  -2   13.20    8.70
  12   4   2    9.50   13.10
   4 -12   2   18.70    6.60
   4 -12  -2   32.10    6.90
   4  12   2   38.10   15.70
  -4  12  -2   20.10    7.30
 -12  -4  -2   47.90   13.30
   4  12   2   29.60    6.80
   4  12   2   24.10    8.70
 -12  -4  -2   31.80   12.90
  12  -4   2   23.40   10.50
   4 -12  -2   20.30    7.10
 -12  -4  -2   39.10   12.00
 -12   4   2   13.80    8.10
 -12   4   2   22.90   12.10
   4 -12  -2   27.60   10.00
  12   4  -2    0.10   13.10
  12   4  -2   23.30    8.30
  12  -4   2   23.50    7.90
  -4 -12   2   25.80    8.10
  -4  12  -2   27.70    8.00
  12   5   2   20.80    7.60
 -12   5  -2   13.00    8.40
   5  12  -2   32.00   10.70
 -12  -5   2   36.30   12.00
  12  -5  -2   20.40    9.40
  -5 -12  -2   18.90    8.10
 -12   5  -2   14.50   16.60
 -12   5  -2   20.50   10.10
  -5  12   2   15.80    7.40
   5 -12   2   24.00    7.90
   5 -12   2   15.50    8.10
  12   5   2   -9.30   13.60
  -5  12   2   16.10    9.40
 -12  -5   2   27.80    9.60
 -12  -5   2   14.00   11.40
   5  12  -2   23.90    7.00
   5 -12  -2   42.40   10.20
  12   5  -2   28.00   14.50
 -12  -5  -2   22.40   13.20
   5  12   2   15.20    6.20
   5 -12  -2   28.40    8.10
   5 -12  -2   32.00    7.40
  12  -5   2   25.20    8.50
  -5 -12   2   20.00    6.80
   5  12   2   24.60    8.80
  12  -5   2   23.20    9.90
  -5  12  -2   15.90    7.30
  -5  12  -2   23.20    8.20
 -12  -5  -2   39.40   12.60
 -12   5   2   17.20    8.60
  12   6   2   16.90   15.30
 -12   6  -2   22.50   18.70
   6 -12   2   30.30    8.10
  -6  12   2   19.50    9.60
  -6 -12  -2   21.80    9.10
 -12   6  -2   18.60    8.70
   6 -12   2   24.40    9.10
 -12   6  -2   -1.70   10.10
 -12  -6   2    9.40   11.70
   6  12  -2   35.30   12.00
  12   6   2   11.00    7.40
  12  -6  -2   15.10    9.30
   6  12  -2   23.40    7.10
  -6  12   2   26.40    8.20
 -12  -6   2   32.50   12.50
   6 -12  -2   31.40    7.90
 -12  -6  -2   -0.80   15.70
   6 -12  -2   36.60    9.10
  -6 -12   2   18.90    6.30
 -12  -6  -2   18.30   12.50
  12  -6   2   35.40   10.00
  12   6  -2   20.30    8.40
   6  12   2   17.30    6.70
   6 -12  -2   30.90   10.00
  12  -6   2   21.30    8.40
 -12   6   2   20.70    8.70
   6  12   2   28.40    9.90
  -6  12  -2   26.10    8.30
  -6  12  -2   29.80    8.60
  12   6  -2    8.30   14.70
 -12  -7   2   39.00   12.00
 -12   7  -2   55.89   11.30
   7  12  -2   54.09    9.10
 -12  -7   2   30.60   11.50
 -12   7  -2   16.00   21.30
  -7  12   2   55.79   11.60
   7 -12   2   40.50    8.50
   7  12  -2   63.79   14.20
 -12   7  -2   47.00   10.50
  12   7   2   39.30    8.70
  -7 -12  -2   38.10    9.90
  -7  12   2   42.70    8.90
  12  -7  -2   78.79   14.70
 -12  -7   2   64.99   13.00
  12   7  -2   34.90    8.90
  12  -7   2   21.60   10.00
   7 -12  -2   47.90   10.10
  12   7  -2   50.59   16.90
   7 -12  -2   59.29    9.70
   7  12   2   40.70    7.90
  -7 -12   2   38.30    8.80
  12  -7   2   39.80    9.80
   7 -12  -2   57.79   11.70
 -12   7   2   38.40    9.30
 -12  -7  -2   37.60   14.20
  -7  12  -2   38.90    9.00
  -7  12  -2   27.20    9.00
  -8 -12  -2   57.49   10.90
 -12  -8   2   95.59   14.10
 -12   8  -2   41.90    9.60
   8  12  -2   47.70    9.60
  -8  12   2   61.59   10.50
 -12   8  -2    0.80   23.10
   8  12  -2   78.39   15.90
  12   8   2   53.09    9.60
  12  -8  -2   68.09   12.20
  12   8  -2   52.89   18.80
  12  -8   2   59.69   12.00
  -8 -12   2   48.00    9.50
  12  -8   2   70.59   11.00
 -12   8   2   56.59   10.00
   8 -12  -2   77.39   12.90
  12   8  -2   54.39    9.80
   8 -12  -2   77.69   12.60
   8 -12  -2   77.59   11.00
 -12  -8  -2   68.99   13.70
  -8  12  -2   45.50    8.90
  -9  12   2  101.79   13.60
   9 -12   2  111.59   17.60
  12   9   2  108.09   12.80
 -12   9  -2  109.69   14.80
 -12  -9   2  104.39   14.50
  -9 -12  -2   74.99   11.60
   9  12  -2   89.09   13.60
  12  -9  -2  102.19   13.60
   9  12  -2  113.89   20.80
 -12   9   2   90.19   13.20
   9 -12  -2   84.19   13.90
  12  -9   2  105.09   15.70
  -9 -12   2   89.89   13.30
 -12  -9  -2  101.09   14.50
  -9  12  -2   91.79   13.10
  12   9  -2  108.49   13.00
  12  -9   2  110.29   17.60
 -10  12   2   55.39   10.60
  12 -10  -2   56.89   13.10
 -12 -10   2   58.89   12.80
  10 -12   2   69.99   14.20
  10  12  -2   41.80   10.90
 -12  10  -2   46.90   10.60
 -10 -12  -2   56.69   12.40
  12  10   2   39.90    9.20
 -12 -10  -2   59.39   14.00
 -12  10   2   33.90    9.50
  10 -12  -2   31.20   13.00
  12  10  -2   54.69   10.90
 -10 -12   2   41.90   10.00
  10  12   2   54.39   10.20
 -10  12  -2   52.19   10.20
  12 -10   2   43.40   17.80
 -13   0  -2  -14.00   11.20
 -13   0   2   -6.60   10.20
   0  13  -2   -6.80    6.90
 -13   0  -2   21.10   15.40
   0 -13   2   -0.30    5.70
   0  13   2    5.30    5.80
 -13   0   2   -8.50   11.10
 -13   0  -2  -12.20   15.20
   0 -13  -2    1.00    6.00
  13   0  -2   -5.80    7.80
 -13   0  -2   -0.10   15.00
   0  13   2   -0.10    9.00
   0  13   2    5.10    6.60
 -13   0   2    2.40    8.90
  13   1   2    0.70    7.40
  13  -1  -2    7.60    8.20
  -1  13   2    4.80    6.30
   1  13  -2   -3.00    8.00
  -1  13   2    1.50    9.30
 -13   1  -2   -8.70   14.90
  -1  13   2    9.00    7.10
  13   1   2   31.50   15.40
   1 -13   2   -0.90   10.10
 -13   1  -2   26.90   11.00
 -13  -1   2   19.50    9.30
 -13  -1   2   11.50   13.90
 -13   1  -2   16.00    9.00
 -13   1  -2  -29.00   13.80
   1 -13  -2    1.80    6.30
  13   1  -2   21.30   15.50
  -1 -13   2    9.60    6.10
 -13  -1  -2   31.80   10.00
   1  13   2    4.00    6.80
  -1  13  -2   19.40    8.10
 -13  -1  -2  -14.50   13.20
 -13   1   2   14.00   11.60
 -13  -1  -2    4.30   14.60
  13  -1   2    5.50    8.60
 -13   1   2    3.80    9.00
 -13   1   2   20.00   12.50
  13   1  -2    5.30    7.80
   1 -13  -2    8.10    5.50
   1  13   2    3.00    5.40
  -2  13   2   15.80    9.80
  -2  13   2   24.40    7.90
 -13   2  -2   38.00    9.50
  13  -2  -2   15.30    8.80
   2  13  -2   19.70    9.40
  -2  13   2   24.50    8.00
 -13  -2   2   18.60   15.20
  13   2   2   21.20   16.80
  -2 -13  -2   19.10    7.40
 -13  -2   2   21.60    9.70
 -13   2  -2   -3.90   15.40
  13   2   2   16.00    7.90
 -13   2  -2   29.20   16.30
 -13  -2   2    3.40   11.60
 -13   2  -2   29.70   11.40
 -13  -2  -2    0.20   15.00
  13   2  -2   12.60   15.40
  -2 -13   2    9.30    5.60
   2 -13  -2   17.10    6.30
 -13  -2  -2   27.70   11.30
   2  13   2   22.30    8.30
  13   2  -2   13.80    8.30
 -13  -2  -2   33.60   14.40
  13  -2   2   24.00    8.60
   2 -13  -2    8.60    6.40
 -13   2   2   20.70    9.80
   2  13   2   16.60    6.20
 -13   3  -2   36.10   11.80
  13  -3  -2   28.90    9.20
   3 -13   2   30.60   10.70
 -13  -3   2   41.10   10.50
  -3 -13  -2   23.50    7.20
  13   3   2   36.40    8.70
  -3  13   2   22.70    9.90
   3  13  -2   52.19   11.50
  13   3   2   18.50   16.70
 -13   3  -2   40.80   17.00
 -13   3  -2   34.70    9.70
 -13  -3   2   22.90   12.40
 -13  -3   2   32.30   13.30
  -3  13   2   35.10    8.10
   3 -13  -2   42.50    9.10
   3  13   2   43.80    9.50
  -3 -13   2   37.70    7.70
  -3  13  -2   49.99   10.10
  13   3  -2   18.10    8.20
   3 -13  -2   51.29    8.60
   3  13   2   29.30    7.00
 -13  -3  -2   41.60   15.40
 -13   3   2   39.70   10.00
  13   3  -2   50.19   15.90
  13  -3   2   32.70    9.10
 -13  -3  -2   51.29   14.80
 -13  -4   2   39.30   10.60
 -13   4  -2   59.79   18.90
  -4  13   2   43.90    8.10
 -13   4  -2   64.09   12.50
  -4 -13  -2   47.40    8.80
 -13   4  -2   61.39   10.60
  13  -4  -2   71.09   11.00
  13   4   2   44.10    8.70
 -13  -4   2   75.79   13.90
 -13  -4   2  110.79   15.20
  13   4   2   80.79   18.00
   4  13  -2   69.89   12.70
  -4  13   2   69.99   12.40
   4 -13   2   83.69   12.20
  -4  13  -2   60.19   10.40
   4 -13  -2   62.09    8.90
  13  -4   2   51.39   10.00
 -13  -4  -2   61.39   15.90
 -13  -4  -2   92.69   15.70
 -13   4   2   50.99   15.20
   4  13   2   71.79   10.70
  13  -4   2   60.39   13.30
  13   4  -2   53.19    9.50
  -4 -13   2   62.59    9.50
  13   4  -2   49.80   16.50
   4  13   2   57.49    8.70
   4 -13  -2   92.89   18.70
   4 -13  -2   72.09   11.30
 -13   5  -2   69.19   20.70
 -13   5  -2  105.99   18.80
 -13  -5   2  100.09   15.30
 -13   5  -2   74.59   11.10
  -5  13   2   59.69   10.20
  -5 -13  -2   75.59   12.40
 -13  -5   2   83.69   14.50
  13   5   2   73.19   18.10
  13   5   2   56.29    9.30
   5  13  -2   75.59   13.40
  13  -5  -2   65.79   10.70
   5 -13   2   80.69   12.00
  -5  13   2   53.29   11.60
   5 -13  -2   76.79   19.80
  13  -5   2   49.00   13.20
 -13   5   2   68.09   11.10
  13   5  -2   47.30    9.60
   5  13   2  102.29   15.10
  13  -5   2   60.69   10.50
  -5 -13   2   86.49   10.30
  -5  13  -2   71.99   11.80
 -13  -5  -2   67.99   15.30
   5 -13  -2   93.29   11.00
  13   5  -2   30.90   16.90
   5 -13  -2   84.29   13.40
   5  13   2   50.99    8.40
  13  -6  -2   72.89   11.50
 -13  -6   2   53.39   15.30
  13   6   2  102.39   12.00
 -13   6  -2   70.89   14.40
 -13  -6   2   77.29   15.60
  -6  13   2   89.49   12.20
 -13   6  -2   70.99   11.60
   6 -13   2   85.09   14.10
   6  13  -2  108.59   16.00
 -13   6  -2   84.89   21.80
  -6 -13  -2   97.09   13.30
  -6 -13   2   68.89   10.60
   6 -13  -2   59.89   10.70
   6 -13  -2  101.99   12.60
  13  -6   2   94.39   11.60
  13   6  -2   86.89   12.70
  13  -6   2   78.99   13.20
   6  13   2   81.49   11.30
 -13  -6  -2  101.99   16.40
  -6  13  -2   91.09   12.50
 -13   6   2   69.79   11.20
  13   6  -2   97.89   18.90
  13   7   2  131.19   13.30
   7 -13   2  134.89   15.00
   7  13  -2  134.69   17.80
  -7  13   2  116.49   13.70
 -13   7  -2  114.89   14.40
  -7 -13  -2  130.29   14.40
 -13  -7   2  132.79   19.50
  13  -7  -2  129.89   15.20
   7  13   2  137.69   13.50
  -7  13  -2  106.69   13.40
  13  -7   2   98.09   15.00
 -13  -7  -2  130.59   20.90
  13   7  -2  121.99   12.60
   7 -13  -2  110.19   17.80
 -13   7   2  121.89   14.10
   7 -13  -2  155.18   15.00
  -7 -13   2  115.49   11.80
  13  -7   2  115.49   14.60
 -13  -8   2  123.09   19.90
  -8 -13  -2  137.09   15.20
   8 -13   2  157.48   17.70
  13  -8  -2  145.29   16.00
   8  13  -2  114.99   14.60
   8  13  -2  133.29   18.90
  13   8   2  135.29   13.80
  -8  13   2  133.29   13.70
 -13   8  -2  114.39   14.90
  13  -8   2  137.99   19.00
 -13  -8  -2  155.68   20.40
  13   8  -2  139.59   14.20
   8  13   2  128.69   14.60
  -8  13  -2  135.39   14.30
  13  -8   2  134.89   17.60
 -13   8   2  120.19   14.20
  -8 -13   2  110.99   12.00
   8 -13  -2  157.48   16.40
 -13  -9   2  114.99   19.20
   9 -13   2  167.88   19.60
  13   9   2  173.78   14.90
 -13   9  -2  166.68   15.80
  -9  13   2  161.78   15.20
  13  -9  -2  170.08   17.30
  -9 -13  -2  182.58   17.10
 -13   9   2  143.19   14.70
  -9 -13   2  142.89   13.80
  13   9  -2  172.88   15.40
  -9  13  -2  150.68   15.10
   9 -13  -2  269.37   31.30
 -13  -9  -2  164.28   20.70
  13  -9   2  134.19   20.60
 -14   0  -2  -15.60   12.90
  14   0  -2  -12.70    7.40
  14   0   2   -5.10    7.40
   0  14  -2    5.10    8.80
   0 -14  -2   -5.10    5.40
   0  14   2    5.30    6.90
   0 -14   2    4.40    5.80
 -14   0  -2    9.10   16.60
   0  14   2   -7.50    6.70
 -14   0  -2    2.30   16.80
 -14   0   2    3.00   10.00
 -14   0  -2   -2.50   10.60
  14  -1  -2   -0.60    8.40
  -1  14   2    7.70    7.70
   1 -14   2    1.70    5.60
 -14   1  -2   13.40   20.50
   1  14  -2   10.50    9.10
  14   1   2   -1.00    7.50
  -1 -14  -2    4.00    5.70
  -1  14   2    4.20    6.90
 -14  -1   2    4.20    9.70
 -14   1  -2    9.90   17.20
 -14   1  -2  -34.60   18.10
 -14  -1  -2   16.20   16.00
 -14   1   2    0.20    9.90
  14  -1   2    9.10    7.90
  -1  14  -2   -8.80    7.00
   1  14   2   -5.50    7.10
   1  14   2    0.40    6.20
   1 -14  -2    0.60    6.20
  14   1  -2    8.30    8.20
 -14  -1  -2    7.80   16.90
  -1 -14   2   -3.60    5.30
 -14   2  -2   31.10   18.70
   2  14  -2    5.10   15.90
  -2  14   2   28.10    8.10
 -14   2  -2   12.80   17.20
   2 -14   2    7.10    7.20
 -14  -2   2    2.70   10.00
 -14   2  -2    6.70   14.80
  14   2   2   28.00   18.60
  -2 -14  -2    9.80    5.90
 -14   2  -2   21.60   10.50
  14  -2  -2   13.60    8.60
  14   2   2   11.00    8.10
   2 -14  -2    9.10    6.70
  -2  14  -2   12.30    8.20
 -14  -2  -2   13.70   17.10
   2  14   2   19.30    6.80
  14  -2   2    8.60    8.70
 -14   2   2   -8.40   17.60
  -2 -14   2   13.30    6.40
 -14  -2  -2    5.40   14.90
  14   2  -2   18.00    8.30
   2  14   2   32.70    9.10
  -3  14   2   27.60    8.10
   3 -14   2   23.70    7.40
 -14   3  -2   25.60   10.30
 -14   3  -2   26.50   14.10
  -3 -14  -2   23.90    7.10
 -14   3  -2    4.00   19.00
  14   3   2   24.90   19.50
 -14  -3   2   38.30   18.30
  14   3   2   19.70    8.20
  14  -3  -2    4.00    8.40
   3 -14  -2   20.60    7.40
  14  -3   2   12.80    9.20
   3  14   2   18.60    6.80
  -3 -14   2   23.60    7.50
  -3  14  -2   35.50    9.70
  14   3  -2   20.00    8.60
 -14  -3  -2   -1.20   15.70
 -14  -3  -2   -3.30   16.70
 -14   3   2   19.90   10.40
   3  14   2    9.80    8.30
  14  -4  -2   39.70    9.80
  -4  14   2   32.10    8.30
   4  14  -2   51.59   14.30
  14   4   2   25.70    8.40
 -14   4  -2   50.09   13.80
  -4 -14  -2   31.70    7.90
  14   4   2   25.30   21.40
   4 -14   2   54.99    9.30
   4  14   2   42.70    8.60
 -14  -4  -2   50.59   17.40
  -4  14  -2   31.90    8.10
   4 -14  -2   47.50    9.80
 -14   4   2   18.30   10.50
  14  -4   2   33.90   10.00
  -4 -14   2   26.00    7.50
  14   4  -2   50.59    9.90
   4  14   2   44.10   17.70
  -5  14   2   49.10    8.80
  14  -5  -2   65.59   11.00
  -5 -14  -2   68.39   11.70
  14   5   2   59.19    9.60
 -14   5  -2   56.29   11.60
   5  14  -2   62.09   16.80
   5 -14   2   51.99    9.50
   5  14   2   56.89    9.60
  14   5  -2   49.00    9.90
 -14  -5  -2   68.09   16.80
 -14   5   2   41.90   10.40
  -5  14  -2   43.90    8.60
  14  -5   2   60.19   11.10
  14  -5   2   41.10   16.40
   5 -14  -2   72.99   11.70
  -5 -14   2   63.09   10.00
   6 -14   2  101.59   14.80
  -6  14   2   85.29   12.70
 -14  -6   2   94.39   17.50
 -14   6  -2   63.59   11.80
  -6 -14  -2   74.69   11.10
  14  -6  -2   83.49   12.60
  14   6   2   59.49   10.10
   6  14  -2  123.19   19.40
  -6  14  -2   91.09   13.10
  14  -6   2   67.89   16.40
 -14  -6  -2   65.19   16.10
  14   6  -2   57.09    9.90
  -6 -14   2   75.29   10.70
   6  14   2   65.89   10.10
   6 -14  -2  109.29   13.10
 -14   6   2   81.39   12.10
  14  -6   2   72.69   11.90
  -7  14   2  117.69   13.60
 -14  -7   2  138.89   17.80
  -7 -14  -2   96.09   13.70
  14  -7  -2   91.49   13.00
  14   7   2   99.79   12.80
   7 -14   2  135.39   15.60
 -14   7  -2  105.49   15.10
  14  -7   2   97.19   13.30
   7 -14  -2  139.79   17.30
  14  -7   2  108.19   18.20
  -7 -14   2  102.39   12.20
 -14   7   2   90.29   12.80
   7  14   2  117.69   15.00
  14   7  -2   95.19   13.40
 -14  -7  -2  120.69   17.90
  -7  14  -2   97.49   13.50
   0  15   2    5.90    7.70
  15   0   2   -0.50    7.60
   0  15  -2    7.30    8.70
 -15   0  -2  -19.10   17.30
 -15   0   2    8.50   12.10
   0 -15   2   -1.60    6.30
   0 -15  -2    2.80    6.00
  15   0  -2   -5.60    8.10
  15  -1  -2    3.00    8.50
   1  15  -2  -11.00    9.00
  15   1   2    6.30    7.90
  -1  15   2    7.80    7.00
   1 -15   2    1.10    6.60
 -15   1  -2   17.10   30.90
  -1 -15  -2   10.10    6.90
 -15  -1  -2   12.90   17.90
  15   1  -2    8.40    8.30
  -1 -15   2    1.30    6.00
  -1  15  -2   11.80    9.30
 -15  -1  -2    0.40   17.70
 -15   1   2   -2.20   11.10
 -15  -1  -2  -27.50   30.90
  15  -1   2   13.40    8.40
   1 -15  -2   -0.40    6.40
   2 -15   2    8.50    7.30
  15   2   2    3.50    8.00
 -15   2  -2    3.40   12.30
  -2  15   2    4.70    6.40
  15  -2  -2   10.40    9.00
 -15  -2   2   21.00   12.30
   2  15  -2    9.60   10.10
  -2 -15  -2    7.10    5.90
  15   2   2   14.60   20.40
  15  -2   2    7.30    8.80
  15   2  -2    4.10    8.80
  -2  15  -2   12.60    8.10
  -2 -15   2   12.30    6.80
 -15  -2  -2  -29.50   17.90
 -15   2   2   22.70   11.30
   2  15   2   18.30    9.30
   2 -15  -2   16.80    7.20
  15  -3  -2    2.60    9.10
  -3  15   2   25.20    7.90
  -3 -15  -2   21.40    7.30
 -15   3  -2   14.70   13.40
   3  15  -2   10.70   11.40
 -15  -3   2   38.10   13.50
  15   3   2   11.20    8.30
   3 -15   2   14.40    7.40
  -3 -15   2   23.40    6.90
 -15   3   2   15.90   11.20
  15  -3   2   11.20    9.40
   3 -15  -2   33.80    8.70
  15   3  -2   11.20    9.00
   3  15   2   23.90   10.30
 -15  -3  -2   65.49   21.10
  -3  15  -2   33.00    9.60
  -4 -15  -2   30.30    8.10
  15   4   2   21.80    8.80
   4  15  -2   44.40   13.60
  15  -4  -2   14.90    9.60
  -4  15   2   29.20    8.60
   4 -15   2   47.50    9.90
 -15   4  -2   23.10   11.30
 -15   4   2   21.10   11.30
   4 -15  -2   24.70    8.70
 -15  -4  -2   27.20   17.90
  15  -4   2   23.30   10.10
  15   4  -2   21.30    9.30
  -4  15  -2   33.90    9.10
  -4 -15   2   24.60    7.50
 -15   5  -2   36.10   11.30
  -5  15   2   34.80    8.80
   5 -15   2   41.10   10.00
  -5 -15  -2   18.20    7.20
  15  -5  -2   40.40   10.70
  15   5   2   21.30    8.80
   5  15  -2   63.39   15.90
   5  15   2   31.30    9.80
  15   5  -2   24.30    9.00
   5 -15  -2   66.59   11.20
  15  -5   2   40.50   11.40
 -15   5   2   41.50   11.60
 -15  -5  -2   66.69   18.80
  -5 -15   2   32.80    7.50
  -5  15  -2   47.00   10.20
   0   0   3   -1.20    2.40
   0   0  -3   -1.60    4.80
   0   0   3   -0.30    2.50
   0   0   3    0.90    2.70
   0   1   3    3.50    2.60
   0  -1   3    3.40    2.80
   1   0   3    2.40    2.30
   1   0  -3    1.10    2.40
  -1   0   3    1.50    2.80
   0  -1   3   -1.90    2.20
   1   0   3    3.90    6.00
   0  -1   3    1.40    2.80
   1   0   3    3.60    2.40
   0   1   3    0.10    3.10
  -1   0   3    2.20    2.20
  -1   0   3    2.10    2.90
   1   0   3    2.40    2.90
   0  -1   3    1.60    3.10
   0   1  -3   -5.20    2.80
   0   1   3   -2.70    4.60
  -1   0  -3   -0.40    5.80
   0  -1  -3    3.70    4.60
   0   1   3   -0.30    2.40
   1   1   3   36.50    6.50
  -1   1   3   37.90    4.90
   1   1   3   32.40    3.40
  -1  -1   3   37.50    3.90
   1   1   3   34.00    4.10
  -1   1   3   36.10    4.40
   1  -1  -3   35.90    4.40
  -1  -1   3   33.40    5.20
   1  -1   3   47.80    5.80
  -1   1   3   35.30    4.00
   1  -1   3   34.10    4.10
  -1  -1  -3   40.90    6.30
  -1   1  -3   33.10    4.60
  -1  -1   3   27.90    4.30
  -1   1   3   33.70    4.50
   1   1   3   44.30    4.90
  -1  -1   3   33.30    3.70
   1  -1   3   33.90    4.60
   1   1  -3   24.80    3.90
   1  -1   3   31.80    3.40
   0  -2  -3  442.46   14.90
   0   2   3  468.85   12.90
   2   0   3  441.16   18.20
   2   0   3  459.35   14.20
   0  -2   3  451.65   13.60
   2   0   3  458.35   13.20
   0  -2   3  452.75   12.30
   0   2   3  457.05   15.50
  -2   0  -3  422.36   17.00
   0  -2   3  467.15   14.10
   0  -2  -3  428.16   14.10
  -2   0   3  430.36   12.40
   0  -2   3  437.76   14.10
  -2   0   3  490.45   14.40
   0   2   3  449.26   13.70
   0   2  -3  451.75   14.10
   2   0  -3  451.75   12.30
  -2   0   3  430.56   12.20
   2   1   3   63.49    4.90
   1  -2   3   62.69    6.70
   2   1   3   59.59   10.20
   1  -2   3   62.59    3.40
   1  -2   3   67.89    6.10
  -2  -1   3   62.29    3.90
  -2   1  -3   75.79    9.30
   2   1   3   61.29    6.70
   2   1   3   58.69    3.30
  -2  -1   3   63.69    4.50
  -1  -2  -3   65.59    7.30
   1   2  -3   55.49    5.10
   1  -2   3   66.69    5.80
  -2   1  -3   67.69    7.00
  -2   1  -3   53.79    6.40
   1   2  -3   49.90    4.50
  -1   2   3   65.39    5.00
  -1  -2  -3   78.29    8.70
  -1   2   3   65.09    5.30
  -2  -1   3   66.99    6.20
   2  -1  -3   63.89    4.30
  -1   2   3   71.39    6.60
  -1   2  -3   67.59    6.60
  -1  -2   3   67.49    5.40
   1   2   3   70.89    3.70
  -2   1   3   58.99    6.30
   2  -1   3   57.79    5.90
  -2   1   3   71.09    5.70
   2   1  -3   69.59    6.00
  -2  -1  -3   69.19    9.20
   1   2   3   68.49    5.10
   1   2   3   72.49    8.40
   2   1  -3   47.60    4.10
   2  -1   3   73.59    4.30
   1  -2  -3   51.59    4.90
  -1  -2   3   53.69    4.50
  -1  -2   3   59.99    5.80
  -2  -2   3  146.49    7.60
   2  -2  -3  121.99    5.30
  -2   2  -3  148.89    8.80
   2   2   3  148.59    6.90
   2  -2   3  142.49    7.90
   2   2  -3  138.89    6.90
   2  -2   3  152.98    5.40
  -2  -2  -3  137.79    9.40
   2   2  -3  139.99    6.60
   2  -2  -3  127.69    5.80
  -2  -2   3  145.99    6.80
  -2  -2   3  141.49    6.10
  -2   2   3  146.29    6.70
  -2   2  -3  141.29    8.40
   2   2   3  147.59   11.00
   2  -2   3  141.19    7.80
  -2  -2  -3  156.78   11.10
  -2   2   3  157.58    7.20
  -2   2   3  147.99    7.30
   0   3  -3 1286.97   31.80
   0   3   3 1263.87   33.80
   3   0   3 1244.48   37.50
  -3   0  -3 1223.58   33.00
   0   3   3 1310.97   33.00
   0  -3  -3 1261.17   34.00
  -3   0  -3 1262.77   37.10
   3   0  -3 1151.68   32.00
   0   3  -3 1297.27   34.20
  -3   0   3 1197.68   31.80
   0   3   3 1260.37   35.00
   0  -3   3 1272.07   34.40
   0  -3  -3 1244.98   34.40
  -3   0   3 1334.57   34.50
   0  -3   3 1280.97   34.40
   0  -3   3 1268.17   33.90
   3   0  -3 1248.38   34.20
  -3   0   3 1265.27   32.00
   3   0   3 1282.87   33.30
   3   1   3   64.49    7.40
  -3  -1   3   63.39    3.90
  -1   3   3   61.79    4.70
   1   3  -3   71.89    4.20
   3   1   3   59.69    5.20
   3  -1  -3   62.89    7.00
  -1  -3  -3   64.29    7.40
   3   1   3   71.09   10.10
  -3   1  -3   71.89    6.00
  -3   1  -3   80.89    7.70
   1   3  -3   74.89    6.10
   1  -3   3   58.49    6.50
  -1   3   3   69.09    5.50
   1  -3   3   67.39    5.40
  -1   3   3   63.99    7.20
  -3  -1   3   68.49    6.50
  -3  -1   3   54.49    4.10
  -1  -3  -3   65.29    8.40
  -3   1  -3   63.59   11.20
  -1   3  -3   62.79    8.20
  -1  -3   3   71.79    6.60
  -1  -3   3   63.09    5.20
   3   1  -3   68.69    6.60
   3   1  -3   59.89    4.60
   1   3   3   68.99    8.50
  -1  -3   3   63.99    6.00
  -3   1   3   67.49    6.10
  -1   3  -3   61.89    6.00
   1   3   3   66.89    3.60
  -3  -1  -3   49.30    3.30
   1   3   3   64.49    5.50
   3  -1   3   54.19    4.30
   1  -3  -3   72.19    5.20
   1  -3  -3   76.89    6.20
  -3  -1  -3   77.19    9.10
   3  -1   3   64.49    6.30
  -2  -3  -3   27.00    5.70
   2  -3   3   19.40    2.60
  -2   3   3   20.20    3.90
  -3  -2   3   13.60    3.10
  -3  -2   3   14.90    4.70
  -3   2  -3   18.80    5.00
   2  -3   3   22.90    5.00
  -3   2  -3   12.10    4.60
   2  -3   3   20.70    4.40
   3   2   3   24.30    7.00
  -2   3   3   16.50    3.70
   2   3  -3   19.50    3.80
  -2  -3  -3   20.30    6.60
   2   3  -3   21.20    3.50
  -2   3   3   16.30    3.40
   3   2   3   23.00    3.90
   3  -2  -3   15.50    2.00
  -3  -2   3   13.30    2.90
  -2  -3   3   16.40    3.20
   3  -2   3   19.50    4.50
  -3  -2  -3   13.00    7.00
   2  -3  -3   28.90    4.40
   2   3   3   17.80    6.50
  -3  -2  -3   20.60    6.40
   3  -2   3   18.30    2.70
   2  -3  -3   22.80    3.60
  -2  -3   3   16.30    3.70
  -2   3  -3   18.50    5.20
   3   2  -3   17.50    4.30
  -3   2   3   12.40    3.80
  -2   3  -3   20.70    4.40
  -3   2   3   19.00    3.40
   2   3   3   22.30    3.90
  -2  -3   3   23.10    4.60
   2   3   3   13.60    2.10
   3   2  -3   16.30    3.50
   3   3  -3    4.20    3.50
  -3   3   3    5.20    4.40
   3   3  -3   -0.50    3.50
  -3   3  -3   -6.90    4.00
  -3  -3  -3    5.70    6.30
   3  -3   3    0.80    3.50
  -3   3   3    0.40    2.70
  -3  -3   3    1.10    3.60
  -3  -3   3   -0.90    3.00
   3  -3   3   -4.00    3.80
  -3   3  -3   -1.80    4.80
  -3  -3  -3   -5.90    5.30
   3  -3   3   -0.40    2.10
   3  -3  -3   -0.40    1.70
   3   3   3    6.50    6.10
  -3   3   3   -1.60    2.70
  -3  -3   3    0.20    3.00
   3   3   3    0.90    3.30
   3  -3  -3   -0.90    1.90
   0  -4   3 1152.58   31.40
   0   4   3 1157.68   31.30
   4   0  -3 1073.39   29.60
   0  -4   3 1166.08   32.10
   4   0   3 1131.09   32.00
   0   4  -3 1168.78   31.80
  -4   0  -3 1153.78   35.20
   0   4   3 1189.58   30.70
   4   0   3 1112.59   35.40
  -4   0  -3 1147.19   30.30
   0   4   3 1160.58   32.80
  -4   0   3 1071.39   28.90
   4   0   3 1157.98   30.80
  -4   0   3 1071.89   29.10
   4   0  -3 1140.79   31.90
  -4   0   3 1193.08   32.00
   0  -4  -3 1179.08   31.80
   0  -4  -3 1167.28   32.20
   1   4  -3  105.09    7.30
   4   1   3   93.39   11.00
  -1  -4  -3  103.09    8.00
  -1  -4  -3   99.09    8.60
   4  -1  -3   89.99    8.20
  -1   4   3  113.89    6.50
   4   1   3  104.89    8.50
  -1   4   3  101.69    8.00
  -4   1  -3  103.39    6.70
   1  -4   3   96.29    7.20
  -1   4   3  108.29    6.30
   4   1   3  103.99    6.20
  -4   1  -3   97.29   13.10
  -4  -1   3   98.69    4.80
   1   4  -3  108.59    4.20
  -4   1  -3  109.29    8.80
  -4  -1   3  117.49    7.50
  -4  -1   3   99.49    5.20
   1  -4   3   99.29    7.00
   1  -4  -3  116.39    7.30
  -1  -4   3  119.19    7.80
   4  -1   3  106.79    7.30
  -4   1   3  103.39    7.20
  -1   4  -3   97.59    9.60
   4  -1   3  104.99    5.60
  -1   4  -3  104.09    7.60
   4   1  -3   94.09    5.90
  -1  -4   3  106.99    6.70
   1  -4  -3  104.39    6.30
   1   4   3  108.19    9.90
  -4  -1  -3  102.09   12.00
   4   1  -3   91.99    7.80
  -1  -4   3   95.89    6.50
   1   4   3  100.59    6.40
   1   4   3   99.79    5.10
  -4  -1  -3  113.39    4.50
  -4   2  -3  197.78    9.60
   2  -4   3  198.28   10.00
   2   4  -3  196.38    9.50
  -4   2  -3  195.68    9.80
   2  -4   3  194.48    5.70
   4   2   3  164.28    9.10
  -4  -2   3  191.48    8.10
   2  -4   3  176.88    9.60
  -2   4   3  196.58    9.20
  -4  -2   3  216.38    9.90
  -4  -2   3  185.78    7.50
  -2  -4  -3  198.48   10.80
   4  -2  -3  198.28   10.60
   2   4  -3  199.38    7.10
  -2   4   3  213.08    8.70
   4   2   3  206.48   12.50
  -2  -4  -3  188.78   10.50
  -2   4   3  193.98    8.70
  -4   2  -3  181.98   15.40
   2   4   3  180.78   12.20
   4  -2   3  206.18    7.60
  -2   4  -3  194.68   10.90
  -2  -4   3  212.08    9.70
  -4   2   3  160.98   11.10
   2   4   3  193.48    6.50
   4   2  -3  188.48    8.70
  -4  -2  -3  193.28   13.40
   4  -2   3  180.68    9.50
  -4  -2  -3  172.68   12.90
   2  -4  -3  202.48    8.00
  -2  -4   3  190.58    8.40
  -2  -4   3  197.28    9.00
   4   2  -3  192.78    9.10
  -2   4  -3  193.08    9.70
   2   4   3  203.18    8.60
   2  -4  -3  192.78    7.50
  -4   3  -3  155.48    9.50
   3  -4   3  141.69    8.60
   3  -4   3  145.09    8.80
   4  -3  -3  149.69    5.20
  -4  -3   3  149.99    7.40
  -3  -4  -3  141.59   10.30
   3   4  -3  166.28    9.00
   3   4  -3  153.98    7.00
   4   3   3  153.28    7.90
  -4  -3   3  144.89    8.10
  -3   4   3  162.48    8.30
   4  -3  -3  151.28    5.60
   3  -4   3  149.88    5.50
  -4   3  -3  166.18    9.50
  -3  -4  -3  172.68   11.50
  -4  -3   3  156.58    9.30
   4  -3  -3  166.28    9.90
   4   3   3  160.78   11.80
  -3   4   3  158.28    7.50
  -3  -4   3  163.28    7.80
  -4  -3  -3  161.78   13.00
  -3   4  -3  158.48    8.60
   4  -3   3  148.99    6.50
  -4  -3  -3  162.18   11.80
  -3  -4   3  138.69    8.10
  -3   4  -3  162.48   10.30
  -4   3   3  164.98    8.50
   3  -4  -3  152.88    6.10
   3   4   3  160.98   12.10
   4  -3   3  151.68    9.30
  -4   3   3  162.58    6.10
   3   4   3  146.19    5.00
   3   4   3  147.89    8.00
   4   3  -3  166.88    8.30
   3  -4  -3  151.18    6.70
   4   3  -3  158.88    8.80
   4   4  -3  317.17   13.10
   4  -4  -3  314.17    9.80
   4  -4   3  315.47   12.80
   4   4   3  326.27   12.00
  -4  -4  -3  336.87   16.00
  -4   4   3  325.77   10.90
   4   4   3  320.67   16.20
   4  -4   3  325.87   10.20
   4  -4   3  315.57   13.40
  -4  -4  -3  336.97   15.20
   4  -4  -3  316.27   10.30
  -4  -4   3  333.97   12.90
  -4   4  -3  320.97   13.10
  -4  -4   3  316.47   12.20
  -4   4  -3  306.17   13.80
  -4  -4   3  310.27   11.80
   4   4  -3  314.57   11.40
  -5   0   3 1060.49   28.50
  -5   0  -3 1136.99   29.80
   0  -5  -3 1113.79   31.20
   0   5  -3 1107.29   33.60
  -5   0  -3 1102.09   35.10
   0   5   3 1118.29   30.90
   5   0  -3 1115.59   31.80
   0   5   3 1150.58   30.50
   0   5  -3 1198.28   31.90
   0  -5  -3 1130.79   32.00
   0  -5   3 1150.28   31.20
   0   5   3 1131.79   32.60
   0  -5   3 1092.89   31.60
  -5   0   3 1044.50   28.70
  -5   0   3 1121.99   31.60
   5   0   3 1042.40   35.80
   5   0   3 1098.19   35.60
   5   0  -3 1038.40   29.40
  -5  -1   3  388.56   14.20
   1   5  -3  393.26   14.00
  -5   1  -3  366.56   12.60
  -1  -5  -3  360.66   14.60
   5  -1  -3  376.36   14.50
  -5  -1   3  344.07   11.20
  -5  -1   3  364.36   11.70
  -1   5   3  381.26   12.70
  -1   5   3  380.56   14.10
   5   1   3  371.16   14.80
  -1   5   3  362.26   12.70
   1  -5   3  342.07   13.60
   5   1   3  379.26   12.70
   1   5  -3  370.66   10.10
   1  -5   3  358.56   13.10
   5   1   3  344.07   18.00
  -5   1  -3  359.36   18.90
   1  -5  -3  374.16   12.90
  -5  -1  -3  385.06   10.90
   5  -1   3  368.16   18.50
  -5  -1  -3  370.46   17.80
  -1  -5   3  370.86   13.00
   1   5   3  362.36   15.50
  -5   1   3  387.96   13.70
   5   1  -3  357.56   12.60
   5   1  -3  378.56   14.00
   1   5   3  310.27   13.60
  -1  -5   3  375.06   14.30
  -1  -5   3  372.26   13.50
   1   5   3  375.66   11.90
  -1   5  -3  380.06   13.80
  -1   5  -3  359.76   15.60
   5  -1   3  357.16   12.10
   1  -5  -3  361.26   13.30
  -2   5   3  313.37   12.30
   5   2   3  285.57   16.30
   5  -2  -3  293.97   13.00
  -5  -2   3  305.77   10.60
  -2   5   3  283.87   12.80
   2   5  -3  322.87   12.70
  -5   2  -3  309.07   13.30
   2  -5   3  293.67   12.10
  -5  -2   3  316.67   12.60
  -5   2  -3  278.27   17.40
  -2  -5  -3  297.87   13.20
  -5  -2   3  312.17   11.10
   2  -5   3  307.07   12.50
   5   2   3  306.87   11.50
  -2  -5  -3  326.67   14.50
   2   5  -3  313.77    9.50
  -5   2  -3  303.27   11.90
  -2   5  -3  311.67   12.40
   2  -5  -3  290.67   10.60
  -2  -5   3  307.37   12.70
  -5  -2  -3  285.47   15.10
  -2  -5   3  292.57   12.00
   2   5   3  306.87   10.00
   2  -5  -3  301.97   11.30
   5  -2   3  310.87   12.70
   2   5   3  308.27   11.50
  -2   5  -3  298.67   14.10
  -5  -2  -3  311.47    8.80
   5   2  -3  317.87   12.10
   2   5   3  302.47   15.00
  -5  -2  -3  314.07   16.60
   5   2  -3  301.77   11.90
   5  -2   3  308.67   10.70
  -2  -5   3  300.07   11.40
  -5   2   3  330.97   12.60
   3  -5   3  129.39    9.20
   5   3   3  139.09   14.40
  -5   3  -3  131.39   15.50
   5   3   3  130.49    7.70
  -3   5   3  136.19    8.40
   3   5  -3  144.39    6.40
  -5   3  -3  137.79    9.50
   3  -5   3  135.09    5.10
  -5  -3   3  133.49    9.00
   5  -3  -3  118.89    9.70
   3   5  -3  140.79    9.20
  -3  -5  -3  144.89   10.30
  -5  -3   3  134.39    8.20
  -5  -3   3  140.79    7.60
   5  -3  -3  138.49    5.10
  -3   5   3  145.69    8.30
  -5   3  -3  136.69    9.00
   3  -5   3  141.29    8.50
  -3   5   3  128.79    8.20
  -3  -5  -3  131.29   11.50
  -5  -3  -3  136.69   12.50
  -3   5  -3  131.29   10.10
   5   3  -3  142.79    9.20
  -5   3   3  131.69    5.20
   5  -3   3  137.29    6.90
   3  -5  -3  143.19    6.60
  -3  -5   3  133.09    7.90
  -3  -5   3  139.49    8.30
   3   5   3  146.69    7.80
  -3   5  -3  136.09    8.30
  -5  -3  -3  126.59   12.20
  -5   3   3  134.59    8.40
  -3  -5   3  138.09    9.00
   5   3  -3  141.29    8.40
   3  -5  -3  129.89    6.90
   3   5   3  135.39    5.80
   5  -3   3  135.09    8.80
  -5  -4   3  287.07   12.00
  -4  -5  -3  284.67   15.30
   4   5  -3  302.47   10.70
   4   5  -3  292.57   13.00
  -5  -4   3  283.47   12.40
   5  -4  -3  264.57    9.50
   5  -4  -3  280.97    9.20
  -4  -5  -3  269.97   15.20
   5  -4  -3  293.27   13.40
  -5   4  -3  286.87   13.10
  -4   5   3  290.57   11.00
   4  -5   3  280.77   12.10
   4  -5   3  283.17    9.20
  -5  -4   3  255.37   11.90
   5   4   3  274.67   16.20
   4  -5   3  277.97   13.00
  -5   4  -3  255.47   13.90
   4   5   3  291.77   15.20
   5  -4   3  277.07   12.30
  -4   5  -3  308.97   14.10
   4   5   3  284.57   11.40
   5  -4   3  276.17   10.00
  -5   4   3  288.77    9.70
  -4   5  -3  288.87   14.10
   4  -5  -3  283.37    9.70
   4  -5  -3  270.77   10.10
  -4  -5   3  307.87   12.40
   5   4  -3  279.67   13.30
   4   5   3  275.17    8.70
  -5  -4  -3  278.57   15.90
   5   4  -3  294.67   11.20
  -4  -5   3  276.37   12.10
   5  -4   3  290.27   13.30
  -4  -5   3  279.07   11.50
  -5   4   3  314.47   13.10
  -5   5  -3  200.48   11.80
  -5  -5  -3  191.08   13.10
   5  -5  -3  182.08    8.30
   5   5  -3  188.58    9.00
   5  -5   3  177.88    7.80
  -5   5   3  185.68   10.00
  -5  -5   3  198.98   10.50
   5  -5   3  137.09   14.50
  -5   5  -3  192.58   11.00
  -5  -5  -3  154.98   19.70
  -5  -5   3  196.58    9.80
   5   5   3  192.18    9.50
   5  -5   3  204.48   11.40
   5  -5  -3  189.88    7.80
  -5  -5   3  190.78   10.40
  -5   5   3  193.18    8.60
   5   5   3  188.88   15.00
   0  -6   3 1276.57   35.70
   0   6   3 1288.87   35.20
   0   6   3 1338.27   37.50
  -6   0  -3 1304.47   34.40
   0   6  -3 1332.67   38.40
   6   0   3 1276.27   36.80
   6   0   3 1261.17   34.90
  -6   0  -3 1298.07   40.10
  -6   0   3 1334.87   36.40
   0  -6  -3 1292.07   35.90
  -6   0   3 1226.58   33.20
   0  -6   3 1260.87   36.10
   0   6  -3 1387.26   37.00
   6   0   3 1232.48   40.10
   0  -6  -3 1283.47   36.40
  -6   0   3 1208.98   33.50
   6   0  -3 1228.88   34.50
   0   6   3 1240.88   35.20
   6   0  -3 1287.27   36.20
   6   1   3  171.18    8.70
   6   1   3  180.18   14.40
   1  -6   3  166.08    9.20
   1   6  -3  178.68    5.80
  -6   1  -3  164.78   16.00
  -1   6   3  188.38   10.90
   1  -6   3  169.58    9.80
  -6   1  -3  177.68    8.70
  -6  -1   3  171.78    8.00
  -6  -1   3  170.58    9.90
  -1  -6  -3  159.58   10.80
   6  -1  -3  175.48   10.60
  -6  -1   3  157.68    7.60
  -1  -6  -3  162.48    9.80
   1   6  -3  193.88   10.20
   1   6  -3  164.98   11.80
   6   1   3  169.58   11.60
  -1   6   3  168.18    8.60
  -1   6   3  177.08    8.50
  -1   6  -3  170.48   11.70
  -6   1   3  173.58    9.90
   6  -1   3  176.18    8.50
   1   6   3  170.78    8.40
   1  -6  -3  175.28    9.30
  -1  -6   3  171.98    9.40
  -6  -1  -3  178.28    7.10
  -6   1   3  174.28    6.10
  -6  -1  -3  179.38   14.80
   6   1  -3  170.18    9.40
  -6   1   3  155.78    6.10
   1   6   3  182.68    8.20
   1   6   3  184.98   11.80
  -6   1   3  152.18    6.00
   6  -1   3  167.58   10.20
  -1  -6   3  172.08    8.70
   6   1  -3  180.08   10.10
  -1   6  -3  174.78    9.40
  -6   2  -3   97.89    8.50
  -6   2  -3  108.19   15.10
  -2   6   3  115.49    8.90
  -2  -6  -3  116.09   10.50
  -6  -2   3  114.79    8.60
  -2  -6  -3  108.29    9.70
   2  -6   3  113.19    8.80
  -2   6   3  111.29    7.20
   2  -6   3  138.69   10.60
  -6  -2   3  104.29    7.20
  -6  -2   3  100.19    7.40
   6   2   3  114.89   14.40
   2   6  -3  100.89    8.90
   2   6  -3  115.29    5.20
  -2   6   3  109.59    7.70
  -6   2  -3  118.39    9.60
  -6  -2  -3   87.89   13.10
  -6   2   3  112.29   10.30
  -6  -2  -3   95.99   12.00
   2  -6  -3  101.99    7.50
  -2  -6   3  102.99    7.20
  -6  -2  -3  104.29    5.40
  -2  -6   3  107.69    8.20
   6  -2   3  111.49    7.20
   2   6   3  121.39   11.10
   2  -6  -3  105.29    6.90
   2   6   3   99.59    7.00
   2   6   3  111.99    6.40
   6   2  -3  114.79    9.10
  -2   6  -3  113.79    8.00
  -2  -6   3  111.79    9.00
   6  -2   3  101.89    8.50
   6   2  -3  118.39    9.10
  -3   6   3   53.59    6.10
   6  -3  -3   41.60    4.00
  -3  -6  -3   38.00    6.70
   3   6  -3   43.10    4.50
   6  -3  -3   44.70    7.00
   6   3   3   35.40    8.80
  -6   3  -3   67.19   11.70
   6   3   3   49.30    5.80
  -3   6   3   58.89    9.90
   3   6  -3   39.40    6.30
  -3  -6  -3   45.00    7.40
   3  -6   3   28.90    5.40
  -6  -3   3   49.60    6.80
   3  -6   3   39.10    3.20
  -6   3  -3   43.50    6.20
  -6  -3   3   45.50    5.60
   3  -6   3   41.10    6.80
  -3   6   3   43.30    7.00
  -6  -3   3   44.20    7.20
   3  -6  -3   34.70    5.20
   6  -3   3   47.70    7.50
   6  -3   3   41.70    5.70
   3   6   3   36.30    8.00
  -3   6  -3   43.90    6.30
   3  -6  -3   35.20    5.40
  -3  -6   3   52.29    7.90
  -3   6  -3   44.90    7.30
  -6  -3  -3   50.99    9.40
  -6   3   3   31.70    5.60
   3   6   3   41.10    5.90
  -6   3   3   46.30    6.50
  -6  -3  -3   47.40    9.30
   3   6   3   51.29    4.80
   6   3  -3   36.40    6.50
  -6   3   3   31.20    3.20
   6   3  -3   51.79    7.30
  -3  -6   3   42.50    6.70
   4  -6   3  234.18   12.20
  -6   4  -3  251.57   12.60
  -6  -4   3  240.58   11.10
  -6  -4   3  250.37   12.00
   4  -6   3  228.58   11.50
   4   6  -3  255.47    9.80
   6  -4  -3  230.98    8.60
   6   4   3  233.48   11.00
   6   4   3  248.98   16.20
  -4  -6  -3  239.58   13.50
  -4   6   3  250.97   11.20
  -6  -4   3  248.58   11.90
   4   6  -3  259.87   12.90
   6  -4  -3  242.68   12.80
  -4  -6  -3  257.37   14.70
  -4   6   3  261.47   11.80
   4  -6   3  235.48    8.30
  -4  -6   3  254.37   11.80
   4  -6  -3  244.38   10.10
  -4   6  -3  247.88   13.30
  -4  -6   3  244.78   11.10
   4   6   3  234.88   15.40
   6   4  -3  260.27   13.20
   4  -6  -3  247.48    9.50
  -4   6  -3  255.07   12.00
   6   4  -3  245.48   11.00
   6  -4   3  223.88    9.90
  -6  -4  -3  250.37   15.00
  -6   4   3  260.77   11.90
   4   6   3  237.58    8.90
  -4  -6   3  232.38   14.10
  -6   4   3  249.18    8.80
   4   6   3  242.88   10.90
   5  -6   3  230.68    8.90
  -5   6   3  228.38   10.40
   5   6  -3  226.18   10.00
   6  -5  -3  230.98   12.60
   5  -6   3  221.48   11.60
  -6  -5   3  242.28   12.30
   6   5   3  220.88   10.80
   6   5   3  218.98   15.90
   6  -5  -3  229.98    9.00
  -5  -6  -3  226.58   13.80
   6  -5  -3  233.58    9.60
  -5   6   3  229.28   11.80
  -6   5  -3  232.28   12.40
   5  -6   3  223.88   18.80
  -5  -6  -3  239.78   14.20
   5   6  -3  237.28   13.60
  -6   5  -3  233.78   12.30
  -6  -5   3  252.47   12.40
  -6  -5   3  233.48   12.50
  -6   5   3  228.68    9.50
   5   6   3  210.28    8.50
  -5   6  -3  238.78   12.20
  -6   5   3  244.88   12.00
   6  -5   3  240.48    9.60
   5   6   3  225.28   15.00
  -5  -6   3  227.68   11.00
  -5  -6   3  223.38   12.70
   5  -6  -3  220.18    9.90
  -6  -5  -3  232.28   14.40
  -6  -5  -3  255.27   15.80
  -5  -6   3  229.08   12.00
   6   5  -3  245.78   13.80
   6  -5   3  225.28   13.10
  -5   6  -3  234.28   13.00
   6  -5   3  239.18   12.10
   5   6   3  225.18   10.90
   5  -6  -3  261.07   12.70
   5  -6  -3  230.78    9.40
   6   6   3  163.38   15.70
   6  -6  -3  175.58    9.00
  -6  -6  -3  190.78   14.20
   6  -6   3  185.88   11.80
  -6   6   3  167.88    9.10
  -6  -6   3  165.58   10.90
   6  -6   3  174.08    8.60
  -6  -6  -3  161.28   13.20
   6   6   3  179.48    9.90
  -6   6   3  177.78   11.10
   6   6  -3  165.18    9.20
   6  -6  -3  157.78   11.50
  -6   6  -3  174.58   11.70
   6  -6  -3  176.58    8.50
  -6  -6   3  168.98   10.40
   6   6  -3  186.58   12.70
  -6  -6   3  169.78   10.90
   6  -6   3  171.78   11.00
   6   6   3  156.48    7.30
   0  -7  -3  632.74   20.50
  -7   0  -3  639.24   18.80
   0   7  -3  641.74   22.70
  -7   0  -3  642.04   25.20
  -7   0   3  580.64   18.20
   7   0   3  625.54   25.80
   0   7  -3  627.54   21.00
  -7   0   3  641.74   21.40
  -7   0   3  598.84   18.00
   7   0  -3  616.94   19.90
   0   7   3  654.33   22.50
   0   7   3  630.54   19.90
   0  -7   3  633.24   20.40
   0   7   3  610.64   19.50
   7   0   3  635.34   19.70
   7   0  -3  643.34   21.00
   0  -7  -3  604.54   21.00
   7   0   3  623.34   24.80
  -7   1  -3  105.29    7.80
  -7   1  -3  102.09   14.70
   7   1   3   99.19   14.30
   7  -1  -3  115.39    9.70
  -1   7   3  113.79    7.30
   1   7  -3   97.69   11.00
  -1  -7  -3  108.89   10.00
  -1  -7  -3  108.99    8.90
   7   1   3   99.19    7.60
  -1   7   3  109.19   10.80
  -1   7   3  101.09    7.60
  -7  -1   3   93.59    7.30
   1   7  -3   99.59    4.40
  -7  -1   3   94.09    7.40
   1  -7   3  101.19    7.80
   1   7  -3  121.69    9.20
   7  -1   3   92.59    9.40
   1   7   3   93.59    6.90
  -7   1   3   94.99    8.80
  -7   1   3   97.39    6.20
  -7   1   3   88.69    5.90
  -1   7  -3   97.19   10.50
  -7   1   3   94.49    5.50
   1   7   3  104.49    7.20
   7   1  -3   97.29    9.40
  -7  -1  -3   95.59    6.40
   7   1  -3   98.49    9.10
   1  -7  -3  106.89    7.80
   1   7   3  105.89   10.90
  -1  -7   3  103.59    7.80
  -1   7  -3  109.29    8.90
   1  -7  -3   91.79    8.10
  -7  -1  -3   93.79   14.00
  -2  -7  -3   88.39    9.30
  -2   7   3   84.89    6.80
  -2   7   3   89.29    8.40
   7  -2  -3   89.59   10.00
   2  -7   3   81.39    7.70
   7   2   3   86.19   14.10
  -7   2  -3   83.09    8.20
  -7  -2   3   77.99    7.60
   2   7  -3   87.19    4.80
  -7   2  -3   81.99    9.70
   7   2   3   78.39    7.10
   2   7  -3   83.69    8.30
  -7  -2   3   85.89    7.90
  -7   2  -3   92.09   15.00
   2  -7   3   78.39    8.40
  -7  -2  -3   78.09   10.40
   7  -2   3   86.99    7.20
  -7   2   3   90.99    6.70
   2   7   3   81.89    6.70
   7  -2   3  101.29   13.80
   2   7   3   87.09    6.60
   2  -7  -3   89.09    7.80
  -7   2   3   80.19    5.40
  -2   7  -3   93.39    8.50
   7   2  -3   91.89    8.90
   2  -7  -3   81.09    7.10
  -2  -7   3   94.59    8.00
  -2   7  -3   94.99   10.30
   7   2  -3   98.39    9.60
  -7   2   3   87.19    8.50
  -2  -7   3   74.99    7.10
  -7   2   3   75.39    4.40
  -7  -2  -3   89.89    5.90
  -7  -2  -3   86.19   13.50
   2   7   3   92.39   10.70
  -7   3  -3   27.70   10.00
  -3  -7  -3   24.10    7.50
  -3   7   3   33.70    6.10
   3   7  -3   33.00    6.50
   7  -3  -3   26.70    6.90
   3  -7   3   28.90    6.00
   7   3   3   29.10    5.30
  -7   3  -3   15.40    6.30
   3  -7   3   29.10    5.80
  -3   7   3   24.90    4.90
   7   3   3   27.10    8.70
  -7   3  -3   26.70    5.70
  -3  -7  -3   29.80    7.00
  -7  -3   3   27.10    7.20
  -3   7   3   23.90    5.50
   3   7  -3   28.50    3.70
  -7  -3   3   23.20    5.70
  -7  -3   3   25.90    7.40
   3  -7  -3   30.00    4.70
   7  -3   3   23.90    4.70
  -3  -7   3   25.80    5.60
  -3   7  -3   24.80    6.80
  -7   3   3   24.90    4.30
   3   7   3   21.00    4.20
  -7  -3  -3   31.20    4.00
  -7   3   3   18.00    6.20
  -3  -7   3   26.10    5.50
  -3  -7   3   18.20    5.80
   3  -7  -3   23.90    4.70
  -7  -3  -3   35.30    9.30
   7  -3   3   13.70    5.20
   7   3  -3   16.20    6.80
   3   7   3   32.40    5.30
  -3   7  -3   25.60    5.90
  -7  -3  -3   27.50    9.60
  -7   3   3   18.70    3.40
   7   3  -3   33.10    6.20
  -7  -4   3  150.08    9.50
  -7   4  -3  138.19   10.40
   4  -7   3  148.19    6.30
  -4   7   3  144.49   10.00
   7   4   3  153.38    9.20
   7  -4  -3  134.69    7.00
  -7  -4   3  159.38   10.50
  -7   4  -3  140.39   10.80
  -7   4  -3  169.88   19.10
   4  -7   3  150.58   10.10
  -4  -7  -3  148.59   11.80
  -7  -4   3  148.89   10.30
   7   4   3  181.38   19.70
   7  -4  -3  150.28   10.80
   4   7  -3  123.49    7.90
  -4   7   3  155.28   10.00
   4  -7   3  138.69   10.30
  -4  -7  -3  151.28   12.10
  -4  -7   3  141.69    9.20
  -7   4   3  139.29   10.30
   7   4  -3  129.59   11.80
  -7   4   3  144.69   10.10
  -4   7  -3  133.89   10.80
   4  -7  -3  144.29    8.60
   7   4  -3  147.99    9.40
   7  -4   3  142.89    8.40
   4  -7  -3  146.59    7.90
  -7  -4  -3  120.39   14.20
  -7  -4  -3  165.08   14.20
   4   7   3  120.99   12.60
   7  -4   3  156.48   10.20
  -4  -7   3  141.99   10.60
   4   7   3  152.38    8.90
   4   7   3  143.59    7.50
  -7   4   3  131.69    6.40
  -4  -7   3  135.29    9.60
  -5   7   3  123.49    9.80
   7   5   3  109.49   15.30
  -7  -5   3  122.89   10.40
  -7  -5   3  129.29   10.20
   5  -7   3  112.29    6.60
  -7   5  -3  111.29   10.30
   5   7  -3  122.59   11.90
   5  -7   3  119.59   10.20
   7  -5  -3  107.89    7.30
  -5  -7  -3  129.29   12.20
  -7   5  -3  102.09   11.60
  -7  -5   3  123.59    9.70
  -5   7   3  133.89    9.30
   5  -7   3  116.39    9.70
   7   5   3  116.69    9.00
  -5  -7  -3   98.29   12.60
   7  -5  -3  104.59   10.80
   5   7  -3  122.79    7.60
   5   7   3  104.49    7.10
   7  -5   3  124.19   10.50
  -5   7  -3  119.79    9.80
   7  -5   3  117.19    8.00
  -5  -7   3  113.09   10.20
   5  -7  -3  116.09    8.30
  -7   5   3  118.19    7.00
  -5  -7   3  122.49    9.60
  -5   7  -3  114.19   10.90
   7   5  -3  127.29    9.10
   5   7   3  127.29   14.50
  -7   5   3  119.69    9.60
  -7  -5  -3  147.59   13.70
   7   5  -3  117.19   11.80
  -7  -5  -3  110.49   12.60
   5  -7  -3  116.89   10.50
   5   7   3  125.49    8.90
  -5  -7   3  120.49    9.80
  -7  -6   3   97.79   10.20
   7  -6  -3   96.49   11.00
   7  -6  -3   81.69    7.40
   6  -7   3   90.59   10.00
  -7   6  -3   91.69   10.20
   6   7  -3  119.29   12.00
  -7  -6   3   94.39    9.80
   6  -7   3   89.09    7.00
  -6   7   3   92.09    9.20
   6  -7   3   83.99   10.50
   7  -6  -3   95.49    8.10
  -7   6  -3   79.19    9.80
   7   6   3   84.09   13.30
  -6  -7  -3  104.19   12.50
  -6   7   3   90.99    8.70
  -7  -6   3  103.99   10.30
   6   7  -3   97.89    7.50
  -6  -7  -3   89.29   13.10
   7   6   3  108.69    8.70
  -7  -6  -3   97.89   13.90
  -7   6   3   84.79    7.80
  -6  -7   3   91.49    9.40
   7   6  -3   85.69    8.30
   7  -6   3   81.59   10.50
  -6  -7   3   77.79    9.90
   7   6  -3   83.49   14.00
   6   7   3   82.29    6.70
   6   7   3   87.89    8.40
   6   7   3   86.89   14.90
   7  -6   3   84.59   10.10
  -7  -6  -3  100.19   12.30
   7  -6   3   87.09    7.80
  -6  -7   3   88.59    9.80
  -6   7  -3  100.69   10.00
   6  -7  -3   87.09   10.60
   6  -7  -3   74.69    7.80
  -7   6   3   79.69    9.20
  -6   7  -3   84.19   10.00
   7  -7   3   36.40    5.80
   7   7  -3   40.80    6.30
   7   7   3   27.70   10.40
   7   7  -3   25.30    8.80
   7  -7   3   34.30    8.10
   7  -7  -3   29.60    5.80
  -7   7   3   33.30    6.20
   7   7   3   22.00    5.90
   7  -7  -3   30.80    7.90
  -7  -7   3   26.80    7.50
  -7  -7   3   20.30    7.30
  -7  -7  -3   34.30    9.20
  -7  -7  -3   26.30    8.30
  -7   7  -3   31.30    7.40
   7  -7   3   25.90    7.40
  -7   7   3   24.70    6.20
   7  -7  -3   28.80    7.50
   7   7   3   27.20    5.60
  -7   7  -3   33.20    7.40
  -7  -7   3   36.20    7.40
  -8   0   3  473.65   15.80
   0   8   3  481.55   17.20
   0  -8   3  492.65   17.50
   8   0  -3  461.65   18.30
  -8   0   3  488.35   18.20
  -8   0   3  472.35   15.80
   8   0   3  485.95   16.90
   8   0   3  485.95   19.20
   0  -8   3  503.55   18.00
   0  -8  -3  489.55   17.40
   0   8   3  494.45   19.90
   0  -8  -3  516.55   18.50
   8   0   3  478.55   24.10
   8   0  -3  494.05   18.30
  -8   0  -3  481.75   16.10
   0   8  -3  485.45   20.00
   0   8  -3  512.35   18.40
  -8   0  -3  452.35   30.20
  -8   1  -3   92.89    7.90
  -1   8   3   92.39    8.10
  -1  -8  -3   88.79   10.10
  -1   8   3  106.39    8.60
   1  -8   3  103.29    8.20
  -8   1  -3   92.29   15.70
  -8  -1   3  102.89    8.30
   8   1   3  100.19   16.00
   1  -8   3   99.99    8.90
  -1  -8  -3   90.79    9.40
  -8  -1   3   94.49    8.30
  -1   8   3   93.69   10.10
   8   1   3  105.09    8.50
   1   8  -3   87.99    4.40
   1   8  -3   98.59   11.00
   1   8  -3  100.09    9.70
   8  -1  -3   97.69   10.30
  -8  -1   3   78.69    9.10
  -8   1   3   91.89    9.60
   8  -1   3  105.49   10.30
  -8   1   3   82.39    6.90
  -1  -8   3   95.09    7.80
  -8   1   3  103.29    6.40
   1  -8  -3   98.19    8.80
   1   8   3   84.79    7.20
  -1   8  -3   99.09    8.90
   8  -1   3   86.59    7.80
   1   8   3   98.29    7.90
   8   1  -3   93.29    9.50
  -8  -1  -3  106.39   15.30
   8   1  -3   92.89   10.00
  -1  -8   3   82.19    8.20
  -1   8  -3   91.69   10.70
   1  -8  -3  111.49    8.10
  -8   1   3   79.69    7.30
  -8  -1  -3  100.39    7.30
   2  -8   3   75.99    7.90
  -8  -2   3   75.89    8.60
  -8   2  -3   81.19   10.60
  -8   2  -3   77.09   14.50
  -2  -8  -3   87.49   10.00
   2   8  -3   83.39    5.10
   2  -8   3   87.79    8.60
   2   8  -3   98.29   11.90
  -8   2  -3   93.29    8.80
  -2   8   3   90.59    9.40
   8   2   3   86.09    8.10
  -2  -8  -3   94.59   10.50
  -8  -2   3   83.29    9.50
   2   8  -3   94.49    9.50
  -8  -2   3  104.99    8.80
   8  -2  -3   79.29    9.60
  -2   8   3   88.99    8.10
  -8   2   3   61.99    9.30
   8  -2   3   71.29    7.70
   8   2  -3   75.99    8.80
   2   8   3   63.09    8.30
  -8  -2  -3   85.39   12.10
  -8   2   3   74.89    5.30
  -2   8  -3   82.99   10.90
  -8   2   3   84.99    9.40
  -8  -2  -3   85.19   11.80
   8  -2   3   75.59    9.70
  -2  -8   3   93.39    8.40
   2  -8  -3   78.69    7.40
   2   8   3   82.59   11.70
   2   8   3   88.89    7.00
  -8   2   3   78.09    6.40
  -2   8  -3   70.59    8.60
  -2  -8   3   80.99    7.60
   8   2  -3   80.09   10.80
   2  -8  -3   96.89    8.30
  -8  -2  -3   77.29    7.00
  -3   8   3    6.60    4.90
  -8  -3   3    7.90    5.80
  -8  -3   3   10.30    6.10
   8  -3  -3    6.60    7.00
   3  -8   3    8.00    5.40
   8   3   3   12.40    5.10
   3  -8   3    7.10    5.10
   8   3   3    4.20    8.20
  -8   3  -3   15.20    5.70
  -3  -8  -3    3.80    6.40
   3   8  -3    2.80    5.30
  -3  -8  -3   10.40    6.30
  -3   8   3   10.70    5.80
  -8   3  -3   11.70    6.30
  -8  -3   3    8.20    6.00
  -3   8   3    9.90    4.40
   3   8  -3    7.40    3.20
  -8   3   3    9.90    4.50
  -3   8  -3   15.20    6.40
  -3  -8   3   10.30    4.90
  -8  -3  -3   16.60    4.40
   8  -3   3    3.60    4.60
  -8  -3  -3   21.70    9.10
   3   8   3    0.80    4.20
   8  -3   3    1.60    5.60
  -8  -3  -3    9.90    9.30
  -3   8  -3    2.60    5.10
   8   3  -3    3.50    7.00
   8   3  -3    1.50    5.50
  -3  -8   3    5.70    4.40
   3   8   3    3.00    3.80
   3   8   3   -1.30    6.90
   3  -8  -3   15.30    5.70
  -8   3   3   10.50    2.90
  -8   3   3    7.20    5.90
   3  -8  -3   12.20    4.60
   4  -8   3   67.09    8.30
   4   8  -3   68.79    6.30
  -4  -8  -3   86.19   10.50
   8  -4  -3   83.79    6.80
  -4   8   3   90.69   10.90
  -8  -4   3   60.49    9.40
   8   4   3   75.59    8.10
  -4  -8  -3   77.29   10.80
   4  -8   3   76.79    4.90
   8   4   3   66.09   10.90
   8  -4  -3   86.39   10.60
  -4   8   3   75.89    8.80
   4  -8   3   73.09    9.10
  -8  -4   3   79.09    9.90
  -8   4  -3   84.09    9.40
  -4   8   3   65.69    8.60
  -8   4  -3   62.69   12.80
  -8  -4   3   67.49    9.70
   4   8  -3   73.19   10.30
   8   4  -3   73.49   10.10
   8  -4   3   68.79    9.80
  -4   8  -3   77.99   10.20
  -8   4   3   64.59    5.40
   4   8   3   76.99    7.80
  -8  -4  -3   88.59   14.30
   4  -8  -3   78.39    7.10
  -8  -4  -3   76.49    6.20
   8   4  -3   66.89    8.40
  -4   8  -3   77.19    8.70
  -4  -8   3   67.89    7.80
   4   8   3   70.59    7.10
   4  -8  -3   64.89    7.60
   4   8   3   72.49   13.10
  -8  -4  -3   77.59   16.20
  -8   4   3   76.49    9.20
  -8   4   3   54.29    8.60
  -4  -8   3   65.79    8.40
   8  -4   3   56.69    7.20
  -8  -5   3   69.79    9.60
   8   5   3   85.49   15.40
  -5   8   3   85.59    9.60
   5   8  -3  102.39   11.70
   8  -5  -3   77.89   11.10
   8  -5  -3   79.99    7.50
  -8  -5   3   70.59   10.30
   5  -8   3   80.79    9.10
   5  -8   3  101.29   10.50
   8   5   3   85.09    8.80
  -8  -5   3   97.19   10.40
  -8   5  -3   94.89   15.70
  -8   5  -3   96.99   10.10
   5  -8   3   88.29    6.50
  -8   5  -3   85.09   11.30
  -5  -8  -3   83.79   12.50
  -5  -8  -3   82.09   11.60
   5   8  -3   76.39    7.00
  -5  -8   3   87.29    9.50
  -8   5   3   84.59   12.60
  -5   8  -3   88.59   10.70
   8   5  -3   83.19    8.90
  -8  -5  -3   96.89   13.80
  -8  -5  -3   82.79   14.40
  -5  -8   3   76.99    9.00
  -5  -8   3   93.39   10.70
  -8   5   3   92.79    9.70
   8  -5   3   86.09   10.60
  -8   5   3   80.29    6.60
   8   5  -3  107.39   13.50
   5  -8  -3   74.49    8.10
  -5   8  -3   82.39    9.50
   8  -5   3   82.99    8.10
   5   8   3   90.19   14.60
   5   8   3   76.49    7.30
   5  -8  -3   76.59    7.40
   5  -8  -3   82.29   10.10
   5   8   3   91.39    8.20
  -6  -8  -3   52.29   10.20
  -6   8   3   31.20    7.50
  -8  -6   3   32.10    7.80
   6  -8   3   34.20    7.50
   6  -8   3   45.80    7.30
  -8  -6   3   44.70    8.20
   8  -6  -3   43.80    8.70
  -8   6  -3   31.30    7.70
   6   8  -3   29.70    5.30
   8   6   3   45.10   11.40
   6  -8   3   43.20    5.70
  -8   6  -3   43.60   13.60
   8  -6  -3   43.40    6.10
  -8   6  -3   37.00    7.30
  -8  -6   3   34.20    7.70
  -6  -8  -3   49.40   10.30
   8   6   3   40.70    7.00
   6   8  -3   36.30    9.10
  -6   8   3   41.00    7.40
  -8  -6  -3   27.50    8.90
   8   6  -3   30.10    9.40
  -6  -8   3   45.30    7.70
   6   8   3   24.80   10.40
   6   8   3   36.30    6.40
  -8  -6  -3   32.40    9.10
  -6   8  -3   32.40    7.20
   8  -6   3   38.70    7.70
  -8   6   3   24.30    6.60
  -6  -8   3   49.90    8.80
   6   8   3   37.20    5.60
  -6  -8   3   37.40    7.30
   8   6  -3   45.80    6.70
   6  -8  -3   44.20    7.20
   8  -6   3   45.80    6.60
   6  -8  -3   41.60    6.30
  -8   6   3   34.30    5.80
   6  -8  -3   43.40    8.30
  -6   8  -3   32.70    7.10
  -7   8   3   35.20    7.10
  -8  -7   3   59.49    9.00
   8  -7  -3   51.09    7.60
  -8   7  -3   37.10    7.90
  -7   8   3   46.80    8.20
   7   8  -3   36.20   10.20
   8   7   3   45.60    7.10
  -7  -8  -3   60.19   10.70
   7  -8   3   53.69    6.80
   7  -8   3   45.90    8.50
  -8   7  -3   37.40    7.60
  -7  -8  -3   43.40   10.50
   8  -7  -3   43.40    9.80
   8  -7  -3   63.39    9.60
  -8  -7   3   36.30    8.10
   7  -8   3   43.70    8.30
  -8  -7   3   38.00    8.20
   7   8  -3   35.00    6.00
   8   7   3   46.00   12.40
  -8  -7  -3   41.20    9.90
  -8   7   3   39.70    6.70
   8   7  -3   57.99    7.80
   8  -7   3   38.70    7.70
   8   7  -3   47.50   10.50
  -8   7   3   47.70    8.00
   7  -8  -3   63.69    9.40
   7   8   3   60.59    8.50
  -8  -7  -3   49.30   11.10
   8  -7   3   52.99    8.40
  -7   8  -3   54.89    8.10
  -7  -8   3   39.50    8.60
  -7  -8   3   52.69    8.50
   7   8   3   55.39   11.40
  -7  -8   3   50.49    8.20
   7  -8  -3   36.80    6.70
  -7   8  -3   42.30    8.10
   7   8   3   50.89    7.90
   7  -8  -3   46.40    6.80
   8  -8  -3   47.50    9.40
  -8   8  -3   43.60    8.20
  -8   8  -3   33.70    8.70
  -8  -8  -3   50.69   10.10
  -8  -8   3   50.59    9.20
  -8   8   3   36.90    7.40
   8  -8  -3   43.50    7.50
  -8  -8   3   41.80    8.50
   8   8  -3   35.70    6.60
   8  -8  -3   48.90    7.30
   8   8  -3   55.99   11.40
  -8  -8   3   51.59    9.60
   8   8   3   19.40   11.50
   8   8   3   53.59    8.00
   8  -8   3   35.50    9.00
   8  -8   3   42.40    8.80
  -8  -8  -3   28.00    9.70
  -8   8   3   37.40    7.30
   0   9  -3  521.45   21.10
  -9   0   3  475.15   17.20
   0   9   3  487.85   17.30
   0   9  -3  503.05   19.20
   0  -9   3  505.95   18.70
  -9   0  -3  511.45   24.10
   0  -9   3  493.25   18.20
   9   0  -3  510.35   19.30
  -9   0  -3  515.05   17.30
   0  -9  -3  510.05   18.40
   9   0   3  456.95   30.80
   0   9   3  505.65   18.20
   0  -9  -3  509.55   19.00
  -9   0   3  494.25   19.20
   9   0  -3  492.15   20.40
   9   0   3  481.15   17.80
   0   9   3  525.75   21.40
  -9   0   3  466.15   17.00
  -9  -1   3  205.68   11.60
   9  -1  -3  235.78   13.00
  -1  -9  -3  238.28   13.20
   1  -9   3  220.58   11.80
  -9   1  -3  237.78   16.90
  -9   1  -3  231.88   11.30
  -9  -1   3  222.28   13.20
  -1   9   3  219.68   10.60
  -1   9   3  246.08   14.00
   1   9  -3  240.78   14.90
   9   1   3  208.18   19.30
  -1   9   3  226.68   11.60
   1   9  -3  227.08   13.10
  -9  -1   3  212.08   11.70
   1  -9   3  229.78   11.80
   9   1   3  222.38   11.30
  -1  -9  -3  230.28   12.50
  -9   1  -3  239.08   19.10
   1   9  -3  229.18    7.80
  -9   1   3  206.08   10.70
  -1   9  -3  233.08   14.50
  -9   1   3  217.88   10.00
   1   9   3  229.78   10.80
   1   9   3  221.78   14.90
  -1  -9   3  233.28   11.70
  -9  -1  -3  205.48   10.80
   9  -1   3  214.58   11.20
  -9   1   3  199.48   10.50
   9   1  -3  212.88   14.60
  -1  -9   3  225.58   11.80
   9   1  -3  209.58   12.90
   9  -1   3  219.68   14.80
  -9  -1  -3  228.68   18.70
  -1   9  -3  238.88   12.90
  -9  -1  -3  246.98   18.20
  -9   1   3  233.38   13.20
   1  -9  -3  223.18   12.20
   1  -9  -3  213.38   11.60
   9  -2  -3  154.68   12.00
  -2  -9  -3  165.78   11.80
  -2  -9  -3  155.18   12.60
  -9  -2   3  150.68   12.00
   2   9  -3  169.08   13.80
   9   2   3  192.08   18.40
  -2   9   3  155.88   10.30
   2  -9   3  149.19   10.20
  -9  -2   3  138.49   10.80
   9   2   3  144.29    9.80
  -9   2  -3  161.28   10.30
  -9   2  -3  137.69   13.30
  -2   9   3  174.68   19.50
  -9   2  -3  145.49   19.00
   2   9  -3  176.68   12.10
   2  -9   3  160.88   11.00
   2   9  -3  159.78    7.10
  -2   9   3  147.39    9.30
   9   2  -3  162.08   11.70
  -9   2   3  152.18    7.80
   9  -2   3  158.08   10.20
  -2   9  -3  151.98   10.90
  -9  -2  -3  169.78   16.30
   2   9   3  160.68    9.70
  -2  -9   3  164.28    9.70
  -9   2   3  147.79    8.90
   9   2  -3  154.18   13.90
   2   9   3  142.79    9.10
   2   9   3  165.88   14.10
   2  -9  -3  163.28   10.20
  -9  -2  -3  165.48   16.60
  -9  -2  -3  154.48    9.40
   2  -9  -3  144.69    9.40
   9  -2   3  152.38   12.10
  -9   2   3  144.79   11.50
  -2   9  -3  155.48   12.80
  -2  -9   3  147.09   10.30
  -9   2   3  133.69   14.10
   9  -3  -3   71.19    9.20
   3   9  -3   63.79   10.50
  -3  -9  -3   67.49    9.40
  -3   9   3   56.29    9.90
   3   9  -3   72.59    5.90
  -3   9   3   57.59    7.80
   3  -9   3   52.69    8.30
  -9   3  -3   52.59   13.10
  -9  -3   3   56.59    8.70
  -9   3  -3   54.69    8.60
  -3   9   3   67.89    8.80
   9   3   3   54.09    7.40
  -3  -9  -3   77.79    9.80
   3   9  -3   55.39    9.80
  -9   3  -3   70.69    9.70
   9   3   3   62.49   11.70
  -9  -3   3   80.29   10.40
   3  -9   3   57.69    9.30
  -9  -3   3   65.79    9.90
   3   9   3   49.40    7.70
  -3  -9   3   57.29    7.90
  -9   3   3   65.79    8.20
  -9   3   3   55.29    9.20
   9   3  -3   62.19    8.00
  -9  -3  -3   54.99    7.60
   9  -3   3   73.99   10.90
   3   9   3   68.39    7.50
  -3   9  -3   64.69    9.90
   3  -9  -3   67.89    8.20
  -3  -9   3   58.49    7.80
   9  -3   3   61.79    8.40
   3   9   3   64.19   10.10
   9   3  -3   62.69    9.70
  -9  -3  -3   55.39   11.50
  -9   3   3   58.09    5.60
   3  -9  -3   54.09    7.30
  -3   9  -3   63.99    9.50
  -9  -3  -3   66.19   11.30
   9   4   3  203.68   18.60
   4  -9   3  224.88   13.10
  -9   4  -3  212.28   21.80
   4   9  -3  194.88   14.00
   9   4   3  205.18   11.80
  -9  -4   3  202.68   13.40
  -9   4  -3  217.58   12.80
  -9  -4   3  206.28   13.60
  -4   9   3  214.18   12.20
  -4  -9  -3  198.88   13.70
   4   9  -3  206.48    9.50
  -9   4  -3  210.18   13.50
  -9  -4   3  206.08   12.70
   9  -4  -3  209.58   13.60
  -4  -9  -3  199.98   14.10
   4  -9   3  222.68   12.10
  -4   9   3  224.98   13.60
   4   9  -3  210.68   15.80
   9   4  -3  211.58   16.30
   4  -9  -3  203.78   12.00
   9  -4   3  186.48   11.30
   4  -9  -3  223.98   11.00
  -9   4   3  184.48   12.30
  -4  -9   3  180.88   11.50
   9  -4   3  201.08   13.30
  -9  -4  -3  214.58   17.80
   4   9   3  215.88   15.40
  -9   4   3  214.08   11.80
  -9  -4  -3  236.38   17.00
  -4  -9   3  193.88   11.60
   9   4  -3  200.68   11.90
  -9  -4  -3  152.48   12.40
  -9   4   3  188.18    8.40
   4   9   3  189.88   10.90
  -4   9  -3  208.68   12.40
  -4   9  -3  194.38   13.80
   9  -5  -3  213.08   13.30
  -9  -5   3  210.28   13.50
   5   9  -3  211.58   14.80
  -5   9   3  192.98   12.70
   9   5   3  164.38   18.30
   9  -5  -3  189.58   11.80
  -5  -9  -3  181.58   15.00
  -9  -5   3  211.78   13.60
  -9   5  -3  192.28   13.70
  -9  -5   3  183.58   13.30
   5  -9   3  190.08   12.20
   9   5   3  204.58   11.80
  -9   5  -3  202.18   23.40
  -5   9   3  191.28   13.50
  -5  -9  -3  194.08   14.30
   5  -9   3  211.38   13.50
  -9   5  -3  187.08   12.80
   9   5  -3  186.08   11.60
   9  -5   3  197.28   13.70
  -5  -9   3  204.78   11.70
   5  -9  -3  186.38   10.70
  -9  -5  -3  170.08   17.70
  -9   5   3  199.98   14.40
   5   9   3  194.18   17.40
   9  -5   3  210.78   11.90
   5   9   3  200.78   11.20
  -5  -9   3  182.88   12.10
  -9   5   3  191.48   12.60
  -5   9  -3  209.78   12.80
   5   9   3  205.58   10.90
   5  -9  -3  225.08   13.40
  -5   9  -3  188.18   13.80
  -9  -5  -3  176.98   16.20
   9   5  -3  159.68   26.70
  -9   5   3  181.28    9.10
   9   6   3  204.38   12.20
   9  -6  -3  206.78   11.60
  -6  -9  -3  217.78   16.60
   6  -9   3  205.68   13.40
  -9   6  -3  183.38   24.20
  -6   9   3  189.88   13.90
   6  -9   3  208.98   14.20
   9   6   3  220.68   20.20
  -6  -9  -3  206.48   15.20
  -9   6  -3  206.48   13.40
   9  -6  -3  210.78   14.40
  -9   6  -3  199.28   14.40
  -9  -6   3  226.68   15.30
  -6   9   3  207.28   13.10
   6   9  -3  211.68   10.90
  -9  -6   3  225.48   13.90
   6   9  -3  229.98   16.10
  -9  -6   3  223.68   13.90
   6   9   3  210.58   19.30
  -9   6   3  209.48   18.20
   9  -6   3  215.98   14.00
   9   6  -3  205.38   12.30
  -9   6   3  218.08   10.70
   6  -9  -3  193.48   13.80
   6   9   3  190.68   11.00
  -6   9  -3  201.48   12.90
   6  -9  -3  199.88   11.50
  -6   9  -3  192.48   13.70
  -9  -6  -3  196.18   16.60
  -6  -9   3  196.48   13.20
  -9  -6  -3  211.48   17.80
  -9   6   3  196.58   13.00
   6   9   3  209.58   12.00
  -6  -9   3  210.78   12.80
   9  -6   3  193.78   12.00
   6  -9  -3  181.58   13.00
   9   6  -3  227.78   19.30
   7   9  -3   90.89   14.80
  -9   7  -3  113.99   13.20
  -7  -9  -3  110.29   15.90
   7  -9   3  106.69   13.40
  -7  -9  -3  115.79   13.70
  -9  -7   3  106.49   12.70
  -7   9   3  102.09   11.40
  -9  -7   3  102.69   12.20
  -7   9   3  111.59   12.10
   7   9  -3  116.89    9.90
  -9   7  -3  116.69   11.50
   7  -9   3  116.39   12.30
   9   7   3  110.39   15.70
   7  -9   3  104.49    9.90
   9   7   3  123.19   10.80
  -9   7  -3   99.99   18.80
   9  -7  -3  109.09   13.10
   9  -7  -3   93.09   15.90
  -9  -7   3  118.99   12.90
   7   9   3  137.79   18.80
  -9   7   3  103.39   11.30
  -9  -7  -3  106.39   14.80
  -7   9  -3  105.99   11.80
   7  -9  -3   99.49   11.10
  -9   7   3  111.99   14.90
   9  -7   3  119.29   12.90
   9   7  -3  135.29   17.70
  -7  -9   3   94.69   12.70
  -7  -9   3  113.59   11.80
   9  -7   3  115.89   10.70
   7  -9  -3  106.29   10.50
  -7   9  -3  106.89   11.80
   7   9   3   89.89   10.00
  -9   7   3  101.69   10.40
  -9  -7  -3   97.29   13.60
  -7  -9   3  114.09   12.50
   9   7  -3  100.59   10.40
   7  -9  -3  110.79   12.60
  -9   8  -3   73.99   11.60
   8  -9   3   74.79   13.40
  -8   9   3   78.39   12.60
  -8   9   3   82.49   11.30
  -8  -9  -3   85.59   11.70
   9   8   3   65.09   14.60
   9   8   3   73.09   10.10
  -8  -9  -3   59.59   11.80
  -9  -8   3   76.49   13.00
   9  -8  -3   87.79   13.00
  -9   8  -3   87.09   13.20
   8   9  -3   77.49    9.90
   8   9  -3   98.79   17.50
   8  -9   3   87.99   10.40
   8  -9   3   83.09   12.90
  -9  -8   3   69.39   10.50
   9  -8  -3  114.19   12.30
  -9  -8   3   82.39   12.20
  -8   9  -3   81.79   11.90
  -9   8   3   61.99    9.70
   8   9   3   66.19   10.10
   9  -8   3   79.89   10.80
   8  -9  -3   91.19   11.50
  -8  -9   3   70.79   11.70
  -8  -9   3   71.69   12.70
   9   8  -3   79.89   13.60
  -9  -8  -3   57.99   11.70
   8   9   3   87.49   15.20
   9  -8   3   87.09   10.90
   9   8  -3   76.19    9.80
   8  -9  -3   98.89   11.10
  -8   9  -3   85.29   12.60
  -8  -9   3   83.39   13.50
   8  -9  -3   83.29   12.10
  -9  -8  -3   90.59   15.00
   9  -9   3  248.98   22.90
  -9   9   3  210.38   14.90
  -9   9  -3  233.48   19.10
  -9  -9   3  223.28   16.40
  -9  -9   3  241.98   16.90
   9  -9   3  242.08   16.60
  -9  -9   3  212.78   15.00
  -9   9  -3  191.38   16.20
   9  -9  -3  218.68   16.00
   9   9  -3  174.38   20.70
   9  -9  -3  195.78   16.50
   9   9   3  212.68   13.70
  -9   9   3  231.98   15.80
   9   9  -3  221.68   13.40
   9  -9  -3  237.38   15.60
   0  10  -3  471.45   19.40
   0  10   3  454.95   17.10
 -10   0   3  492.05   19.80
   0  10  -3  489.35   20.80
   0 -10  -3  481.85   18.40
   0  10   3  476.05   18.40
 -10   0  -3  514.75   24.80
  10   0  -3  477.35   19.20
   0 -10  -3  463.85   18.70
   0 -10   3  478.65   18.50
  10   0   3  474.95   17.90
 -10   0   3  467.05   17.90
  10   0  -3  452.15   21.20
   0 -10   3  449.56   17.80
   0  10   3  449.16   21.00
 -10   0  -3  471.55   17.60
  10   0   3  461.05   25.60
 -10   0   3  463.25   17.50
  -1  10   3  154.18    9.70
   1 -10   3  162.58   10.80
  10  -1  -3  176.58   13.40
  -1 -10  -3  152.78   11.60
 -10  -1   3  143.19   11.60
 -10   1  -3  138.79   14.60
  -1 -10  -3  153.98   11.10
   1 -10   3  149.79   10.90
   1  10  -3  165.78   12.10
 -10   1  -3  159.28   10.80
 -10   1  -3  138.29   19.90
  -1  10   3  144.89   13.30
   1  10  -3  162.78   13.80
  -1  10   3  152.68   10.60
 -10  -1   3  146.49   12.20
  10   1   3  183.38   10.90
 -10  -1   3  139.09   12.50
  10   1   3  170.78   21.40
  -1  10  -3  158.68   13.40
  10  -1   3  155.18   14.60
   1 -10  -3  157.38   10.60
   1  10   3  150.08    9.50
 -10   1   3  167.68   10.00
 -10  -1  -3  131.19   18.00
  10  -1   3  146.59   11.00
  10   1  -3  140.39   15.30
  -1 -10   3  154.28   10.80
   1  10   3  164.88   10.70
 -10   1   3  139.49   16.50
 -10  -1  -3  164.08   10.80
   1 -10  -3  171.78   11.40
  -1  10  -3  177.68   12.00
   1  10   3  149.88   14.40
  10   1  -3  145.99   12.10
  -1 -10   3  151.08   10.30
 -10   1   3  148.89   12.40
 -10  -1  -3  179.58   17.70
 -10   1   3  152.28   10.40
  -2 -10  -3   81.39   10.70
   2 -10   3   87.09    9.70
   2 -10   3   79.39    9.00
 -10   2  -3   79.19    9.70
   2  10  -3   93.49    6.20
 -10   2  -3   69.09   12.70
  10   2   3   88.89    9.60
  10  -2  -3   93.89   11.00
  -2  10   3   96.09   12.10
  -2  10   3   76.09    9.10
  -2 -10  -3   79.99   10.50
  10   2   3   50.19   12.00
 -10  -2   3   86.39   10.90
   2  10  -3   86.29   11.00
  -2  10   3   82.09    8.20
 -10  -2   3   96.49   11.50
 -10   2  -3  135.59   20.20
   2  10  -3   99.29   12.70
 -10  -2   3   72.89   11.30
 -10   2   3   94.19    7.90
   2  10   3   87.99    9.00
  -2 -10   3   76.19    8.60
   2 -10  -3   93.89    9.30
 -10  -2  -3   82.29    9.50
   2  10   3   83.49    8.10
 -10  -2  -3   90.69   14.20
   2 -10  -3   77.79    8.70
 -10   2   3   74.89    8.80
  10  -2   3   94.89   13.40
  -2  10  -3   79.49   10.10
  -2 -10   3   81.09    9.10
   2  10   3   89.89   13.80
  10   2  -3   87.29   14.50
 -10   2   3   81.19   10.80
 -10  -2  -3   85.39   13.30
  10   2  -3  103.19   10.40
  10  -2   3   79.49    9.70
  -2  10  -3   83.39   11.20
   3 -10   3   16.20    6.10
  -3 -10  -3   19.90    7.60
  10   3   3   22.10    6.20
  -3  10   3   17.90    7.80
  -3  10   3   21.90    6.00
  -3  10   3   21.60    6.60
   3  10  -3   29.10    9.60
  10   3   3   15.00   11.90
  10  -3  -3   25.20    8.50
  -3 -10  -3   30.30    7.80
   3  10  -3   23.90    4.60
   3 -10   3   20.50    6.70
   3  10  -3   23.90    7.80
 -10   3  -3   18.00    8.40
 -10  -3   3   22.80   14.50
 -10  -3   3   16.80    7.80
 -10   3  -3   19.30   13.40
 -10   3  -3   20.90    6.90
 -10  -3   3   16.70    7.60
  10  -3   3   17.40    7.50
 -10   3   3   16.30    8.70
  -3 -10   3   14.50    5.50
 -10  -3  -3   17.00    6.20
   3 -10  -3   26.50    6.00
 -10   3   3   28.20    7.70
  -3 -10   3   17.90    6.00
 -10   3   3   17.00    6.10
   3  10   3   27.10    9.80
  -3  10  -3   24.70    7.70
 -10   3   3   20.70    4.40
  10   3  -3   15.80    7.10
 -10  -3  -3   14.50   11.30
   3  10   3   14.90    5.00
  10   3  -3   13.50    9.80
 -10  -3  -3   33.90   11.30
  10  -3   3   20.50    6.60
  -3  10  -3   18.00    6.80
   3 -10  -3   14.70    5.30
   3  10   3   16.00    6.40
 -10  -4   3   74.19   10.40
   4  10  -3   59.59    7.10
  -4  10   3   61.79    9.70
 -10  -4   3   75.89   11.30
  -4 -10  -3   66.39    9.80
 -10   4  -3   81.39   10.70
   4 -10   3   67.99   10.60
   4  10  -3   70.79   11.40
   4 -10   3   63.79    9.30
 -10   4  -3   61.39    9.70
  -4  10   3   84.79   11.90
 -10  -4   3   73.89   10.50
  10  -4  -3   70.39   10.00
  -4 -10  -3   61.49    9.60
  10   4   3   73.89    9.30
   4  10  -3   77.59   10.40
  10   4   3   42.00   12.20
 -10   4  -3   57.49   14.90
   4  10   3   65.49    8.20
   4 -10  -3   74.99    8.50
  10   4  -3   74.09   12.10
   4 -10  -3   63.39    9.20
  -4  10  -3   56.29    8.70
   4  10   3   86.19   12.00
 -10  -4  -3   64.79   13.00
  10  -4   3   61.99    9.40
 -10  -4  -3   57.79    8.20
  -4  10  -3   56.69    9.80
  -4 -10   3   62.09    8.70
 -10  -4  -3   71.89   13.20
 -10   4   3   55.19    8.90
  10   4  -3   70.29    9.70
   4  10   3   63.99    8.10
  -4 -10   3   67.09    9.50
 -10   4   3   57.79   10.40
  10  -4   3   55.19    9.00
   5 -10   3   45.90    7.90
 -10  -5   3   47.00    8.70
  -5 -10  -3   57.99    9.40
  10   5   3   31.30   12.50
  10   5   3   46.60    8.00
 -10   5  -3   41.70    8.80
 -10  -5   3   55.89    9.70
  -5 -10  -3   40.70    9.30
  -5  10   3   58.19    9.40
 -10   5  -3   37.00   15.10
 -10  -5   3   40.40    9.40
  -5  10   3   56.39    8.60
  10  -5  -3   64.49   10.00
   5 -10   3   48.60    8.40
   5  10  -3   25.90    5.60
 -10   5  -3   56.59    9.30
   5  10  -3   53.19    9.50
   5  10  -3   48.80   11.40
 -10  -5  -3   56.29   13.20
   5 -10  -3   58.09    8.70
 -10  -5  -3   28.90   11.30
   5  10   3   37.60    6.60
   5 -10  -3   62.09    9.40
  10  -5   3   46.60    8.70
  -5  10  -3   45.30    8.00
   5 -10  -3   48.80    7.40
   5  10   3   53.19    7.50
  -5  10  -3   45.10    8.10
   5  10   3   46.20   12.00
  10   5  -3   51.89    7.80
  10  -5   3   50.69    7.80
 -10   5   3   36.60    9.10
  -5 -10   3   45.00    7.70
 -10   5   3   54.59    8.90
  -5 -10   3   42.30    7.50
  10   5  -3   59.19   12.50
  -6  10   3   27.10    7.30
   6  10  -3   32.00    6.50
   6 -10   3   22.20    6.90
  -6 -10  -3   28.80   10.00
   6  10  -3   27.60    9.20
 -10  -6   3   18.60    8.40
  -6 -10  -3   44.70   10.20
  -6  10   3   24.60    8.40
  10   6   3   21.60    7.00
   6 -10   3   23.60    7.50
 -10  -6   3   20.30    9.00
 -10   6  -3   19.40    7.80
  10  -6  -3   38.20    9.40
  10   6   3   -3.40   12.50
 -10  -6   3   19.90    9.20
 -10   6  -3   11.10   15.90
 -10   6  -3   32.30    9.30
 -10  -6  -3   23.90   10.70
  10  -6   3   30.20    7.50
  10   6  -3   20.10   11.90
  10   6  -3   32.20    7.50
 -10   6   3   29.10   11.00
 -10   6   3   17.70    7.20
  -6  10  -3   20.10    7.10
  -6 -10   3   15.90    6.30
   6 -10  -3   30.20    7.10
  -6 -10   3   14.30    6.90
   6  10   3   39.00   11.40
  10  -6   3   20.40    7.90
 -10  -6  -3   45.20   12.20
 -10   6   3   17.70    7.20
  -6  10  -3   14.20    7.00
   6 -10  -3   21.30    6.30
   6  10   3   24.00    6.30
   6 -10  -3   38.80    9.00
 -10  -7   3    8.80    9.10
 -10  -7   3   24.10    9.30
   7 -10   3    7.30    7.80
 -10   7  -3   21.20   16.90
  -7 -10  -3    8.40    9.30
  -7  10   3    8.60    7.00
  10   7   3   21.80   13.00
 -10   7  -3    9.00    8.60
   7 -10   3    9.30    7.00
   7  10  -3   10.90    6.20
 -10  -7   3   13.40    8.80
 -10   7  -3   23.50    8.30
  -7  10   3    5.10    8.30
  10  -7  -3   21.10    9.00
  10   7   3   13.80    6.50
   7  10  -3   14.80   10.30
  -7 -10   3   17.30    7.30
 -10   7   3    1.50    6.90
 -10   7   3   19.70   13.20
 -10  -7  -3    7.30   11.20
  10   7  -3   10.80   12.30
  10  -7   3   13.60    7.40
   7  10   3   12.70    6.20
  -7  10  -3   12.00    7.00
   7  10   3    5.80   11.60
   7 -10  -3   11.20    8.30
  10   7  -3   12.30    7.10
 -10   7   3   16.60    7.40
  -7 -10   3   10.80    6.40
   7 -10  -3   23.00    7.40
  10  -7   3   11.80    7.90
   7 -10  -3   35.40    7.60
 -10  -7  -3   17.70   10.30
  -7  10  -3    7.10    7.20
 -10   8  -3   15.40    9.00
  -8  10   3    9.30    9.00
   8 -10   3    2.60    8.80
   8  10  -3   11.10    6.40
 -10   8  -3   16.10   19.90
 -10   8  -3   19.10    8.40
  10   8   3   43.90   22.20
  10  -8  -3    7.70    9.20
  -8  10   3    8.20    7.60
   8 -10   3   23.10    8.70
 -10  -8   3    5.50    9.30
 -10  -8   3    1.60    8.70
 -10  -8   3   22.00    9.90
   8  10  -3   23.90   12.00
  -8 -10  -3   17.30    9.20
  10   8   3   11.10    7.00
   8 -10  -3   19.60    7.90
   8 -10  -3   10.20    8.10
  10  -8   3   11.70    8.30
 -10   8   3   36.60   17.30
  10   8  -3   35.00   13.80
  -8 -10   3   10.60    8.40
  10   8  -3    5.90    6.70
   8  10   3   12.40    7.20
 -10  -8  -3    6.10   10.40
  -8 -10   3   13.00    7.80
 -10   8   3   16.70    7.40
  10  -8   3   -3.60    7.60
  -8  10  -3   18.40    8.10
   8 -10  -3    6.80    9.40
  -8  10  -3    0.70    7.70
  -9  10   3   32.50    8.20
 -10  -9   3   50.49   11.70
 -10  -9   3   44.00   11.20
   9 -10   3   35.20   12.40
 -10   9  -3   41.40    9.50
  10   9   3   34.70    8.60
  10  -9  -3   17.20   10.00
   9  10  -3   46.40    8.50
   9  10  -3   49.50   21.80
  -9 -10  -3   44.80   11.50
 -10   9  -3   40.40   10.30
 -10  -9   3   55.59   10.40
 -10   9  -3   50.59   20.70
   9 -10   3   49.00   10.60
  -9 -10   3   20.50   11.00
  -9  10  -3   37.50    9.00
 -10   9   3   44.80    9.60
  10   9  -3   46.90    8.20
  -9 -10   3   76.09   14.10
   9 -10  -3   53.89   11.00
   9  10   3   38.00   13.30
   9 -10  -3   25.40   10.20
  -9  10  -3   36.90    9.40
   9 -10  -3   44.20   10.20
  10   9  -3   53.19   16.10
  10  -9   3   19.10    9.00
 -10  -9  -3   46.90   11.20
 -10 -10  -3    9.20   10.40
 -10  10  -3    3.30    7.80
  10  10   3   14.30    7.60
  10 -10   3   -5.30    9.20
 -10 -10   3    3.90    9.20
  10 -10  -3  -21.60    9.90
 -10  10   3  -11.10    7.20
  10  10  -3   -1.10    7.20
 -10  10  -3   -1.70    9.50
 -11   0  -3  509.85   25.50
   0  11  -3  493.25   21.80
   0 -11   3  483.15   18.80
   0  11  -3  475.85   19.60
   0  11   3  458.95   18.90
 -11   0   3  463.45   24.00
  11   0   3  469.65   18.20
   0 -11   3  468.05   18.90
   0  11   3  454.75   17.80
   0 -11  -3  500.55   19.60
   0 -11  -3  467.15   18.80
 -11   0  -3  412.16   25.80
 -11   0  -3  466.15   18.50
 -11   0   3  445.66   18.60
  11   0  -3  462.15   19.20
   0  11   3  473.55   22.20
 -11   0   3  438.56   20.30
 -11   1  -3  164.68   12.20
   1  11  -3  197.48   13.50
 -11   1  -3  172.98   15.30
  -1 -11  -3  168.38   12.00
   1 -11   3  152.48   11.90
   1 -11   3  160.08   11.20
 -11  -1   3  159.98   14.40
  11   1   3  181.98   12.00
  11   1   3  201.48   22.70
  -1  11   3  185.58   11.80
 -11  -1   3  169.98   13.50
  -1 -11  -3  179.28   12.70
 -11  -1   3  140.29   13.10
  -1  11   3  170.48   10.60
  11  -1  -3  171.68   13.60
 -11   1  -3  155.48   19.90
  -1  11   3  169.88   15.40
   1  11  -3  157.28   14.50
   1  11   3  143.19   15.20
  -1 -11   3  166.38   11.20
  11  -1   3  165.28   11.20
 -11   1   3  156.98   12.30
  -1  11  -3  169.28   13.10
   1 -11  -3  184.38   12.00
   1  11   3  165.88   10.40
  11   1  -3  139.59   18.40
 -11  -1  -3  156.88   18.60
 -11   1   3  160.18   11.70
  -1 -11   3  170.08   12.00
   1 -11  -3  171.68   11.00
 -11   1   3  179.28   13.90
 -11  -1  -3  174.88   12.10
 -11  -1  -3  169.08   20.80
   1  11   3  160.78   11.50
  11   1  -3  188.08   13.00
  -1  11  -3  175.98   14.30
  -2 -11  -3   90.79   11.70
  11  -2  -3   91.69   12.10
 -11   2  -3   92.89   15.50
   2 -11   3  110.99   10.20
 -11  -2   3  101.79   13.40
   2  11  -3   97.09   12.00
 -11   2  -3  110.59   14.40
 -11  -2   3   94.99   13.00
  -2  11   3  111.39   13.60
  -2  11   3   95.99    9.30
  11   2   3  105.79   10.60
  11   2   3   78.59   16.30
  -2 -11  -3   97.79   11.20
 -11   2  -3   80.19   10.70
  -2  11   3   99.09   10.00
   2 -11   3   95.09   10.70
   2  11  -3   98.49   13.30
 -11  -2   3   92.89   12.40
 -11  -2  -3  113.29   19.80
   2  11   3   93.49    8.80
  -2  11  -3   99.39   10.80
   2 -11  -3   89.99    9.90
   2  11   3   98.09   10.50
 -11   2   3   97.09   13.20
  11  -2   3   98.49   10.80
 -11  -2  -3   85.19   14.30
 -11   2   3   83.79   10.50
  11  -2   3   91.59   14.40
  -2 -11   3   81.79   10.30
   2  11   3   94.79   15.00
  -2 -11   3   91.49    9.60
 -11   2   3   95.29   12.00
  -2  11  -3  107.09   12.30
   2 -11  -3   99.19    9.40
  11   2  -3   96.19   10.90
 -11  -2  -3   95.29   11.40
  -3  11   3   73.79    9.90
   3  11  -3   79.59   12.40
  -3  11   3   90.49   13.20
  11   3   3   68.79   15.10
 -11  -3   3   89.29   12.30
  -3 -11  -3   88.39   12.60
  11   3   3   91.29   10.00
 -11   3  -3   90.49   16.00
  -3 -11  -3   92.49   12.00
 -11  -3   3   88.09   13.40
  11  -3  -3   62.89   10.50
   3  11  -3   88.99   13.40
   3 -11   3   93.89   10.30
 -11   3  -3   67.09   10.50
 -11  -3   3   73.19   12.00
 -11   3  -3   73.49   10.90
  -3  11   3   86.19    9.80
   3 -11   3   86.89   11.50
  11   3  -3   63.19   12.50
   3  11   3   80.19    8.80
   3 -11  -3   89.49    9.90
 -11  -3  -3   75.49   13.90
   3 -11  -3   76.39    9.20
 -11  -3  -3   81.99   11.60
  11  -3   3   81.79   11.40
   3  11   3   85.29   15.00
  -3 -11   3   88.29   10.10
 -11   3   3   76.89   10.90
   3  11   3   88.99   10.40
  11  -3   3  100.59   10.70
 -11   3   3   65.99    9.70
  11   3  -3   75.49   11.10
  -3  11  -3   93.79   12.20
 -11  -3  -3   69.49   13.90
  -3 -11   3   97.59    9.60
  -3  11  -3   75.79   11.20
  11   4   3  147.29   11.30
 -11   4  -3  120.79   12.40
  11  -4  -3  137.99   13.70
  -4 -11  -3  144.99   14.00
   4  11  -3  126.19   14.20
 -11   4  -3  141.19   15.20
 -11  -4   3  111.19   14.90
  -4 -11  -3  119.99   13.20
 -11   4  -3  134.69   24.60
 -11  -4   3  142.49   13.70
  -4  11   3  139.09   14.50
   4  11  -3  126.39    9.30
   4  11  -3  104.39   14.70
  -4  11   3  136.49   11.60
   4 -11   3  126.49   11.70
   4 -11   3  134.89   12.90
 -11  -4   3  127.49   15.50
  11   4  -3  100.39   18.30
 -11   4   3  115.99   12.40
  -4  11  -3  149.59   13.20
  11  -4   3  126.09   13.50
   4 -11  -3  133.59   11.50
 -11  -4  -3  164.18   17.90
 -11   4   3  121.89   12.20
   4  11   3  123.59   11.00
 -11  -4  -3  103.09   18.70
   4  11   3  123.99   10.30
  11  -4   3  123.09   11.50
   4 -11  -3  129.49   10.60
  -4 -11   3  117.89   11.40
   4  11   3  146.09   16.50
  -4  11  -3  134.79   12.30
  11   4  -3  134.69   11.40
  -4 -11   3  122.39   10.40
   5  11  -3  106.19   15.60
 -11  -5   3   91.59   13.50
  -5 -11  -3   91.29   14.90
   5  11  -3   88.69   14.20
 -11   5  -3   95.59   18.30
 -11   5  -3   91.39   14.90
  -5  11   3   95.59   14.20
  11  -5  -3   88.59   12.30
   5 -11   3   94.79   11.00
  11   5   3   51.49   14.90
  -5  11   3   95.29   11.40
   5  11  -3  107.79    9.70
  11   5   3   80.49   11.00
 -11  -5   3   86.69   12.90
 -11   5  -3  100.79   12.00
 -11  -5   3   85.69   11.60
   5 -11   3  105.59   13.00
  -5 -11  -3  100.69   14.20
   5 -11  -3  101.29   11.40
   5  11   3  104.89    9.90
  11   5  -3  102.79   11.50
   5 -11  -3   88.49   12.60
 -11  -5  -3  100.59   15.10
  11   5  -3  122.29   19.60
  -5  11  -3   95.39   11.50
   5  11   3  118.39   18.80
  -5  11  -3  103.89   12.40
  11  -5   3   81.19   10.90
 -11  -5  -3  113.19   18.00
  -5 -11   3   87.79   10.00
 -11   5   3   76.69   12.10
  11  -5   3  100.19   13.60
  -5 -11   3  107.19   11.30
   5 -11  -3   91.59   10.30
 -11   5   3  102.59   14.00
 -11   6  -3   57.89   18.10
  11   6   3   52.79   14.00
   6 -11   3   69.89   11.80
  -6  11   3   77.79   11.50
 -11   6  -3   88.49   14.50
   6  11  -3   74.49   13.60
   6 -11   3   42.00    8.30
   6  11  -3   64.49    9.70
  -6  11   3   65.59   10.20
 -11   6  -3   59.09   10.40
 -11  -6   3   61.69   11.20
 -11  -6   3   72.89   11.70
   6  11  -3   60.49   11.30
 -11  -6   3   60.79   10.60
  11   6   3   86.89   11.90
  11  -6  -3   66.99   10.90
   6  11   3   73.19   11.20
  11   6  -3   57.99   14.70
   6 -11  -3   99.09   11.60
  -6  11  -3   70.19   12.30
 -11   6   3   57.79   13.90
   6 -11  -3   80.39   10.80
  -6 -11   3   66.29    9.90
  11  -6   3   81.39   11.60
 -11   6   3   72.39   11.60
  11   6  -3   88.79   11.40
 -11  -6  -3   57.79   13.00
   6  11   3   47.00    7.70
  11  -6   3   66.09   10.30
 -11  -6  -3   39.10   13.50
   6 -11  -3   73.09   12.00
   7  11  -3   70.89   10.40
  -7 -11  -3   84.69   14.20
  -7  11   3   77.49   10.50
 -11  -7   3   72.79   11.90
   7 -11   3   61.19    9.70
 -11   7  -3   93.39   15.20
  11   7   3   62.29    9.00
 -11   7  -3   82.19   20.70
  11  -7  -3   90.49   13.30
 -11  -7   3   81.49   11.80
 -11   7  -3   72.99   11.30
   7 -11   3  101.99   14.90
  11   7   3   59.19   19.00
  -7  11   3   68.19   11.80
   7  11  -3   81.39   14.80
 -11  -7   3  114.09   15.10
  11  -7   3   81.89   10.40
   7 -11  -3   96.69   13.10
  -7  11  -3   66.39   10.50
 -11   7   3   73.29   10.70
  11   7  -3   88.99   11.70
  11  -7   3   66.39   10.70
 -11  -7  -3   80.09   14.50
   7 -11  -3  101.69   11.60
  -7  11  -3   83.09   12.00
   7 -11  -3   94.19   13.90
  11   7  -3   86.39   15.90
   7  11   3   77.59   10.70
  -8 -11  -3   50.29   11.40
   8  11  -3   32.70    7.70
 -11  -8   3   46.10   11.80
   8 -11   3   57.19   10.30
 -11   8  -3   32.40   20.40
  -8  11   3   40.20    8.50
  11   8   3   42.70    8.40
   8  11  -3   63.89   15.30
 -11   8  -3   45.80   10.60
   8 -11   3   78.99   21.00
 -11   8  -3   57.89   10.90
  -8  11   3   24.20   11.60
  11  -8  -3   63.89   11.30
 -11  -8   3   44.30   11.70
 -11  -8   3   64.09   11.90
   8 -11  -3   43.10   11.00
  -8  11  -3   36.50    9.70
   8 -11  -3   58.69    9.90
  -8  11  -3   41.20    9.20
  11   8  -3   57.29    9.20
   8 -11  -3   52.99   10.70
  11  -8   3   60.09   10.20
  11  -8   3   19.50   10.00
   8  11   3   39.30    8.10
  -8 -11   3   42.30    8.10
 -11  -8  -3   61.89   13.30
  11   8  -3   39.70   15.00
 -11   8   3   52.59    9.70
  -9 -11  -3   41.00   11.20
   9  11  -3   62.59    9.50
 -11   9  -3   50.29   10.50
  11   9   3   43.20    8.90
 -11   9  -3   56.39   23.10
  -9  11   3   53.89   10.10
 -11   9  -3   45.40   12.20
  -9  11  -3   45.60    9.80
 -11  -9  -3   47.00   12.00
  11   9  -3   57.29    9.80
   9 -11  -3   75.99   12.70
 -11   9   3   38.00    9.40
   9  11   3   33.80    8.30
  11  -9   3   58.19   11.10
  -9 -11   3   41.40    9.00
 -10 -11  -3   -0.10   10.30
 -10  11   3   21.80    8.60
 -11 -10   3    8.50   10.30
  11 -10  -3   15.50   12.00
  11  10   3   15.80    8.20
  10  11  -3   27.20   13.50
  10 -11   3   11.70   11.00
 -11  10  -3   19.40    9.30
 -11  10   3   22.50    8.60
 -11 -10  -3   20.80   11.60
  10  11   3   18.80    7.60
  11 -10   3   23.90   18.50
  10 -11  -3   12.20   12.10
 -10 -11   3    4.60    8.70
 -10  11  -3    6.40    8.30
  11  10  -3    0.20    8.40
 -11 -11  -3   -2.40   11.40
 -11 -11   3   -3.90   10.10
  11 -11   3  -19.00   10.70
  11  11  -3    0.30    9.20
 -11  11   3    2.90    8.10
  11 -11  -3   15.50   12.00
  11  11   3    6.10    8.40
 -11  11  -3   10.50    9.00
 -12   0   3  547.05   24.10
   0  12   3  640.74   26.70
 -12   0  -3  610.54   29.30
   0 -12   3  623.24   22.80
  12   0   3  620.34   22.50
 -12   0  -3  605.04   30.70
   0 -12  -3  613.34   23.20
   0  12  -3  631.84   25.70
   0  12   3  631.84   23.20
   0 -12   3  607.64   23.20
  12   0  -3  585.14   23.10
 -12   0  -3  547.65   22.50
   0  12   3  627.74   22.00
   0  12  -3  615.24   24.30
   0 -12  -3  624.84   22.70
 -12   0   3  599.84   23.30
 -12  -1   3  345.17   18.80
  12  -1  -3  339.97   18.00
   1  12  -3  385.66   19.10
  -1  12   3  384.86   17.30
  12   1   3  361.66   29.10
 -12   1  -3  396.56   20.90
   1  12  -3  364.06   20.10
  -1 -12  -3  403.56   18.50
 -12   1  -3  387.56   27.20
  -1  12   3  391.56   16.30
  -1  12   3  360.06   21.20
 -12  -1   3  335.07   18.70
   1 -12   3  373.06   16.90
  -1 -12  -3  395.46   17.60
  12   1   3  395.86   17.10
 -12   1  -3  363.16   17.50
  12   1  -3  370.36   18.00
 -12   1   3  373.36   17.10
 -12  -1  -3  418.66   25.70
 -12   1   3  326.27   18.50
   1  12   3  381.26   17.50
   1  12   3  372.76   21.60
  -1 -12   3  339.57   17.00
   1  12   3  368.46   16.10
  -1  12  -3  375.86   19.10
  -1 -12   3  381.96   16.80
 -12   1   3  346.87   17.50
  12  -1   3  365.06   16.50
 -12  -1  -3  333.67   17.30
   1 -12  -3  377.66   17.10
  -1  12  -3  356.06   18.20
  12   1  -3  323.67   24.70
   1 -12  -3  366.56   16.70
 -12  -1  -3  378.16   26.20
  -2  12   3  302.47   14.70
 -12   2  -3  276.07   25.30
 -12  -2   3  284.47   17.40
  -2 -12  -3  312.17   16.10
   2  12  -3  309.97   18.80
 -12   2  -3  330.57   19.80
  12   2   3  273.87   14.60
 -12  -2   3  289.87   17.80
   2 -12   3  275.17   15.70
 -12  -2   3  274.57   21.00
 -12   2  -3  260.37   15.70
  -2  12   3  316.97   19.10
  -2 -12  -3  298.27   16.30
   2 -12   3  287.77   15.30
   2  12  -3  277.77   17.20
  12   2   3  263.57   27.10
  -2  12   3  294.67   15.20
  12  -2  -3  301.67   16.80
 -12   2   3  265.97   17.00
  -2  12  -3  278.87   16.80
  12   2  -3  280.67   15.90
 -12   2   3  266.47   15.40
   2 -12  -3  306.67   14.60
  12   2  -3  248.18   23.40
  -2 -12   3  273.47   14.50
  12  -2   3  276.17   20.00
 -12  -2  -3  263.87   23.80
 -12  -2  -3  303.37   21.80
   2  12   3  290.37   14.00
 -12   2   3  280.37   20.60
   2  12   3  305.17   15.50
 -12  -2  -3  287.07   16.30
   2 -12  -3  311.47   15.40
   2  12   3  258.77   21.20
  12  -2   3  304.27   15.50
   3  12  -3  174.28   15.50
  -3 -12  -3  179.38   14.30
  -3  12   3  157.68   12.70
   3 -12   3  171.98   16.00
 -12   3  -3  132.89   13.20
  -3  12   3  171.18   12.70
  12  -3  -3  182.08   14.80
  -3  12   3  150.48   15.80
  12   3   3  182.38   24.20
 -12   3  -3  157.58   24.90
   3  12  -3  206.78   16.60
 -12  -3   3  169.28   16.20
  12   3   3  185.78   12.80
 -12   3  -3  193.28   17.60
   3 -12   3  173.68   12.90
 -12  -3   3  168.68   15.30
 -12  -3   3  154.98   16.10
  12  -3   3  192.18   13.40
 -12   3   3  162.78   14.30
 -12  -3  -3  173.98   19.70
  -3  12  -3  170.38   13.80
   3  12   3  213.38   19.10
   3  12   3  173.58   12.90
  -3 -12   3  161.68   11.60
  12  -3   3  178.58   17.50
  12   3  -3  226.28   35.30
 -12   3   3  150.08   12.80
   3 -12  -3  178.48   11.80
   3  12   3  159.98   11.50
   3 -12  -3  173.18   13.00
  12   3  -3  176.18   13.20
  -3  12  -3  177.38   14.50
 -12  -3  -3  145.49   21.80
 -12  -4   3  149.88   14.80
  12  -4  -3  162.38   14.30
 -12  -4   3  147.79   16.30
 -12  -4   3  158.18   17.20
   4  12  -3  161.38   16.30
   4 -12   3  197.78   16.40
 -12   4  -3  152.98   13.30
  12   4   3  140.49   24.10
 -12   4  -3  139.79   20.20
  12   4   3  147.79   14.60
  -4  12   3  156.58   12.80
 -12   4  -3  157.18   16.40
   4 -12   3  153.18   13.00
  -4  12   3  144.39   16.30
  12  -4   3  160.58   13.10
   4  12   3  157.98   11.40
   4 -12  -3  151.48   13.00
  12  -4   3  167.38   17.00
 -12  -4  -3  184.88   22.60
 -12  -4  -3  173.88   19.60
  -4  12  -3  155.98   13.90
   4  12   3  141.79   13.20
 -12   4   3  142.29   14.00
   4 -12  -3  170.48   12.10
  12   4  -3  152.28   13.10
  12   4  -3  165.08   22.00
   5 -12   3  137.69   13.20
 -12  -5   3  136.39   15.20
  12  -5  -3  124.79   15.40
  -5 -12  -3  159.68   14.70
 -12   5  -3  123.19   13.50
  12   5   3  166.38   13.10
 -12   5  -3  112.69   20.40
 -12  -5   3  143.59   16.50
 -12  -5   3  126.39   16.50
   5  12  -3  147.99   17.40
 -12   5  -3  182.88   18.00
  -5  12   3  180.58   17.20
  -5  12   3  165.28   17.90
  12   5   3  155.98   25.00
  -5 -12   3  156.68   12.10
 -12  -5  -3  192.68   22.10
  12  -5   3  154.28   13.50
   5 -12  -3  175.68   13.20
  -5  12  -3  167.48   14.40
  12   5  -3  119.69   20.00
   5 -12  -3  172.08   14.10
  12  -5   3  176.88   16.20
   5 -12  -3  145.49   15.10
   5  12   3  175.68   11.90
  -5  12  -3  149.39   13.50
 -12   5   3  142.89   18.00
  12   5  -3  103.19   17.10
 -12  -5  -3  184.68   19.70
 -12  -6   3   95.49   13.00
  12   6   3  110.39   11.70
  -6  12   3   96.79   17.00
   6 -12   3  120.59   16.70
   6  12  -3   99.09   11.40
 -12   6  -3  117.69   21.80
 -12  -6   3  100.49   18.10
 -12   6  -3   94.09   13.60
   6  12  -3  133.39   18.10
  -6  12   3  113.39   13.00
  -6 -12  -3  114.39   14.70
  12  -6  -3   97.79   16.60
 -12   6  -3  113.39   16.80
 -12  -6   3  133.69   17.40
   6  12   3   83.19   10.90
  -6 -12   3   99.39   11.00
   6 -12  -3  113.69   14.10
  12   6  -3  114.19   13.30
 -12   6   3   97.39   13.40
   6 -12  -3  122.89   12.40
   6 -12  -3  134.69   14.90
  -6  12  -3   88.59   12.50
  12  -6   3   90.89   12.60
  12  -6   3  131.49   15.80
  12   6  -3   96.69   17.20
 -12   7  -3   89.39   14.30
 -12   7  -3  118.69   24.40
   7 -12   3   99.19   14.50
  -7 -12  -3   87.89   14.50
 -12  -7   3  120.09   14.40
  12   7   3   77.19   11.40
 -12   7  -3   82.79   12.80
 -12  -7   3  114.09   17.80
 -12  -7   3   81.99   14.20
   7  12  -3   93.99   12.40
   7  12  -3   63.19   15.00
  12  -7  -3   79.19   12.30
  -7  12   3   86.09   12.10
  -7  12   3   92.49   19.60
  -7 -12   3   93.69   11.40
  -7  12  -3  108.79   13.00
   7 -12  -3  135.39   19.40
   7  12   3   86.89   11.50
 -12  -7  -3   83.19   14.70
  12  -7   3   94.99   12.80
   7 -12  -3  126.79   13.50
 -12   7   3   86.49   13.20
   7 -12  -3  105.69   15.70
  12   7  -3   76.49   17.30
  12  -7   3   96.29   14.40
  12   7  -3   92.09   12.90
   8 -12   3   73.49   12.00
 -12   8  -3   24.80   24.10
   8  12  -3   40.50    9.80
   8  12  -3   77.49   17.10
  12   8   3   69.19   10.20
  -8  12   3   60.29    9.80
 -12  -8   3   87.19   13.90
  -8 -12  -3   79.09   12.50
 -12   8  -3   67.99   11.60
  12  -8  -3   57.69   12.20
  -8 -12   3   72.29   11.70
   8  12   3   58.29    9.70
 -12   8   3   37.90    9.20
  12   8  -3   58.59    9.80
  12  -8   3  100.39   16.40
 -12  -8  -3   67.39   13.90
  -8  12  -3   67.89   10.90
  12   8  -3   40.00   18.50
   8 -12  -3   95.79   13.50
  12  -8   3   87.99   12.20
  12   9   3   65.29   10.60
  -9 -12  -3   47.40   11.90
  -9  12   3   45.60    9.10
 -12  -9   3   77.59   13.40
   9  12  -3   45.20   18.50
  12  -9  -3   53.99   12.10
   9 -12   3   71.59   13.50
   9  12  -3   48.80   11.00
 -12   9  -3   63.19   11.60
   9  12   3   65.69   10.60
  -9 -12   3   46.00    9.20
  -9  12  -3   63.29   10.90
  12   9  -3   37.00    9.10
 -12   9   3   49.00    9.80
 -12  -9  -3   50.49   13.70
  12  -9   3   41.10   17.80
   9 -12  -3   59.09   13.20
  10  12  -3   16.20   10.70
  12 -10  -3  -10.50   11.20
 -10  12   3   23.10    9.30
 -12 -10   3   25.30   12.40
  10  12  -3   -1.20   19.50
 -12  10  -3   16.00   10.00
  10 -12   3   28.50   12.30
 -10 -12  -3   11.10   11.00
  12  10   3    9.80    8.00
 -10  12  -3   13.70    8.50
 -12  10   3   24.50    9.20
  10  12   3   13.10    8.60
 -10 -12   3   11.70    8.20
 -12 -10  -3   25.10   12.10
  10 -12  -3    3.60   12.60
  12 -10   3   14.30   12.70
  12  10  -3   26.70    9.60
   0  13  -3  255.07   17.50
   0  13   3  242.48   13.80
  13   0  -3  220.28   15.80
   0 -13   3  225.88   14.10
   0 -13  -3  242.28   14.10
 -13   0  -3  211.38   16.40
 -13   0  -3  259.27   23.20
 -13   0  -3  260.47   20.80
 -13   0   3  219.58   16.90
  13   0   3  254.57   15.80
   0  13   3  248.28   14.50
 -13   0  -3  296.97   26.70
  13  -1  -3  189.28   15.20
  13   1   3  203.88   14.20
  -1  13   3  161.38   17.90
 -13   1  -3  232.48   23.60
 -13  -1   3  186.58   15.80
   1  13  -3  216.88   17.20
   1 -13   3  196.78   13.70
  -1  13   3  217.78   13.50
 -13   1  -3  212.88   19.30
 -13  -1   3  186.78   21.70
 -13   1  -3  198.88   25.90
  -1  13   3  205.08   13.50
 -13  -1  -3  213.18   23.00
 -13   1   3  175.68   16.00
   1 -13  -3  208.98   12.70
  -1  13  -3  139.69   19.90
 -13  -1  -3  164.48   23.10
   1  13   3  227.48   13.20
   1  13   3  189.08   13.60
 -13  -1  -3  184.88   25.20
  13   1  -3  185.08   14.30
  -1 -13   3  193.18   13.20
   1 -13  -3  184.98   14.00
   2  13  -3  145.69   16.00
 -13   2  -3  134.69   14.20
  -2  13   3  141.19   12.30
 -13  -2   3  106.29   17.30
 -13   2  -3  142.49   18.40
  13   2   3  159.68   28.40
  13   2   3  128.69   12.80
   2 -13   3  145.69   12.40
 -13  -2   3  123.29   15.00
  -2 -13  -3  145.29   13.20
  -2  13   3  122.29   11.70
 -13   2  -3  144.59   25.20
  -2  13   3  131.59   17.20
  13  -2  -3  156.88   14.80
 -13  -2  -3   87.49   17.00
   2 -13  -3  143.79   11.40
   2  13   3  128.09   11.30
  13  -2   3  149.09   13.00
   2 -13  -3  127.19   12.60
  -2  13  -3  107.79   14.00
 -13   2   3  111.39   14.70
  13   2  -3  122.89   18.50
   2  13   3  139.39   13.20
 -13  -2  -3  125.39   17.70
  13   2  -3  140.19   13.50
  -2 -13   3  126.39   11.10
  -3  13   3   52.49    8.60
  -3 -13  -3   55.29    9.80
   3 -13   3   34.10    7.60
  -3  13   3   58.39   12.10
  13   3   3   16.90   18.20
 -13  -3   3   43.80   12.20
 -13   3  -3   47.90   17.80
 -13  -3   3   49.70   11.30
 -13  -3   3   66.79   14.80
  13  -3  -3   57.49   10.20
   3  13  -3   35.80   11.20
 -13   3  -3   53.39    9.90
 -13   3  -3   62.69   12.60
  13   3   3   43.50    8.60
  -3  13   3   53.59    9.90
 -13  -3  -3   57.69   15.40
   3 -13  -3   53.89    8.10
  13   3  -3   28.50   15.90
 -13  -3  -3   37.00   16.00
  -3  13  -3   49.40   10.00
   3  13   3   57.19    9.60
   3  13   3   37.80    7.40
   3 -13  -3   48.60    8.70
  13  -3   3   50.49    9.30
  13   3  -3   34.60    9.10
  13  -3   3   39.90   13.10
  -3 -13   3   39.40    6.90
  13  -4  -3   69.19   11.10
  13   4   3   94.89   18.70
  -4 -13  -3   86.59   12.80
  -4  13   3   81.59   11.80
  13   4   3   82.89   11.40
 -13  -4   3  108.09   16.50
 -13   4  -3   59.59   19.70
 -13  -4   3   72.99   13.60
 -13  -4   3   82.29   12.80
  -4  13   3   93.69   13.60
   4  13  -3   90.99   14.10
   4 -13   3   84.19   12.50
 -13   4  -3   78.99   13.30
 -13   4  -3   62.59   10.60
  13  -4   3   86.19   10.90
   4 -13  -3   75.19   13.70
  13   4  -3   83.79   17.20
 -13   4   3   57.39   10.80
  13   4  -3   63.19   10.20
  -4  13  -3   93.19   12.90
   4  13   3   59.09    8.70
   4 -13  -3   80.49   11.30
  13  -4   3   73.59   13.90
   4  13   3  107.59   12.20
  -4 -13   3   90.39   10.30
 -13  -4  -3   82.79   16.40
  -5 -13  -3   96.29   13.10
 -13  -5   3  103.89   14.70
  -5  13   3   84.79   12.00
  13   5   3   91.39   12.40
  -5  13   3   81.79   13.20
 -13  -5   3   65.59   13.40
 -13  -5   3   78.69   12.90
 -13   5  -3   90.19   21.70
  13  -5  -3   63.99   11.00
   5 -13   3   87.89   12.90
 -13   5  -3  116.89   19.00
   5  13  -3  102.59   15.70
 -13   5  -3   58.89   10.90
   5 -13  -3  120.99   16.20
  13  -5   3   86.69   11.70
   5  13   3   93.39   10.90
  -5 -13   3   65.59   10.40
 -13   5   3   66.19   10.90
   5 -13  -3  104.39   11.50
 -13  -5  -3   71.39   18.30
  13  -5   3   82.19   14.20
  -5  13  -3   73.29   10.50
  13   5  -3   59.49   17.80
   5 -13  -3   88.79   14.50
  13   5  -3   62.89    9.80
  -6 -13  -3   29.00    8.90
  -6  13   3   66.19   10.60
 -13   6  -3   49.20   22.80
   6  13  -3   41.90   14.70
 -13  -6   3   59.69   14.00
 -13   6  -3   49.50   11.40
 -13  -6   3   47.60   13.90
  13   6   3   56.99    9.50
  13  -6  -3   49.60   10.80
   6 -13   3   38.00    8.70
  13   6  -3   51.69    9.80
 -13   6   3   59.09   10.90
 -13  -6  -3   69.79   15.20
   6 -13  -3   66.59   13.20
  13  -6   3   42.90   12.10
   6 -13  -3   42.40   10.10
  13   6  -3   61.39   18.70
   6  13   3   75.09   11.20
  -6 -13   3   54.69    9.00
  -6  13  -3   40.20    8.60
  13  -6   3   62.19   11.20
   6 -13  -3   55.29    9.30
  13   7   3   40.20    9.20
   7 -13   3   45.70   10.50
 -13  -7   3   52.69   14.10
 -13  -7   3   57.99   14.10
  13  -7  -3   34.90   11.00
 -13   7  -3   41.30   10.70
 -13   7  -3   51.39   16.20
 -13   7  -3   44.20   27.10
   7  13  -3   64.49   15.70
  -7 -13  -3   39.30    9.80
  -7  13   3   53.59   10.00
  13  -7   3   54.99   13.20
  -7 -13   3   30.20    7.10
 -13  -7  -3   49.70   14.30
  -7  13  -3   35.80    8.60
  13   7  -3   38.50    9.20
  13   7  -3   -4.10   18.50
 -13   7   3   35.00   10.10
   7  13   3   44.10    9.90
   7 -13  -3   56.69   10.20
   7 -13  -3   82.89   13.90
  13  -7   3   51.19   11.50
   8  13  -3   47.50   30.00
  -8  13   3   41.70    9.10
   8 -13   3   20.70   10.10
  13   8   3   36.00    8.80
  -8 -13  -3   20.20    8.90
 -13  -8   3   29.60   14.10
  13  -8  -3   29.10   11.30
 -13   8  -3   53.19   11.30
  -8  13  -3   24.80    8.50
  13  -8   3   38.20   12.30
 -13  -8  -3   38.50   14.00
  13  -8   3   29.80   17.10
  -8 -13   3   34.40    7.80
   8  13   3   50.99   10.00
   8 -13  -3   50.19   13.50
 -13   8   3   33.30    9.70
  13   8  -3   33.40    9.90
  14   0  -3  147.19   13.70
   0 -14   3  157.88   12.80
   0  14   3  144.49   13.00
 -14   0  -3  162.88   23.90
 -14   0   3  152.18   18.90
 -14   0  -3  109.49   15.80
   0  14   3  182.68   13.20
   0 -14  -3  162.88   12.50
 -14   0  -3  119.69   21.50
   0  14  -3  165.48   15.70
  14   0   3  166.68   13.80
   1  14  -3   69.29   11.70
 -14   1  -3  102.79   14.40
 -14   1  -3  134.19   22.40
  14  -1  -3   54.29   10.50
  -1  14   3  103.79   11.90
   1 -14   3   93.39   11.90
 -14   1  -3   71.09   19.50
  -1  14   3   94.59   12.40
 -14  -1   3   88.89   13.80
  14   1   3  105.49   12.50
 -14   1  -3   73.69   18.60
  -1 -14  -3   93.49   10.90
   1  14   3   91.29   11.50
 -14   1   3   78.69   13.80
   1  14   3   83.79   11.80
 -14  -1  -3   74.59   18.50
   1 -14  -3   93.79   11.60
  14   1  -3   94.79   12.30
  -1  14  -3   75.39   11.50
 -14  -1  -3   97.59   18.10
  -1 -14   3   90.89   10.70
  14  -1   3   97.39   12.50
  -2 -14  -3   76.89   11.20
  14  -2  -3   46.90    9.80
 -14  -2   3   67.29   12.50
   2 -14   3   72.19   11.30
  -2  14   3   70.79   11.50
 -14   2  -3   47.60   19.50
 -14   2  -3   52.99   20.30
  14   2   3   44.10    9.10
  14   2   3   26.20   19.50
  -2  14   3   92.69   12.20
   2  14  -3   90.89   13.90
   2  14   3   49.70    8.00
  14  -2   3   58.89    9.90
   2  14   3   70.79   10.40
 -14  -2  -3   72.79   18.30
   2 -14  -3   70.29   11.40
 -14   2   3   44.30   11.60
  14   2  -3   47.80    9.80
  -2  14  -3   79.69   13.00
  -2 -14   3   60.79    8.60
  14   3   3   43.80    8.90
  -3 -14  -3   49.50    9.20
  -3  14   3   35.40    8.40
   3 -14   3   50.19    9.50
  14  -3  -3   37.50   10.20
   3  14  -3   55.69   13.30
 -14   3  -3   33.20   10.80
 -14   3  -3   56.49   20.50
 -14  -3   3   50.69   12.70
  -3 -14   3   51.19    8.60
  14  -3   3   43.90   10.10
 -14   3   3   37.90   11.30
   3  14   3   55.99    9.00
   3  14   3   45.30    9.90
  14   3  -3   43.30    9.50
  -3  14  -3   57.99   11.00
   3 -14  -3   48.20    9.30
  14   4   3   38.30    8.90
  -4  14   3   50.79    9.10
  -4 -14  -3   42.00    9.10
  14  -4  -3   24.00    9.80
 -14   4  -3   37.20   10.70
   4  14  -3   58.19   13.80
 -14   4  -3   14.20   20.60
   4 -14   3   49.90    9.40
 -14  -4   3   51.09   12.70
  14  -4   3   26.70   15.10
 -14  -4  -3   48.10   16.80
  -4 -14   3   62.49   10.30
  -4  14  -3   56.39   10.40
  14   4  -3   42.40    9.90
  14  -4   3   44.70   10.30
 -14   4   3   42.20   11.40
   4 -14  -3   57.09   13.10
   4  14   3   59.09    9.50
   5 -14   3   42.30    8.60
  -5  14   3   58.39   10.00
   5  14  -3   77.59   15.70
  -5 -14  -3   56.19   10.50
  14  -5  -3   36.90   10.50
 -14   5  -3   36.40   11.10
  14   5   3   53.39    9.60
   5  14   3   35.80    8.90
 -14   5   3   58.19   11.70
  14   5  -3   57.29   10.40
  -5 -14   3   36.00    7.20
 -14  -5  -3   30.20   15.60
  14  -5   3   52.39   15.50
  14  -5   3   41.00   10.60
  -5  14  -3   51.79    9.70
  -6 -14  -3   32.90    9.30
  14   6   3   27.50    8.40
 -14  -6   3   33.70   21.60
   6  14  -3   46.60   15.80
  14  -6  -3   30.70   10.60
  -6  14   3   41.10    9.40
   6 -14   3   32.90    9.00
 -14   6  -3   38.70   11.30
  14   6  -3   41.70    9.80
 -14   6   3   23.00   10.00
  14  -6   3   20.00   11.00
   6  14   3   25.70    9.30
  -6 -14   3   33.90    8.00
  -6  14  -3   28.30    8.30
 -14  -6  -3   18.80   14.80
  14  -6   3   35.30   15.70
   7  14  -3   29.90   16.10
   7 -14   3   40.50   10.90
  14   7   3   35.90    9.40
  14  -7  -3   39.50   11.80
 -14   7  -3   28.70   11.10
  -7 -14  -3   36.40    9.50
  -7  14   3   30.50    8.90
   7  14   3   27.70    9.10
  -7  14  -3   26.40    8.10
 -14  -7  -3   39.10   15.70
  -7 -14   3   27.90    7.40
  14  -7   3   29.00   12.20
  14   7  -3   34.50    9.60
  14  -7   3   26.20   22.80
 -14   7   3   28.90   10.00
   0  15   3   90.69   12.60
   0 -15  -3   66.39   11.30
  15   0   3   74.79   10.60
  15   0  -3   65.39   10.60
   0 -15   3   76.99   11.20
 -15   0   3   81.29   14.50
 -15   0  -3   60.69   22.40
   0  15  -3   98.29   14.90
 -15   1  -3   76.69   21.20
  -1  15   3   67.19   10.40
  15   1   3   54.09    9.70
   1 -15   3   44.70    8.20
  15  -1  -3   43.50   10.50
   1  15  -3   64.19   12.10
 -15  -1   3   60.59   14.20
  -1 -15  -3   44.40    7.80
  -1 -15   3   63.19   10.70
 -15   1   3   68.19   13.30
   1  15   3   72.99   11.80
   1 -15  -3   57.29    8.90
 -15  -1  -3   78.19   33.10
  15  -1   3   55.49   10.00
  -1  15  -3   87.39   13.50
  15   1  -3   60.79   10.30
  -2  15   3   31.50    8.30
  15  -2  -3   28.70    9.70
   2 -15   3   35.40    7.90
 -15   2  -3   16.20   20.60
   2  15  -3   54.79   12.30
  -2 -15  -3   36.50    8.50
  15   2   3   31.00    8.90
 -15  -2   3   41.30   13.70
  15   2  -3   28.40    9.20
   2  15   3   45.00   10.00
 -15  -2  -3   87.29   20.20
 -15   2   3   44.50   12.60
  -2  15  -3    9.90    8.20
  15  -2   3   38.20   10.00
   2  15   3   28.00    8.70
  -2 -15   3   45.00    8.80
   2 -15  -3   40.20    8.70
 -15   3  -3    6.90   16.10
  -3  15   3   12.20    7.30
 -15  -3   3   18.50   13.30
   3  15  -3   34.70   12.00
 -15   3  -3   40.00   22.90
  15   3   3   19.80    8.40
   3 -15   3   25.70    8.50
  -3 -15  -3    6.20    7.10
  15  -3  -3    5.00    9.40
 -15  -3  -3   17.00   18.70
   3 -15  -3   20.90    8.40
  -3  15  -3   29.60    9.50
  15  -3   3   15.50    9.70
   3  15   3    8.90    7.80
  15   3  -3   18.20    9.00
 -15   3   3    1.70   10.90
  -3 -15   3   18.90    7.20
   4 -15   3   14.40    8.00
 -15  -4   3   12.30   14.50
  -4 -15  -3   17.50    8.30
   4  15  -3    8.30   12.30
  15  -4  -3    8.50    9.40
  -4  15   3   14.60    7.50
 -15   4  -3   14.60   12.20
  15   4   3   10.90    8.40
  15  -4   3   12.30    9.70
 -15  -4  -3    6.30   16.90
  -4 -15   3   16.30    7.40
  15   4  -3    1.00    8.90
  -4  15  -3   16.30    8.80
   4 -15  -3    3.40    7.90
   4  15   3   23.90    9.10
 -15   4   3   13.80   11.30
   0   0   4  199.78    8.30
   0   0   4  217.28    8.50
   0   0  -4  201.98   12.00
   0   0  -4  218.08    8.70
   0   0   4  200.38    7.80
  -1   0   4  260.67    9.40
   0   1   4  258.57    9.50
   1   0  -4  247.48   12.50
   0   1  -4  257.67    9.90
  -1   0  -4  249.08   13.90
   0   1   4  273.17    9.20
   0  -1   4  250.67    9.60
   1   0  -4  263.27    9.20
   0  -1   4  257.97   10.10
   1   0   4  255.47    9.90
  -1   0   4  268.97    9.80
   0  -1  -4  267.37   12.20
   0   1   4  270.57   12.80
   0   1   4  258.17    9.60
   0  -1   4  259.27    8.80
   1   0   4  250.27    9.10
  -1   0   4  259.87    8.80
   1   0   4  254.17    8.90
   0  -1   4  256.27    9.60
   1   1   4  866.01   26.80
  -1  -1   4  846.22   23.20
  -1   1   4  845.82   22.80
   1   1   4  894.61   22.80
  -1  -1  -4  876.71   26.30
   1  -1   4  822.82   23.90
  -1   1   4  897.41   23.80
   1   1   4  833.22   23.50
   1  -1  -4  867.91   24.60
   1  -1   4  841.02   22.80
   1   1  -4  874.61   23.50
   1  -1   4  866.61   23.50
   1   1   4  866.41   23.90
  -1  -1   4  841.92   23.20
  -1   1   4  824.22   23.60
  -1  -1   4  847.52   23.70
  -1   1  -4  837.72   24.40
  -1  -1   4  869.81   24.10
  -1   1   4  860.81   25.20
  -2   0   4 2136.09   55.89
  -2   0   4 2298.37   57.89
  -2   0  -4 2230.98   60.69
   0  -2   4 2144.89   57.69
   0  -2   4 2177.08   57.19
   0  -2  -4 2220.38   57.89
   0   2   4 2239.78   58.79
   0   2   4 2200.88   57.29
   0   2   4 2325.17   56.69
   0  -2   4 2225.18   57.49
   2   0   4 2199.48   57.69
   2   0   4 2148.89   56.29
   2   0   4 2177.98   60.59
   0   2  -4 2209.98   57.59
   2   0   4 2201.08   56.89
   2   0  -4 2257.97   56.19
   0  -2  -4 2238.78   58.39
   0  -2   4 2190.78   55.99
  -2   0   4 2228.38   57.49
  -2  -1   4 1204.98   31.40
   2   1   4 1246.58   36.10
   1  -2   4 1214.38   33.40
   2  -1  -4 1209.58   31.80
  -2   1  -4 1183.68   33.20
  -1   2   4 1189.98   32.40
   1  -2   4 1180.98   32.60
   2  -1  -4 1186.98   30.90
   2   1   4 1200.98   32.20
  -1   2   4 1192.78   33.10
  -1  -2  -4 1226.48   34.40
   1  -2   4 1178.88   32.50
  -2  -1   4 1199.68   31.80
   1  -2   4 1198.98   31.00
  -2   1  -4 1173.28   36.40
   2   1   4 1166.68   32.80
   2   1   4 1170.58   30.80
  -2  -1   4 1240.68   33.10
   1   2  -4 1215.48   32.30
  -1   2   4 1244.98   32.20
   1  -2  -4 1191.58   32.10
   2  -1   4 1180.38   32.80
   1   2   4 1207.08   32.50
  -2   1   4 1227.68   32.70
  -2   1   4 1194.08   30.80
  -1  -2   4 1238.18   32.80
   1   2   4 1244.78   31.20
   2  -1   4 1193.78   31.50
   1   2   4 1177.78   34.80
   2   1  -4 1231.58   31.50
  -1  -2   4 1174.28   32.00
  -2  -1  -4 1162.28   35.30
  -2   1   4 1144.69   32.50
  -1   2  -4 1203.58   33.00
  -1  -2   4 1170.88   32.50
   1  -2  -4 1216.78   32.70
   2  -2  -4  797.62   22.60
  -2  -2   4  821.02   23.30
   2  -2  -4  800.92   22.30
  -2   2  -4  837.92   25.20
  -2  -2  -4  855.51   26.90
   2   2   4  821.52   21.60
   2   2   4  812.02   26.50
  -2  -2   4  826.12   22.90
  -2  -2   4  883.71   24.40
   2   2  -4  815.62   23.10
   2  -2   4  805.52   24.50
   2   2   4  855.31   23.70
  -2   2   4  855.41   23.60
   2  -2   4  828.22   22.20
  -2   2   4  820.62   23.80
  -2   2   4  856.71   23.50
   2  -2   4  808.12   24.20
  -2   2  -4  821.62   24.40
   2   2  -4  794.42   23.00
   3   0   4  266.97   16.00
   3   0   4  303.67   10.50
  -3   0   4  292.87    8.90
  -3   0   4  304.87   11.70
   0   3   4  300.97   11.10
   0  -3   4  303.17   11.80
   3   0  -4  316.97   12.10
   3   0  -4  300.47    8.90
   0   3  -4  325.07   11.80
  -3   0   4  293.97    9.20
   0   3   4  312.17   13.50
   0   3   4  309.87   10.00
   0  -3  -4  310.17   11.80
   0  -3  -4  304.97   12.30
   0  -3   4  289.57   11.70
   0  -3   4  297.87   11.00
   3   0   4  284.07   11.60
  -3   0  -4  289.37   10.50
  -3   0  -4  300.67   15.80
   1   3  -4  245.28    9.80
  -1  -3  -4  243.78   11.80
  -1   3   4  242.08    9.80
   3   1   4  247.78   11.50
  -1   3   4  254.77   11.40
   3   1   4  230.38   14.30
   3  -1  -4  243.78    6.90
   1  -3   4  251.87   11.00
  -1   3   4  250.97    9.20
  -3  -1   4  235.28    8.50
  -3   1  -4  228.68   10.00
  -3   1  -4  236.88   15.00
   1  -3   4  238.18    7.40
  -1  -3  -4  251.17   12.50
   3  -1  -4  237.08    7.70
  -3   1  -4  258.27   11.40
   1   3  -4  220.68    8.30
   1  -3   4  258.97   10.30
  -3  -1   4  234.08    8.10
   3   1   4  240.08    9.40
  -3  -1   4  254.57   10.70
  -3  -1  -4  239.28   15.00
  -1   3  -4  237.18   10.10
  -1  -3   4  257.47   10.40
  -3   1   4  239.48   10.30
   1  -3  -4  220.68    9.30
   1   3   4  244.48    8.00
  -1  -3   4  249.97    9.60
   1  -3  -4  222.78   10.10
  -3  -1  -4  246.78    8.30
   3  -1   4  245.28    8.90
   1   3   4  257.77   13.20
  -1  -3   4  234.58   10.10
   3   1  -4  241.58   10.10
   1   3   4  243.28    9.70
   3  -1   4  236.58   10.60
   3   1  -4  225.68    8.30
  -3  -2   4  824.32   23.50
  -3  -2   4  766.72   21.70
  -3   2  -4  747.13   23.30
   2  -3   4  798.72   23.80
  -2  -3  -4  749.53   25.00
   2   3  -4  784.72   22.40
   3  -2  -4  699.43   19.80
  -3   2  -4  804.12   24.00
   2  -3   4  786.32   20.50
  -2   3   4  765.32   22.30
   2   3  -4  789.62   21.50
  -3  -2   4  780.52   21.30
   3   2   4  742.53   25.80
  -2   3   4  796.02   22.40
   3  -2  -4  718.43   20.00
   2  -3   4  711.53   23.80
  -2  -3  -4  791.62   24.60
  -2   3   4  778.52   22.70
   3   2   4  797.12   22.50
  -2  -3   4  753.42   22.40
  -2  -3   4  736.33   21.80
   3   2  -4  762.22   21.70
  -2   3  -4  779.32   23.40
  -3   2   4  782.42   23.50
  -3   2   4  793.52   20.90
  -3  -2  -4  791.72   26.20
  -3   2   4  804.12   22.90
   2   3   4  781.82   25.60
   2   3   4  817.52   20.30
   3  -2   4  776.22   21.10
   2  -3  -4  769.82   21.60
   3  -2   4  761.82   23.40
  -2  -3   4  782.62   23.20
   2  -3  -4  752.92   21.20
   3   2  -4  774.02   22.40
   2   3   4  772.42   22.70
  -2   3  -4  787.22   24.60
  -3   3   4  636.54   19.70
  -3  -3  -4  628.44   22.50
  -3   3   4  619.04   17.80
  -3  -3  -4  609.04   21.40
  -3   3   4  559.64   20.20
   3  -3   4  611.54   19.70
  -3  -3   4  620.24   18.60
   3  -3   4  594.24   20.20
  -3   3  -4  610.74   20.50
   3   3   4  621.74   18.90
   3   3  -4  602.54   18.70
  -3  -3   4  650.43   19.90
   3  -3   4  621.04   17.00
  -3  -3   4  610.04   18.00
   3   3  -4  623.14   18.30
  -3   3  -4  628.04   20.10
   3   3   4  619.44   22.80
   3  -3  -4  580.84   16.50
   3  -3  -4  606.14   16.70
   4   0   4  638.54   22.30
  -4   0  -4  649.24   25.40
   4   0   4  658.13   25.50
   4   0  -4  622.04   17.90
  -4   0   4  752.92   21.40
  -4   0  -4  662.83   19.30
   0   4  -4  723.83   20.90
   4   0   4  666.83   19.60
  -4   0   4  649.24   17.60
  -4   0   4  666.43   17.80
   0   4   4  686.33   22.40
   0   4   4  685.23   19.10
   0   4  -4  678.23   17.60
   0  -4  -4  684.03   20.70
   0  -4   4  681.43   21.10
   0  -4  -4  702.03   21.40
   0  -4   4  700.43   21.30
  -1  -4  -4  974.80   28.80
   1   4  -4  950.80   27.40
   1  -4   4  961.20   27.50
  -4  -1   4  931.21   25.10
  -4   1  -4  941.91   32.20
  -1   4   4  966.00   26.50
  -4  -1   4  936.21   25.40
  -1   4   4  951.00   28.10
   4  -1  -4  954.30   28.10
  -4   1  -4  993.80   28.70
   1   4  -4  971.10   25.00
  -4   1  -4  915.51   26.90
   1  -4   4  968.50   28.20
  -1  -4  -4  939.51   28.10
   4   1   4  964.10   31.90
  -4  -1   4  999.40   28.20
   4   1   4  964.10   28.50
  -1   4  -4  985.50   30.00
  -1  -4   4  989.00   28.00
   4  -1   4  978.40   28.10
   4   1  -4  905.91   25.60
  -4   1   4  970.80   27.80
   1   4   4  935.51   25.40
   4   1  -4  959.40   27.60
   1   4   4  945.71   27.30
  -1  -4   4  946.51   27.50
  -1   4  -4  976.40   27.80
  -4  -1  -4  922.31   25.00
  -4  -1  -4  954.50   31.50
   4  -1   4  945.31   26.20
   1  -4  -4  977.10   27.40
   1   4   4  950.10   29.50
   1  -4  -4  974.50   26.80
  -1  -4   4  909.61   27.10
  -2  -4  -4 1485.85   41.20
  -4   2  -4 1455.85   40.30
   2  -4   4 1474.95   36.90
   2   4  -4 1499.35   38.10
  -2   4   4 1462.65   39.70
  -4  -2   4 1435.46   38.20
   4   2   4 1462.85   39.50
  -4   2  -4 1448.66   40.90
  -2   4   4 1451.55   39.40
  -4  -2   4 1511.85   40.70
  -2   4   4 1442.06   39.70
   2  -4   4 1424.16   40.60
  -2  -4  -4 1439.96   41.80
   4   2   4 1429.56   43.70
  -4  -2   4 1419.46   38.50
   2  -4   4 1430.46   40.20
   2   4  -4 1488.35   40.10
   4  -2  -4 1475.45   40.80
  -4   2  -4 1486.15   45.10
   2   4   4 1451.05   39.70
  -2   4  -4 1498.65   40.60
   4   2  -4 1408.66   38.90
   4   2  -4 1461.65   39.80
  -4   2   4 1498.25   40.20
   4  -2   4 1470.25   40.40
  -2  -4   4 1525.15   40.50
  -2  -4   4 1442.96   39.80
  -2  -4   4 1418.36   39.30
   2   4   4 1469.55   37.40
   2  -4  -4 1508.25   39.10
   4  -2   4 1501.65   38.50
   2   4   4 1496.85   42.50
   2  -4  -4 1443.86   38.50
  -2   4  -4 1428.06   41.70
  -4  -2  -4 1431.96   43.00
   3   4  -4  913.61   26.70
  -3  -4  -4  934.91   28.60
  -3  -4  -4  918.21   29.30
   4   3   4  905.11   30.00
   4   3   4  917.71   26.40
  -4  -3   4  943.31   27.50
  -4  -3   4  895.31   25.30
   4  -3  -4  847.12   23.30
  -3   4   4  897.61   26.70
  -3   4   4  904.71   26.40
  -4   3  -4  897.91   27.50
  -4  -3   4  885.71   25.80
  -3   4   4  934.21   25.90
   3  -4   4  914.61   27.20
   3   4  -4  939.91   25.40
   3  -4   4  906.71   27.60
   3  -4   4  935.71   24.00
   3  -4  -4  893.31   24.70
   4   3  -4  906.31   26.30
   4  -3   4  918.41   27.30
   4   3  -4  928.21   26.20
  -4   3   4  927.21   26.90
  -3   4  -4  931.91   27.40
   4  -3   4  925.01   24.70
   3   4   4  927.61   26.40
  -3  -4   4  921.11   26.00
   3   4   4  915.41   29.70
  -4   3   4  905.91   24.00
  -3   4  -4  930.01   28.50
  -3  -4   4  899.11   26.30
   3  -4  -4  886.81   24.30
  -3  -4   4  958.20   27.40
  -4  -3  -4  896.21   29.50
   4  -4  -4  765.92   21.40
   4   4   4  827.22   24.40
  -4   4  -4  845.32   25.60
   4  -4   4  823.72   25.50
  -4  -4   4  841.42   25.20
  -4  -4  -4  797.22   27.40
   4  -4   4  792.72   25.10
   4  -4  -4  791.22   21.80
  -4  -4   4  783.72   23.90
  -4   4  -4  841.12   26.10
   4  -4   4  815.72   22.00
   4   4  -4  803.72   23.40
  -4  -4  -4  827.62   29.80
   4   4   4  753.92   28.00
   4   4  -4  811.02   24.70
  -4   4   4  827.12   22.70
   0  -5   4  562.04   18.10
   0  -5   4  575.94   18.90
   5   0   4  572.74   19.30
   0  -5  -4  579.74   19.50
  -5   0   4  535.35   14.90
   0   5  -4  590.94   18.60
   5   0   4  572.54   17.60
   5   0  -4  571.14   19.10
  -5   0  -4  578.14   23.90
   0   5   4  572.34   18.10
   5   0  -4  531.35   15.80
   0   5   4  565.64   20.60
  -5   0   4  585.74   19.00
   0   5   4  579.24   17.10
   5   0   4  542.75   23.10
  -5   0  -4  582.84   16.80
   0  -5  -4  577.04   18.70
  -5   0   4  549.15   15.20
  -5  -1   4 1172.88   31.60
   1   5  -4 1213.28   30.60
  -5   1  -4 1198.88   35.20
   5   1   4 1225.18   35.00
  -1  -5  -4 1167.38   34.20
   5   1   4 1191.28   33.10
  -1   5   4 1257.67   34.90
   1  -5   4 1177.68   33.90
  -5   1  -4 1239.08   33.30
  -5  -1   4 1144.19   31.20
   5  -1  -4 1197.88   34.60
  -1  -5  -4 1166.88   34.80
   1   5  -4 1253.57   34.20
  -5   1  -4 1184.28   38.60
  -1   5   4 1198.28   32.90
  -5  -1   4 1244.38   34.50
  -1   5   4 1203.68   33.60
   1  -5   4 1169.38   34.20
   5   1   4 1176.98   38.10
  -1  -5   4 1192.48   33.40
   1   5   4 1212.68   33.60
  -5  -1  -4 1212.38   31.20
  -1   5  -4 1260.87   35.30
   5  -1   4 1178.68   34.20
  -1  -5   4 1188.08   34.00
   5  -1   4 1041.20   33.70
   1  -5  -4 1235.98   33.90
   1   5   4 1189.38   35.90
  -5  -1  -4 1205.28   38.00
   1  -5  -4 1188.98   33.10
  -1  -5   4 1271.37   34.70
   1   5   4 1234.68   32.10
   5   1  -4 1163.68   32.20
  -5   1   4 1263.27   34.50
   5   1  -4 1206.88   34.20
  -1   5  -4 1218.68   36.50
   2  -5   4  886.61   28.00
   2  -5   4  903.11   27.50
  -5  -2   4  918.61   25.40
  -5   2  -4  906.21   27.50
  -5   2  -4  914.91   32.80
   5   2   4  929.61   26.90
  -2   5   4  953.90   26.90
  -2  -5  -4  955.60   28.70
  -2   5   4  944.71   27.70
  -2   5   4  922.11   27.10
  -5  -2   4  961.60   28.30
  -2  -5  -4  937.31   29.50
   2   5  -4  952.10   24.90
   2   5  -4  960.30   27.80
  -5   2  -4  972.30   29.70
  -5  -2   4  901.01   25.70
   5  -2  -4  937.01   28.40
  -2   5  -4 1009.70   29.70
   5  -2   4  916.31   27.90
  -2  -5   4  934.01   27.90
  -2  -5   4  914.61   26.90
   5   2  -4  905.71   26.50
   2  -5  -4  912.01   26.10
   2   5   4  922.51   29.70
  -2  -5   4  925.21   27.40
  -5  -2  -4  959.40   31.50
  -5   2   4  958.00   27.80
   5   2  -4  939.71   27.40
   2   5   4  920.71   27.10
   2  -5  -4  920.11   26.60
   2   5   4  934.11   24.90
   5  -2   4  923.11   25.80
  -2   5  -4  926.21   29.30
  -3   5   4  235.88   10.80
  -3   5   4  236.48   10.80
  -5  -3   4  233.68    9.50
  -5  -3   4  227.68    9.70
  -5   3  -4  227.28   11.70
  -5   3  -4  224.68   18.60
   5   3   4  228.78   15.60
   3  -5   4  232.58   11.50
   3   5  -4  232.78   11.30
  -3  -5  -4  241.78   13.50
  -5   3  -4  250.77   12.40
  -3   5   4  238.28   10.50
   5   3   4  206.58   12.60
   3   5  -4  242.38    8.80
  -5  -3   4  236.58   11.80
   3  -5   4  227.68    7.30
  -3  -5   4  224.98   10.20
   5   3  -4  239.88   10.90
  -3  -5   4  253.67   11.80
  -3  -5   4  226.78   10.60
   3   5   4  227.38   10.40
  -3   5  -4  229.68   11.50
   3  -5  -4  231.38    9.30
   5   3  -4  223.88   11.10
  -5  -3  -4  232.68   15.80
  -3   5  -4  248.58   13.00
   5  -3   4  229.18   11.60
   3   5   4  222.58   13.90
   5  -3   4  232.88    8.90
   3   5   4  225.58    7.40
   3  -5  -4  233.48    8.80
   4   5  -4  765.12   24.20
   4   5  -4  781.62   22.10
  -5   4  -4  727.33   24.60
  -5  -4   4  734.93   22.90
  -5   4  -4  747.23   24.40
   5  -4  -4  703.73   20.00
  -4  -5  -4  801.02   29.10
  -4  -5  -4  753.72   25.60
   5   4   4  755.12   23.10
  -5  -4   4  763.22   22.60
   4  -5   4  745.33   24.20
   4  -5   4  758.12   24.80
   5  -4  -4  781.92   24.80
  -4   5   4  787.52   22.60
   5  -4  -4  762.42   20.40
  -4   5   4  770.82   23.60
   5   4   4  745.33   27.80
  -4   5   4  715.03   27.30
   4  -5   4  758.82   20.50
  -5   4   4  764.52   23.70
   4   5   4  738.13   26.80
   5   4  -4  755.62   24.10
  -4  -5   4  788.42   29.60
   5   4  -4  734.23   22.80
   4   5   4  774.32   23.20
   5  -4   4  760.82   21.30
   4  -5  -4  755.12   21.00
   4  -5  -4  756.82   21.40
  -4   5  -4  773.02   25.50
  -5  -4  -4  785.72   31.90
  -5  -4  -4  770.32   26.40
  -4   5  -4  768.82   24.20
  -4  -5   4  748.43   23.30
  -4  -5   4  757.22   22.80
   5  -4   4  746.43   24.30
   5  -4   4  788.92   25.20
  -5   4   4  762.22   20.80
   5  -5   4  571.94   19.90
  -5   5  -4  588.64   20.10
  -5  -5   4  550.94   18.80
   5  -5   4  578.84   24.90
   5  -5  -4  582.54   20.40
  -5  -5   4  580.04   18.60
  -5   5  -4  559.14   20.60
  -5  -5  -4  557.94   21.60
   5   5  -4  569.04   18.00
   5  -5  -4  542.85   16.40
  -5  -5  -4  531.45   22.40
  -5   5   4  575.44   17.60
   5  -5  -4  549.85   16.10
  -5   5   4  557.74   19.20
   5   5   4  561.84   18.70
   5  -5   4  555.34   16.40
  -5  -5   4  546.35   19.60
  -6   0   4   25.90    3.40
   0  -6   4   33.40    5.50
   0   6   4   31.70    5.20
  -6   0   4   32.10    3.20
   6   0   4   45.80    9.70
   0   6  -4   40.90    7.20
  -6   0  -4   52.29   10.60
   0  -6   4   40.70    6.50
   0   6  -4   38.90    7.60
   6   0   4   29.40   10.20
   0  -6  -4   35.70    6.00
   6   0  -4   27.30    4.10
   6   0   4   33.60    5.10
  -6   0  -4   36.30    5.40
   0   6   4   36.10    5.10
   0   6   4   34.60    6.80
   6   0  -4   40.80    7.00
   0  -6  -4   45.20    6.90
  -6   1  -4  399.76   14.30
  -6  -1   4  390.56   12.80
   1  -6   4  417.56   15.40
  -1   6   4  417.86   14.50
  -1   6   4  421.26   16.70
   1   6  -4  424.26   11.40
  -6   1  -4  428.56   17.20
  -6  -1   4  402.16   12.40
   6  -1  -4  423.26   16.60
   1   6  -4  429.16   15.90
  -1  -6  -4  429.46   17.20
  -6   1  -4  433.36   21.70
   6   1   4  412.36   21.40
   1  -6   4  396.86   15.80
  -1  -6  -4  419.86   16.10
  -1   6   4  430.76   15.00
  -1  -6   4  410.36   15.80
  -1   6  -4  412.06   15.30
  -1  -6   4  409.26   15.50
  -1   6  -4  407.76   18.00
   6  -1   4  431.46   18.20
   1  -6  -4  419.36   15.60
  -6  -1  -4  431.06   12.70
  -6   1   4  426.56   16.00
  -6  -1  -4  438.46   21.30
   6  -1   4  411.86   14.00
   1  -6  -4  400.66   14.70
   6   1  -4  413.36   14.50
   1   6   4  436.36   13.70
   1   6   4  399.36   14.70
  -2  -6  -4  538.55   20.40
   2   6  -4  567.04   19.00
   2   6  -4  555.24   15.30
   6  -2  -4  553.14   19.40
  -2   6   4  548.35   17.90
  -6  -2   4  534.85   16.70
  -2   6   4  520.45   17.80
   2  -6   4  540.05   19.30
   6   2   4  557.44   23.00
  -6   2  -4  543.15   19.80
  -6  -2   4  526.25   16.20
   2  -6   4  552.94   18.60
  -2   6   4  571.24   19.40
  -2  -6  -4  551.04   20.10
   6   2   4  534.65   17.70
  -6   2  -4  551.44   24.80
  -2  -6   4  530.75   18.60
  -6  -2  -4  514.65   14.70
   2  -6  -4  545.65   17.70
  -2   6  -4  550.24   18.80
  -2  -6   4  555.94   18.40
  -2   6  -4  545.05   20.70
   2   6   4  535.55   21.20
   2  -6  -4  532.85   17.10
   2   6   4  518.95   16.10
   6   2  -4  530.45   18.10
  -6   2   4  549.45   18.80
  -6  -2  -4  571.54   22.20
  -2  -6   4  539.95   19.30
  -6  -2  -4  552.04   23.30
   6  -2   4  518.25   16.90
   3  -6   4  229.98   11.40
  -3   6   4  228.68   11.90
  -6  -3   4  234.18    9.80
  -6   3  -4  229.48   11.70
  -6  -3   4  230.68   10.30
  -6   3  -4  240.88   19.20
   6  -3  -4  236.18   12.70
   3   6  -4  235.28   12.10
   6   3   4  224.38   10.60
   3   6  -4  242.68    8.60
  -3   6   4  248.78   11.90
   6   3   4  217.38   16.80
  -3   6   4  229.28   11.00
  -6   3  -4  220.98   12.40
  -3  -6  -4  246.58   13.30
  -6  -3   4  246.98   12.30
   6  -3   4  236.98    9.60
  -3   6  -4  250.07   13.70
  -3   6  -4  237.28   11.70
   3   6   4  222.88    8.20
   6   3  -4  225.28   11.70
  -3  -6   4  237.28   11.90
   6  -3   4  222.98   11.80
   3   6   4  227.38   14.90
  -6  -3  -4  234.28   15.10
   3   6   4  234.58   10.80
   3  -6  -4  232.88    9.50
  -6   3   4  229.58   11.70
  -3  -6   4  225.08   10.50
  -3  -6   4  219.88   11.00
   3  -6  -4  230.28   10.10
   4  -6   4  540.65   20.00
   4   6  -4  564.24   19.90
   6  -4  -4  541.15   19.90
   6   4   4  554.34   18.30
  -4  -6  -4  559.44   21.00
  -4  -6  -4  512.85   21.50
  -6  -4   4  563.14   18.40
  -4   6   4  538.55   18.90
  -6  -4   4  561.94   19.40
   4  -6   4  544.95   19.20
   4  -6   4  548.95   15.10
  -4   6   4  555.64   18.50
   6   4   4  478.25   33.80
   4   6  -4  567.74   16.70
  -4   6   4  552.44   18.80
  -6  -4   4  538.55   17.70
  -6   4  -4  526.25   19.60
  -6   4  -4  528.95   19.70
   6  -4   4  507.45   17.90
   4   6   4  540.15   18.20
  -4  -6   4  550.74   18.80
   6  -4   4  557.34   19.70
  -6  -4  -4  571.64   22.00
  -6  -4  -4  546.15   23.00
   6   4  -4  537.05   19.50
   4   6   4  512.65   14.90
  -4  -6   4  565.14   19.60
  -6   4   4  548.45   16.00
   4   6   4  523.35   25.40
  -6   4   4  537.25   14.90
  -4   6  -4  551.34   20.60
  -4  -6   4  547.05   18.20
  -6   4   4  558.84   19.40
  -4   6  -4  499.55   20.30
   4  -6  -4  537.15   16.50
   6  -5  -4  303.47   10.20
  -6   5  -4  308.47   15.00
   6   5   4  321.87   18.90
   5   6  -4  314.57   15.00
   6   5   4  294.77   12.90
  -5  -6  -4  308.17   17.00
   5   6  -4  317.67   12.10
   6  -5  -4  309.37   10.70
  -5   6   4  315.87   12.60
  -6   5  -4  307.07   20.40
   5  -6   4  316.67   10.50
  -6  -5   4  329.97   13.80
  -6  -5   4  334.77   14.60
  -6  -5   4  337.17   14.40
   6  -5  -4  318.27   15.20
   5  -6   4  310.27   15.00
   5  -6   4  336.67   14.50
  -5  -6  -4  286.37   16.10
  -5   6   4  309.47   13.70
   5   6   4  311.57   13.20
   5  -6  -4  332.07   15.30
  -5  -6   4  317.37   13.20
   6  -5   4  311.87   15.10
   5  -6  -4  298.47   11.50
  -6   5   4  304.87   11.10
  -5   6  -4  308.87   15.50
  -5  -6   4  308.67   14.30
  -6  -5  -4  328.07   17.20
  -6   5   4  308.77   13.90
  -6  -5  -4  323.97   18.10
   6  -5   4  297.97   14.40
   5  -6  -4  302.87   10.90
   6   5  -4  315.07   13.30
   5   6   4  313.47   18.30
  -5   6  -4  312.97   14.10
   6  -5   4  310.07   11.30
   6   5  -4  307.27   15.30
   6   6   4  194.48   15.60
   6  -6  -4  186.38    9.10
  -6  -6   4  205.08   11.50
  -6   6   4  183.48   11.30
   6  -6  -4  175.48   12.60
  -6  -6  -4  190.18   14.50
   6  -6  -4  194.68    8.50
  -6   6  -4  184.68   13.00
  -6  -6   4  195.88   11.00
   6  -6   4  188.28   12.20
   6  -6   4  198.38    8.60
   6   6   4  180.88   10.60
  -6  -6  -4  173.98   15.70
  -6   6  -4  204.98   12.60
   6   6  -4  191.58   13.60
   6   6  -4  183.78    9.80
   6  -6   4  189.18   12.70
  -6  -6   4  203.58   12.20
  -6   6   4  184.88    9.70
   0  -7   4    1.70    4.20
  -7   0   4    7.90    5.90
   0   7   4    1.30    3.30
   0   7   4   13.10    6.60
   0  -7   4    1.80    4.30
   7   0   4    2.60    9.10
   7   0  -4   17.30    6.60
  -7   0  -4    4.60    4.10
   0  -7  -4   -4.50    5.30
   0   7   4    3.80    3.50
   7   0   4    0.10    3.80
   0   7  -4    3.30    6.20
   7   0  -4    7.00    4.20
   7   0   4  -10.10    6.30
  -7   0   4   -0.10    2.50
  -7   0   4    3.20    2.60
  -1   7   4  195.98    9.80
   1   7  -4  198.08   14.00
  -7   1  -4  187.08   20.40
   7  -1  -4  187.98   12.40
  -7  -1   4  187.88   11.40
  -7   1  -4  214.18   10.10
  -1  -7  -4  208.78   12.50
  -7   1  -4  202.88   13.00
   7   1   4  214.68   13.50
   7   1   4  184.88   10.00
  -1  -7  -4  192.88   11.40
  -7  -1   4  188.98    8.40
  -1   7   4  212.68   10.00
   1   7  -4  221.48   14.10
   1  -7   4  187.58   10.90
   7   1   4  202.78   17.90
  -7  -1   4  200.68    8.00
   1  -7   4  199.38   10.60
   1   7   4  196.38    9.00
   7  -1   4  194.68   11.90
   1   7   4  205.78   13.70
   7   1  -4  187.18   10.40
  -7   1   4  199.38   11.50
   7  -1   4  199.58    9.60
   1  -7  -4  211.48   10.40
  -7  -1  -4  152.08   20.00
   1   7   4  204.58   10.00
  -7  -1  -4  200.18    8.20
   1  -7  -4  202.28   11.20
  -1  -7   4  203.18   10.90
  -1  -7   4  210.68   10.60
  -1   7  -4  196.38   13.30
   7   1  -4  219.28   11.70
  -7  -2   4  252.77   10.10
  -7  -2   4  265.17   13.10
  -2   7   4  274.87   13.10
  -2   7   4  260.87   11.50
  -2   7   4  254.47   11.70
   7  -2  -4  275.87   14.00
   7   2   4  257.17   11.50
  -2  -7  -4  254.97   13.70
  -7   2  -4  254.57   13.90
  -7  -2   4  253.17   10.80
   2   7  -4  261.67    8.60
   2  -7   4  250.87   12.10
   7   2   4  240.88   19.20
  -2  -7  -4  243.18   14.30
   2  -7   4  259.77   13.00
  -7   2  -4  265.67   12.10
   2   7   4  266.27   11.60
   2   7   4  273.37   16.20
   7   2  -4  259.17   12.90
   2   7   4  252.67   10.00
  -7   2   4  263.17   12.80
  -7  -2  -4  247.58    8.90
  -7  -2  -4  272.27   17.10
   2  -7  -4  267.67   11.10
  -7  -2  -4  253.87   17.50
   2  -7  -4  256.07   11.70
  -2  -7   4  248.78   11.50
  -2  -7   4  266.27   12.30
  -2   7  -4  243.38   14.50
   7  -2   4  266.57   12.10
   7  -2   4  264.87   13.00
   7   2  -4  234.28   12.70
  -2   7  -4  283.07   12.70
   3   7  -4   80.89   14.30
  -7   3  -4   95.69    8.70
   3  -7   4   92.59    8.60
  -3   7   4   84.69    8.40
  -7  -3   4   97.49    8.10
   7  -3  -4  120.39   11.10
  -7  -3   4   96.79    9.50
  -3   7   4  103.39    9.60
  -7  -3   4  101.99    7.40
   7   3   4   95.39   13.10
  -7   3  -4   98.19   10.30
  -7   3  -4   78.99   13.20
   7   3   4   95.49    8.10
   3   7  -4   94.39    5.60
  -3  -7  -4  102.99   11.90
   3  -7   4   96.19    9.50
  -3   7   4   86.99    8.00
  -3  -7  -4  108.89   10.70
   7  -3   4   91.49    7.40
   3   7   4   89.69    5.90
   7   3  -4   87.29    9.20
  -3  -7   4   96.79    8.40
   7  -3   4   91.09    9.70
  -3   7  -4  110.19    9.10
   3  -7  -4   86.49    7.60
  -3   7  -4   95.09   10.90
   3  -7  -4   91.59    7.00
   3   7   4   98.99    7.90
   7   3  -4  100.19   10.40
  -3  -7   4   97.39    9.90
   3   7   4   96.79   12.90
  -7  -3  -4   94.29   14.90
  -7  -3  -4   81.49   13.10
  -3  -7   4   99.39    7.90
  -7   3   4   94.89    9.20
   7  -4  -4  155.48   12.20
   4   7  -4  170.68   11.70
  -7  -4   4  162.78   11.40
  -4   7   4  163.78   10.60
   4  -7   4  177.28   11.00
   4  -7   4  177.18   11.60
   7   4   4  177.48   10.10
   4  -7   4  171.78    6.30
  -7   4  -4  171.78   13.40
  -4   7   4  165.58   10.80
   4   7  -4  162.78    8.00
   7   4   4  164.38   16.00
  -7   4  -4  185.88   19.70
  -4   7   4  179.58   10.50
  -7  -4   4  181.18   10.60
  -7  -4   4  173.98   10.00
  -4  -7  -4  167.18   12.90
  -7   4  -4  163.18   11.00
  -4  -7  -4  174.18   13.90
  -4  -7   4  161.38   10.30
   7   4  -4  172.58   12.00
  -4   7  -4  177.08   11.20
  -4   7  -4  157.78   12.20
  -7   4   4  175.08   11.20
   4  -7  -4  179.08    9.30
   7  -4   4  160.88    8.70
   4   7   4  152.78    7.10
  -7  -4  -4  191.18   16.10
   7  -4   4  177.18   11.60
   4   7   4  180.78   15.40
  -4  -7   4  175.78   11.60
  -7  -4  -4  184.08   14.90
   7   4  -4  166.38   10.30
  -4  -7   4  180.78   10.00
   4   7   4  164.38    9.70
  -7   5  -4   94.99   14.70
   5   7  -4   86.19   11.00
  -5   7   4   62.69    9.00
   5  -7   4   69.49    9.70
  -7  -5   4   87.19    9.40
  -7  -5   4   79.59   10.10
   7   5   4   90.89   15.60
   7  -5  -4   72.89   14.10
   7  -5  -4   78.59    6.00
   5  -7   4   64.49    5.40
  -5  -7  -4   78.69   11.00
  -7   5  -4   67.89   10.30
  -5  -7  -4   83.69   11.70
  -7  -5   4   65.29    8.60
   5  -7   4   67.09    9.10
   5   7  -4   64.89    6.80
   7   5   4   56.19    7.80
  -7   5  -4   80.99    9.80
  -5   7   4   70.39    8.50
  -7   5   4   73.69    5.90
   7   5  -4   84.19    8.50
   7  -5   4   68.49    9.80
   7   5  -4   85.59   11.40
  -5  -7   4   68.69    9.70
   7  -5   4   58.39    6.90
  -7  -5  -4   77.79   11.80
  -7   5   4   66.89    9.50
   5  -7  -4   74.99    6.60
  -5   7  -4   71.99   10.60
  -7  -5  -4   68.89   11.40
   5   7   4   88.59   14.90
   5  -7  -4   68.09    7.20
   5   7   4   59.59    7.80
  -5   7  -4   68.99    8.50
   5   7   4   63.89    4.70
  -5  -7   4   79.99    8.20
  -7   5   4   61.59    8.90
  -5  -7   4   77.19    8.50
  -7   6  -4   87.19   11.00
   7   6   4   95.29   14.60
   6  -7   4   68.39   10.00
  -7  -6   4   83.39    9.70
  -6   7   4   74.29    9.10
   7   6   4   77.39    8.50
  -7  -6   4   83.79    9.50
  -6   7   4   81.39    9.00
   7  -6  -4   75.69    7.30
  -7  -6   4   67.49   10.10
   7  -6  -4   79.19   10.70
   6   7  -4   82.89   12.10
   6  -7   4   85.49    6.70
   7  -6  -4   85.29    7.00
   6   7  -4   72.09    7.70
  -6  -7  -4   88.39   12.60
  -7   6  -4   74.99   10.00
   6  -7   4   79.39   10.70
  -6  -7  -4   78.19   13.50
  -6  -7   4   95.19   10.50
   6  -7  -4   88.79   10.90
   6   7   4   74.59    8.60
   7   6  -4   74.99   12.10
   7  -6   4   85.59    7.50
   7   6  -4   85.99    8.70
  -7  -6  -4   78.99   13.50
  -6   7  -4   80.49   10.30
   7  -6   4   67.69   10.30
   6  -7  -4   79.99    7.00
  -7  -6  -4   85.89   13.30
  -6  -7   4   75.89    9.80
  -6  -7   4   86.29    9.10
  -6   7  -4   87.79   11.10
  -7   6   4   75.69    7.80
  -7   6   4   84.39    9.60
   6   7   4   76.29   11.90
   6  -7  -4   81.29    7.70
   7  -7   4   14.90    5.40
  -7   7  -4   20.20    6.90
   7   7  -4    7.60    8.50
   7  -7   4   12.30    6.90
   7  -7  -4   13.90    5.10
   7  -7  -4   13.40    4.80
   7  -7   4   18.30    7.50
  -7  -7   4   17.50    7.30
  -7  -7  -4   26.70    9.30
  -7   7  -4   15.40    6.80
  -7  -7   4   18.00    6.40
  -7   7   4    8.70    5.70
   7   7   4   16.90    5.60
  -7  -7   4   15.80    6.60
   7   7   4    9.70    9.80
  -7   7   4   23.70    6.70
  -7  -7  -4   20.40    8.30
   7  -7  -4   19.90    8.00
   7   7  -4    7.40    5.30
   0   8   4   46.50    8.30
   0   8   4   36.00    5.50
   8   0   4   18.10   12.10
   8   0  -4   32.60    6.20
  -8   0   4   37.00    7.20
  -8   0   4   31.30    4.70
   0   8   4   32.60    5.30
   8   0  -4   28.80    7.60
  -8   0   4   30.20    5.00
   0  -8   4   38.10    6.50
   0   8  -4   45.60    6.90
   8   0   4   42.20    8.80
   0  -8   4   41.30    6.50
  -8   0  -4   38.40    5.50
   0  -8  -4   38.40    6.70
   8   0   4   32.70    5.80
   0  -8  -4   32.90    7.00
  -8   0  -4   23.90   11.30
   0   8  -4   38.70    9.00
  -8  -1   4   92.29    7.10
   1  -8   4   98.89    8.80
   8   1   4   99.99   17.30
  -1  -8  -4  109.09   10.40
   1   8  -4  104.39    9.60
  -1  -8  -4  115.99   11.10
  -8   1  -4  101.09    8.30
   8   1   4  103.19    8.60
  -1   8   4  106.19   11.80
  -1   8   4   99.29    8.00
  -8  -1   4  105.39   10.20
   8  -1  -4  115.59   10.60
   1  -8   4   93.49    8.40
   1   8  -4  100.09   12.60
  -8   1  -4   87.29   13.20
  -1   8   4   98.59    8.00
  -8   1  -4  102.79   16.40
  -8  -1   4   99.99    7.20
  -8  -1  -4  108.79    7.30
  -1   8  -4   93.29    9.60
   1   8   4   98.99    7.40
   8  -1   4   98.99    8.10
  -1   8  -4  104.49   11.30
  -8  -1  -4  106.79   15.50
  -8   1   4   96.09   10.00
   1   8   4   96.29    7.90
   1  -8  -4   93.69   10.10
   8  -1   4  104.99   11.10
   1  -8  -4  105.09    8.50
   1   8   4   87.19   12.00
   8   1  -4  102.29   10.60
  -1  -8   4   91.29    8.30
  -1  -8   4  103.39    8.80
   8   1  -4   97.79    9.90
  -2  -8  -4   84.19   10.30
  -2   8   4   94.59   10.30
  -8  -2   4   82.19    9.90
   2   8  -4   82.79   12.10
  -2   8   4   81.89    8.10
   8   2   4   91.49   15.60
   2  -8   4   72.69    8.20
  -8   2  -4   81.69   13.60
  -8   2  -4   81.59   10.70
   2   8  -4   81.89    4.80
  -2  -8  -4   79.39   11.30
   8  -2  -4   74.19   10.20
  -8   2  -4   87.09    8.70
  -8  -2   4   82.79    7.90
   2  -8   4   74.79    9.20
   2   8  -4   72.19    9.70
  -8  -2   4   63.19    7.20
  -2   8   4   82.29    7.80
   8   2   4   82.19    8.60
   2   8   4   81.49    7.60
   8   2  -4   78.29   10.20
   8  -2   4   72.09    7.60
   2  -8  -4   76.29    7.60
  -8   2   4   84.19    9.40
  -2  -8   4   71.29    7.80
   8   2  -4   85.59   10.80
   2   8   4  102.69   12.70
   8  -2   4   79.19   10.80
   2  -8  -4   72.49    8.30
  -2  -8   4   80.59    8.40
  -2   8  -4   84.49   10.60
  -8  -2  -4   90.49   14.00
   2   8   4   74.49    6.80
  -8  -2  -4   75.99   12.40
  -2   8  -4   82.09    9.10
  -8  -2  -4   72.49    6.40
  -3   8   4   35.60    6.10
   8   3   4   41.60   11.50
   3   8  -4   36.70    4.90
  -8  -3   4   34.50    7.60
   3   8  -4   43.50    7.40
  -8  -3   4   31.40    6.40
   3  -8   4   51.39    7.50
  -8   3  -4   43.20    7.00
  -3  -8  -4   55.69    8.80
  -8  -3   4   37.20    6.30
  -3   8   4   39.20    6.30
  -8   3  -4   44.20   11.90
   3  -8   4   32.50    6.90
  -3   8   4   45.30    8.00
   8  -3  -4   39.40    8.60
  -8   3  -4   51.19    8.70
   8   3   4   51.79    7.10
  -3  -8  -4   47.50    9.20
   8   3  -4   32.30    7.90
   8   3  -4   47.70    7.30
  -3   8  -4   32.50    7.80
  -3   8  -4   32.70    5.90
  -8   3   4   34.60    7.30
   3  -8  -4   38.80    6.30
   3   8   4   35.60    9.30
   3   8   4   33.00    4.90
  -8  -3  -4   56.49   12.10
  -8  -3  -4   36.70   10.80
   3   8   4   34.30    5.30
   3  -8  -4   40.40    7.20
   8  -3   4   47.20    7.80
  -3  -8   4   34.60    5.80
  -3  -8   4   36.40    6.00
   8  -3   4   42.30    6.00
  -8   4  -4   57.29   13.70
  -4   8   4   70.09    9.10
   4   8  -4   60.29    9.80
   8  -4  -4   60.39    9.30
   4  -8   4   68.39    8.80
  -8  -4   4   63.09    8.80
  -4  -8  -4   54.69    9.30
  -8  -4   4   55.39    8.90
   8   4   4   65.19    8.10
   8   4   4   66.69   12.60
  -8   4  -4   71.79   10.80
  -8  -4   4   57.19    8.30
   4  -8   4   59.99    9.80
  -4  -8  -4   60.99    9.70
  -8   4  -4   44.00    7.60
  -4   8   4   56.39    7.70
   8   4  -4   56.59    7.90
  -8   4   4   65.69    8.90
  -8  -4  -4   75.39   12.40
  -4  -8   4   68.19    8.00
   4   8   4   63.09   10.60
  -8  -4  -4   77.09   12.40
   4  -8  -4   69.29    7.80
   4  -8  -4   57.99    6.60
  -4   8  -4   56.49    8.10
   4   8   4   60.09    7.70
  -4  -8   4   56.29    8.20
   8  -4   4   59.29    9.80
  -4   8  -4   74.59   10.90
   4   8   4   57.99    6.10
   8  -4   4   54.09    6.90
  -4  -8   4   68.39   10.30
  -8   5  -4   47.70    8.50
  -8   5  -4   56.59   15.30
  -8  -5   4   65.69   10.30
  -5   8   4   51.39    8.60
   5   8  -4   59.19    9.00
   5  -8   4   58.19    9.00
  -8   5  -4   49.10    8.20
  -8  -5   4   53.89    9.20
  -5   8   4   51.89    9.50
  -5  -8  -4   73.49   10.60
   5  -8   4   55.69    8.50
  -5  -8  -4   74.09   11.00
   8  -5  -4   49.60    9.20
   8   5   4   55.29    8.20
   5   8  -4   49.20    6.50
   8   5   4   41.20   12.00
  -8  -5  -4   34.10   10.40
   5  -8  -4   43.00    7.60
   5   8   4   46.90   10.50
  -8  -5  -4   61.19   10.80
   5   8   4   44.60    5.50
   8  -5   4   62.59   10.30
  -5   8  -4   76.49   10.00
  -8   5   4   48.30    5.60
  -5  -8   4   73.29    9.30
  -5  -8   4   50.69    8.00
  -5  -8   4   60.89    8.90
  -5   8  -4   62.99    9.00
  -8   5   4   62.19    9.50
  -8   5   4   51.39    6.40
   8   5  -4   56.79    9.70
   8   5  -4   44.00    7.00
   5   8   4   61.19    8.00
   8  -5   4   52.39    7.60
   5  -8  -4   51.29    7.20
  -8  -6   4  107.19   10.60
   8   6   4   90.19    9.10
  -8   6  -4   84.19   16.70
   8  -6  -4   81.99   12.00
  -8   6  -4   73.69   10.40
  -6  -8  -4   88.29   11.90
  -8  -6   4   76.59   11.10
  -8   6  -4   88.89   11.50
   8   6   4  110.19   17.00
  -6   8   4   80.49   10.50
   6  -8   4   84.49   10.40
  -6   8   4   71.79    9.70
   6   8  -4  101.69   13.80
   6   8  -4   78.39    8.00
   6  -8   4   86.19    6.80
  -6  -8  -4   85.29   12.80
   6  -8   4   81.59   11.40
  -8  -6   4   87.89   11.10
  -6   8  -4   94.79   10.80
   8  -6   4  124.29   15.30
  -6   8  -4   77.79   10.90
   8   6  -4   93.39    9.30
   8  -6   4  109.69   12.00
  -6  -8   4   73.89    9.70
  -8   6   4   82.99   10.20
   8   6  -4   81.09   14.10
   6   8   4   79.79    8.70
  -8   6   4   71.19    7.60
  -8   6   4   71.89   13.20
   6  -8  -4   93.29    9.10
   6   8   4   75.89   12.00
  -8  -6  -4   78.49   14.10
  -6  -8   4   89.59    9.50
  -8  -6  -4  120.09   15.20
   6  -8  -4   93.09    8.20
   6  -8  -4   79.79   11.40
  -6  -8   4   90.19   11.20
   8   7   4    9.20    6.10
  -7  -8  -4   12.80    9.10
   7   8  -4    1.30    5.00
   7  -8   4   10.20    7.40
   7  -8   4   -4.60    8.60
  -8   7  -4    8.30    6.90
  -8  -7   4    9.90    6.80
   8  -7  -4   10.70    5.90
  -8  -7   4   11.30    6.70
   7   8  -4   15.70    9.00
  -7  -8  -4   15.50   11.20
   7  -8   4   15.40    7.70
   8  -7  -4    1.60    7.70
  -8   7  -4   20.50    7.70
  -8  -7   4   21.60    8.20
  -7   8   4    0.30    6.50
  -7   8   4    7.40    6.30
   8   7   4   34.80   11.20
  -7   8  -4   11.80    7.10
  -7  -8   4    8.00    7.40
   8  -7   4    8.80    7.70
   8   7  -4    6.80    6.00
  -8   7   4    6.50    5.90
  -8  -7  -4   21.50   17.50
   8   7  -4    0.20    9.00
  -8   7   4    5.50    6.10
   8  -7   4    8.00    6.10
   7   8   4    8.90    5.70
  -7   8  -4   19.30    6.80
   7   8   4    9.40   10.70
  -7  -8   4   11.70    6.70
  -8  -7  -4   14.90    9.10
  -7  -8   4   17.80    6.60
   7  -8  -4    3.70    5.40
   7  -8  -4   18.20    5.60
   7  -8  -4    0.80    7.50
   8  -8  -4   13.10    8.50
  -8   8   4    2.80    6.00
  -8   8  -4    6.30    6.90
  -8   8   4   -6.60    6.80
   8   8   4   -9.90   11.20
   8   8  -4   -5.60    9.70
  -8  -8   4    2.10    7.20
   8   8  -4    3.60    5.60
   8  -8   4   -3.30    8.20
  -8  -8  -4    3.50    8.70
   8   8   4   -0.70    5.30
  -8  -8  -4   15.40   10.40
  -8  -8   4    5.90    6.80
   8  -8   4    8.40    7.90
  -8  -8   4   -3.70    7.60
   8  -8  -4   -0.80    6.00
  -8   8  -4    1.50    7.40
   8  -8   4   -3.20    6.00
  -9   0  -4   61.89   13.30
  -9   0   4   51.09    8.00
   0  -9   4   70.69    8.20
   0   9   4   66.49    7.80
  -9   0   4   66.29   10.10
   9   0   4   65.29   13.00
  -9   0  -4   45.50    7.80
   9   0  -4   80.69   10.80
   9   0   4   80.59    8.60
   9   0   4   82.09   12.40
   0   9  -4   84.79    9.80
   0   9   4   63.19    9.40
   0  -9  -4   52.29    8.80
   9   0  -4   64.39   10.70
   0   9   4   57.19    7.20
  -9   0   4   61.69    6.50
   0   9  -4   80.59   12.00
   0  -9  -4   74.79    9.50
   0  -9   4   60.39    8.60
  -9  -1   4  159.08   11.90
  -9  -1   4  147.09    9.50
   9   1   4  191.08   20.70
  -1  -9  -4  164.98   12.70
  -9   1  -4  158.58   19.00
  -9   1  -4  159.48   10.40
  -9   1  -4  160.68   13.90
   1   9  -4  165.18   14.10
  -1   9   4  165.78   13.60
  -1   9   4  163.88    9.90
   1  -9   4  159.68   11.10
   1   9  -4  171.98   11.80
   9   1   4  175.88   10.60
  -1   9   4  164.68   10.10
   9  -1  -4  159.78   12.30
   1  -9   4  165.88   10.50
  -9  -1   4  160.88    9.40
  -1  -9  -4  158.18   12.00
   9   1  -4  180.88   13.00
   1   9   4  164.68    9.90
  -9  -1  -4  164.28    9.40
  -9  -1  -4  174.18   18.60
   9   1  -4  156.78   12.20
  -1   9  -4  157.28   13.60
  -1   9  -4  178.68   10.90
   9  -1   4  177.78   10.40
   1   9   4  183.58   14.60
   9  -1   4  158.08   13.40
  -9   1   4  160.38   12.10
   1   9   4  158.58    9.60
  -1  -9   4  152.98   10.70
   1  -9  -4  170.48   11.20
  -1  -9   4  167.78   10.40
   1  -9  -4  165.78   10.60
  -9   1   4  170.38    7.20
   9   2   4  145.39   18.40
  -9  -2   4  149.88   10.20
   9   2   4  165.28   10.40
   2   9  -4  150.88    6.70
  -9   2  -4  117.59   19.10
  -2   9   4  149.69   10.00
   9  -2  -4  159.38   12.90
   2   9  -4  164.08   11.40
  -9   2  -4  141.09   10.70
  -2  -9  -4  150.98   13.00
  -2   9   4  153.68   10.40
  -9  -2   4  135.59   11.90
   2   9  -4  156.48   14.60
  -9  -2   4  139.09    9.60
   2  -9   4  159.98   11.50
   2  -9   4  145.39   10.50
  -9   2  -4  153.58   13.20
  -2  -9  -4  168.58   12.50
  -9  -2  -4  144.09    9.00
   2   9   4  168.08   10.10
   2  -9  -4  162.28   10.70
   9  -2   4  168.08   12.90
   2   9   4  145.39   14.70
   9   2  -4  169.98   12.30
  -9   2   4  155.58   12.10
  -2  -9   4  151.88   10.20
  -2  -9   4  147.29   10.00
   9  -2   4  162.38   10.20
  -9  -2  -4  165.78   18.30
  -2   9  -4  158.88   11.80
   9   2  -4  155.78   13.30
  -2   9  -4  176.58   13.50
   2  -9  -4  166.48   10.60
   2   9   4  156.38    9.30
  -9  -2  -4  140.79   15.90
   3   9  -4  183.98    8.50
  -9  -3   4  192.38   12.00
   3   9  -4  190.68   15.70
  -3   9   4  185.18   11.10
   3  -9   4  193.38   12.10
  -3  -9  -4  196.08   14.20
   3   9  -4  193.58   13.20
  -9   3  -4  204.68   14.30
   3  -9   4  195.78   12.30
  -3  -9  -4  200.88   13.70
  -9   3  -4  188.18   12.20
  -9  -3   4  195.18   11.60
   9   3   4  169.48   11.40
  -3   9   4  185.58   11.70
  -3   9   4  187.28   14.00
  -9   3  -4  212.28   21.90
   9   3   4  187.08   19.40
  -9  -3   4  192.78   13.20
   9  -3  -4  205.78   13.30
   9   3  -4  181.88   15.30
   3   9   4  193.08   16.60
   3  -9  -4  200.58   11.00
  -3   9  -4  189.98   14.10
  -3  -9   4  189.38   11.50
  -9  -3  -4  187.68   18.10
   9   3  -4  212.98   12.60
   3  -9  -4  182.18   10.60
   3   9   4  175.28   10.70
   9  -3   4  201.88   10.90
  -3   9  -4  204.98   12.50
   9  -3   4  207.78   13.80
  -9   3   4  177.48   12.70
  -3  -9   4  182.18   11.50
  -9  -3  -4  202.68   18.80
   3   9   4  203.98   11.10
  -9  -4   4  187.78   12.90
   9   4   4  202.68   12.20
  -4   9   4  191.78   12.50
  -9  -4   4  192.98   13.50
   4  -9   4  199.48   13.40
   4   9  -4  205.98   13.40
  -4   9   4  187.68   12.50
  -9   4  -4  213.68   14.50
  -4  -9  -4  218.58   14.70
   4  -9   4  225.68   12.70
  -4   9   4  210.68   14.00
  -9   4  -4  201.48   23.10
   9  -4  -4  190.68   13.60
  -9   4  -4  208.48   13.50
   9   4   4  186.78   19.90
   4   9  -4  211.88   12.00
  -4  -9  -4  225.68   15.90
   4   9   4  192.68   11.40
   9   4  -4  213.08   16.20
   9   4  -4  210.08   12.00
  -4   9  -4  199.88   13.80
  -4  -9   4  198.48   11.90
  -9  -4  -4  216.98   17.40
  -4  -9   4  188.58   11.90
   9  -4   4  209.18   11.20
   9  -4   4  213.88   14.10
  -4   9  -4  225.88   12.90
   4   9   4  198.48   17.30
   4   9   4  211.98   10.00
  -9   4   4  211.88   13.10
   4  -9  -4  222.18   11.00
  -9  -4  -4  189.78   18.20
  -9  -5   4  142.19   12.40
  -5   9   4  118.29   11.20
   5   9  -4  146.09    8.80
  -5  -9  -4  154.58   14.30
  -9   5  -4  136.49   13.20
  -9   5  -4  148.49   12.40
  -5   9   4  140.69   12.40
  -9  -5   4  139.69   11.60
   5  -9   4  147.49   12.30
   9  -5  -4  137.09   13.80
   9   5   4  164.88   19.00
  -9  -5   4  148.09   12.90
   9   5   4  141.99   10.80
   5   9  -4  148.89   13.80
   5  -9   4  124.99   11.30
  -5  -9  -4  156.98   14.40
  -9   5  -4  147.39   22.80
   5   9   4  153.38   17.60
  -5  -9   4  146.89   11.40
  -5   9  -4  139.89   12.50
   5   9   4  150.48    8.50
   5  -9  -4  155.18   10.60
  -5  -9   4  127.09   10.40
   5   9   4  132.59   10.20
  -9   5   4  133.89   12.00
  -5   9  -4  138.59   11.50
   9  -5   4  136.69   10.40
   5  -9  -4  145.39    9.90
  -9  -5  -4  135.99   17.70
  -9  -5  -4  157.38   15.90
   9  -5   4  141.19   12.70
   9   5  -4  161.88   24.70
   9   5  -4  159.88   11.10
  -9   6  -4  180.58   14.80
  -6  -9  -4  166.28   16.70
   9  -6  -4  188.28   14.40
  -9  -6   4  206.68   14.10
  -9   6  -4  177.68   26.40
   9   6   4  178.78   20.40
  -6  -9  -4  207.48   15.30
  -9  -6   4  191.68   13.30
   9   6   4  190.88   12.20
  -9   6  -4  178.88   13.60
   6  -9   4  192.98   13.40
   6  -9   4  166.48   14.00
   6   9  -4  162.08   15.70
  -9  -6   4  180.28   13.70
  -6   9   4  179.78   12.60
   6   9  -4  175.18   10.50
  -6   9   4  184.88   13.80
   6  -9  -4  191.78   12.10
  -9   6   4  198.28   13.20
   9   6  -4  199.58   12.10
   6  -9  -4  184.78   11.50
  -9  -6  -4  202.78   17.10
  -9  -6  -4  180.28   18.70
  -6  -9   4  184.68   12.20
   6  -9  -4  180.18   13.80
   6   9   4  190.98   19.40
  -6   9  -4  185.68   14.40
  -6  -9   4  169.48   14.20
  -6   9  -4  186.78   13.20
  -9   6   4  176.58   12.70
   9   6  -4  168.38   17.70
   6   9   4  187.18   11.70
   9  -6   4  186.08   14.30
  -6  -9   4  184.98   12.70
   9  -6   4  205.18   11.80
  -9   7  -4   72.89   11.60
   7   9  -4   83.19   12.20
   7  -9   4   78.99   12.00
   9  -7  -4   86.49   12.90
  -9   7  -4  102.99   13.10
  -7   9   4   74.19   10.10
   9   7   4   60.39   13.50
  -9  -7   4   87.29   13.00
  -9   7  -4   63.09   19.80
  -9  -7   4   73.89   12.00
   9   7   4   57.99    8.30
  -9  -7   4   65.59   10.00
   7   9  -4   70.99    9.00
   7  -9   4   96.49   13.40
  -7   9   4   67.49    9.70
  -7  -9  -4  108.09   14.60
  -7  -9  -4   61.69   11.30
  -7  -9   4   61.49   11.30
   9  -7   4   81.39   12.60
  -7  -9   4   92.29   11.80
  -9   7   4   68.79   10.90
  -7   9  -4   72.49   11.60
   7   9   4   49.10   12.60
   7  -9  -4   85.99   10.80
  -9  -7  -4   60.99   11.00
   7  -9  -4   83.79   10.70
   9   7  -4   75.69   12.70
  -9   7   4   73.99   12.00
   7   9   4   73.49    9.60
   9  -7   4   82.29   10.60
  -9  -7  -4   66.89   12.50
   9   7  -4   72.59   10.00
  -7  -9   4   83.19   10.70
  -7   9  -4   64.09   11.60
  -9  -8   4   54.39   10.30
  -9  -8   4   54.19    9.80
   9  -8  -4   56.29   10.80
  -9   8  -4   82.79   19.80
  -9   8  -4   45.80    9.40
   8  -9   4   39.30    9.40
  -8   9   4   39.90    8.50
  -9  -8   4   65.59    9.70
   8  -9   4   53.99    8.10
   8   9  -4   51.79   11.90
   8  -9   4   47.30    9.30
  -9   8  -4   59.89    9.70
  -8  -9  -4   95.19   14.80
   9   8   4   31.30    7.00
   8   9  -4   46.00    7.10
   9   8   4   61.59   14.10
  -8   9  -4   36.80    9.30
   8  -9  -4   53.39    8.60
   8  -9  -4   51.29   10.50
   8   9   4   57.09   12.80
   9   8  -4   41.30    7.40
   8  -9  -4   56.39    8.30
  -9  -8  -4   32.90   10.40
  -8  -9   4   43.00    9.20
   9  -8   4   49.10   10.20
  -8   9  -4   55.59    9.90
  -8  -9   4   47.20    8.40
  -9   8   4   33.40   11.00
   9   8  -4   66.69   13.10
  -9  -8  -4   74.69   19.20
   8   9   4   39.20    7.40
   9  -8   4   42.80    9.30
  -9   8   4   52.19    9.20
  -8  -9   4   67.59   10.90
  -9   9   4   19.70    7.80
  -9  -9   4   28.80    8.50
   9   9   4   25.90   11.00
   9  -9   4   31.20    9.30
   9   9  -4   32.10    7.60
   9  -9  -4   22.20    9.60
  -9  -9   4   36.50    9.50
  -9  -9  -4   25.80   10.80
  -9  -9   4   15.90    9.50
  -9   9  -4   39.80    9.40
   9   9  -4   29.20   12.30
 -10   0  -4   -3.70    5.70
   0 -10   4    2.00    4.80
   0 -10  -4   -0.90    5.50
   0 -10   4    6.00    5.10
 -10   0   4    3.00    6.70
   0  10  -4    5.30    5.30
 -10   0  -4   -6.60   11.80
   0  10   4    7.70    4.70
  10   0   4   14.20    6.10
  10   0   4   -2.00   11.70
   0 -10  -4    1.70    5.60
   0  10   4    9.80    8.60
 -10   0   4   -3.20    4.80
   0  10   4    2.60    4.80
  10   0  -4    9.30    7.80
   0  10  -4    2.40    7.30
  -1  10   4   34.90    6.10
  10   1   4   38.90   13.50
   1 -10   4   27.80    5.80
 -10  -1   4   26.80    7.60
  -1 -10  -4   24.80    7.00
  -1  10   4   47.20    9.50
   1  10  -4   30.40    7.80
 -10  -1   4   23.10    6.10
 -10   1  -4   21.20   12.40
 -10  -1   4   34.40    6.80
   1 -10   4   26.60    6.10
 -10   1  -4   28.00    7.20
  -1 -10  -4   25.10    7.10
  10   1   4   29.80    6.60
   1  10  -4   44.70    9.90
  -1  10   4   22.40    5.60
  10  -1  -4   25.90    8.40
 -10   1  -4   32.00    9.80
  10   1  -4   29.00    7.90
 -10   1   4   20.60    4.20
  10  -1   4   39.20    7.00
  -1 -10   4   31.70    6.20
  -1 -10   4   30.50    6.40
   1 -10  -4   44.80    7.40
   1  10   4   29.60    5.90
  10  -1   4   24.20    9.30
 -10  -1  -4   32.50   12.30
 -10  -1  -4   19.70   12.10
   1  10   4   27.70    5.70
   1 -10  -4   39.00    7.20
 -10   1   4   28.10    7.60
 -10  -1  -4   28.80    9.00
   1  10   4   30.60    8.80
  -1  10  -4   39.80    8.60
  -1  10  -4   45.70    7.90
  10   1  -4   10.30    8.40
  10  -2  -4   34.00    9.00
  -2  10   4   28.40    8.80
  -2 -10  -4   28.40    8.40
  10   2   4   -7.50   13.10
 -10   2  -4   27.10    7.30
   2  10  -4   31.20    7.70
  10   2   4   36.90    7.00
 -10  -2   4   15.10    6.70
  -2  10   4   25.90    6.00
 -10   2  -4   34.10   13.70
  -2  10   4   34.10    6.30
 -10  -2   4   28.10    8.00
   2  10  -4   23.40    9.20
 -10   2  -4   29.00    9.20
   2 -10   4   24.90    6.40
  -2 -10  -4   36.30    8.60
   2 -10   4   26.80    6.10
  10   2  -4   42.80    8.30
   2  10   4   33.50    6.20
 -10   2   4   35.10    8.50
   2  10   4   33.80    6.20
   2 -10  -4   34.60    7.10
  10  -2   4   34.20    9.80
  -2 -10   4   39.60    6.80
  10  -2   4   41.00    7.10
  -2  10  -4   29.80    8.20
 -10  -2  -4   34.00   12.60
  10   2  -4   25.20    9.10
 -10  -2  -4   31.90    6.90
   2 -10  -4   36.40    6.90
 -10  -2  -4   26.50   12.30
   2  10   4   54.39   11.30
  -2  10  -4   28.00    6.90
  -2 -10   4   38.40    7.00
   3  10  -4   30.60    8.00
 -10  -3   4   16.70    7.30
  10   3   4   35.50   13.00
  10  -3  -4   28.80    8.60
   3 -10   4   27.20    7.10
 -10   3  -4   31.90    7.70
  -3  10   4   30.60    8.80
  -3 -10  -4   28.90    8.50
 -10  -3   4   27.70    8.20
 -10   3  -4   40.10   15.00
   3  10  -4   27.50    4.50
  -3  10   4   24.90    6.40
  -3  10   4   28.90    6.60
 -10   3  -4   29.90    8.80
  -3 -10  -4   24.00    7.70
   3 -10   4   26.00    6.80
 -10  -3   4   35.50    7.70
  10   3   4   25.10    7.00
   3  10  -4   29.50   10.20
  -3 -10   4   27.70    6.10
  -3  10  -4   32.40    7.50
  -3  10  -4   22.50    7.60
   3 -10  -4   33.40    6.90
  10  -3   4   29.10    6.70
 -10  -3  -4   32.50   12.50
   3  10   4   38.60    6.50
 -10   3   4    8.60    7.00
 -10  -3  -4   51.09   12.70
   3  10   4   28.20    9.90
  -3 -10   4   30.20    6.70
  10  -3   4   36.70    8.90
   3 -10  -4   39.70    6.60
  10   3  -4   30.90    8.10
   3  10   4   33.40    6.10
  10   3  -4   26.40   14.10
 -10   4  -4   33.70   15.70
  10   4   4   29.50   12.50
  -4 -10  -4   34.10    9.40
 -10   4  -4   30.30    8.20
 -10  -4   4   24.70    7.90
 -10  -4   4   22.90    9.70
  10  -4  -4   37.30    9.30
  -4  10   4   34.40    7.00
  -4  10   4   38.70    7.80
  -4 -10  -4   29.80    8.90
  10   4   4   24.60    7.10
   4 -10   4   38.20    8.30
   4 -10   4   29.80    7.50
 -10  -4   4   44.00    9.30
 -10   4  -4   20.50    8.80
   4  10  -4   35.90    9.10
   4  10  -4   47.60   11.40
   4  10  -4   32.50    5.60
  -4  10   4   33.80    8.90
 -10   4   4   30.80    8.40
   4  10   4   27.90   11.00
   4 -10  -4   42.10    6.50
   4  10   4   29.60    6.40
  10  -4   4   33.90    9.10
   4 -10  -4   35.20    6.70
 -10  -4  -4   30.60   12.70
   4  10   4   36.40    6.00
  10   4  -4   33.90    7.90
  -4 -10   4   36.10    6.70
  -4 -10   4   31.30    6.70
  10  -4   4   19.40    6.70
  -4  10  -4   28.60    7.50
 -10  -4  -4   40.20   12.00
  10   4  -4   35.70   11.50
  -4  10  -4   30.60    7.00
  10  -5  -4   22.40    9.20
   5 -10   4    9.00    6.20
 -10   5  -4   29.80   14.90
  10   5   4   17.20   12.20
 -10  -5   4   12.70    7.90
   5  10  -4    4.90    7.80
 -10  -5   4    7.80    7.90
  10   5   4   -1.90    6.10
 -10   5  -4   -2.50    8.30
  -5  10   4    0.70    5.80
  -5 -10  -4   11.00    9.00
  -5 -10  -4    0.50    7.70
 -10   5  -4    3.20    7.20
   5  10  -4    3.60    6.40
   5 -10   4   14.10    6.70
  -5  10   4    8.50    7.80
 -10  -5   4   22.70    8.40
   5 -10  -4   10.10    6.00
  -5 -10   4   -0.30    5.40
   5  10   4    9.00    5.40
  10   5  -4    8.90    6.80
   5  10   4   26.40   11.80
  -5 -10   4    3.30    5.10
  -5  10  -4    6.20    6.80
  10  -5   4   -3.40    6.10
  10   5  -4   14.80   10.70
   5  10   4   -0.20    5.00
  -5  10  -4    8.60    6.60
 -10  -5  -4   17.10   12.10
 -10  -5  -4   -6.20   12.00
 -10   5   4   -0.60    6.90
   5 -10  -4    4.00    5.60
  10  -5   4    9.30    7.70
  10   6   4   18.10   13.30
   6 -10   4   10.40    7.90
 -10   6  -4   17.30   15.80
 -10   6  -4   12.00    8.90
  -6 -10  -4   12.20    9.80
  -6  10   4   16.00    6.80
  10   6   4    5.90    6.70
  10  -6  -4   29.80    9.50
   6 -10   4   23.00    7.60
 -10  -6   4   16.70    8.60
 -10  -6   4   22.40    8.60
   6  10  -4   13.90    5.80
 -10  -6   4   23.40    8.70
  -6 -10  -4   15.00    8.80
 -10   6  -4   11.20    7.90
   6  10  -4    8.00    9.40
  -6  10   4   18.40   13.40
   6  10   4   17.20    6.10
   6 -10  -4   16.40    6.80
  10  -6   4   20.10    8.20
  10   6  -4   23.70    7.20
  10  -6   4   26.30    7.40
  -6  10  -4    5.90    6.80
   6  10   4    8.80   11.30
  -6  10  -4   11.70    6.80
   6 -10  -4    7.60    8.30
  -6 -10   4   13.00    6.40
 -10  -6  -4   31.40   11.10
  10   6  -4   15.70   11.80
  -6 -10   4   11.90    6.10
 -10  -6  -4   -0.20   11.40
 -10   6   4   11.60    7.60
   6 -10  -4   23.80    6.50
  -7  10   4    7.30    7.10
   7  10  -4    6.70    6.20
 -10  -7   4   18.10    8.60
  10   7   4   -7.80   13.00
 -10   7  -4    8.00    8.20
  -7  10   4    5.00   11.10
 -10  -7   4    6.50    8.60
  -7 -10  -4    0.30   11.30
   7  10  -4    0.50   10.10
 -10   7  -4   13.90   19.10
   7 -10   4    5.80    7.60
  10  -7  -4    3.60    9.00
  10   7   4    7.40    6.60
 -10  -7   4   10.60    8.70
   7 -10   4   11.00    8.50
 -10   7  -4   14.00    8.90
 -10   7   4   -4.90   13.70
  10   7  -4  -11.20   11.70
   7 -10  -4    6.10    6.80
  -7  10  -4    3.70    6.90
   7 -10  -4    9.10    6.30
  10   7  -4   13.60    7.80
 -10   7   4    4.60    8.90
   7  10   4   -2.50    5.90
  -7  10  -4   -3.20    7.00
  -7 -10   4   14.10    7.30
  10  -7   4   -5.00    8.40
  10  -7   4  -10.90    7.20
 -10  -7  -4   17.00   10.60
  -7 -10   4   -2.20    6.00
 -10  -7  -4   -9.60   17.20
   7 -10  -4   15.70    8.90
   8 -10   4    5.30    8.40
 -10   8  -4    8.30    8.00
  -8  10   4    0.70    7.30
   8  10  -4   12.10   11.80
 -10  -8   4    5.80    8.80
 -10  -8   4    7.10    9.40
  10   8   4   -0.10    6.60
   8  10  -4    6.20    6.50
  10  -8  -4    4.00    9.10
 -10  -8   4   14.10    9.30
   8 -10   4   12.80    9.20
 -10   8  -4   13.70    9.30
 -10   8  -4   34.80   21.00
  -8  10   4   -3.80    9.90
  -8 -10  -4    5.20    9.80
  -8  10  -4   11.60    8.00
  -8 -10   4    2.00    9.80
  10   8  -4   -9.10   12.70
 -10   8   4   12.20    7.90
   8  10   4   -5.70    5.90
  -8 -10   4   -2.30    8.40
  10  -8   4   12.30    8.40
   8 -10  -4    3.80    9.40
  10   8  -4   -0.50    6.50
 -10  -8  -4    7.50   10.70
  -8  10  -4   -8.40    6.70
  10  -8   4    9.20    8.70
   8 -10  -4  -11.10    8.40
  -8 -10   4    8.20    7.50
   8 -10  -4   14.30   12.00
 -10   9  -4   37.40    9.70
  10  -9  -4   35.70   10.70
  -9  10   4   30.10    8.70
 -10  -9   4   42.90   10.80
   9  10  -4   38.80    8.60
  -9 -10  -4   23.80   10.10
  10   9   4   47.10    9.00
   9 -10   4   51.39   10.80
 -10   9  -4   25.40   10.10
 -10  -9   4   50.39   10.20
 -10   9  -4   81.59   23.90
 -10  -9   4   42.80   11.30
  -9  10  -4   37.40   10.60
  10  -9   4   27.30    9.80
   9  10   4   33.40    8.10
   9 -10  -4   45.90   11.50
 -10   9   4   39.50    8.60
  -9  10  -4   41.30    9.80
  10   9  -4   49.90   15.00
  -9 -10   4   45.90   11.90
  10   9  -4   34.90    8.10
 -10  -9  -4   34.90   12.00
  10  10   4   -3.60    7.30
  10 -10   4    2.70    9.70
 -10 -10   4    3.40    8.80
 -10 -10  -4  -15.20    9.40
 -10 -10   4    1.70   11.90
 -10  10   4   -3.00    7.00
  10  10  -4    0.10    7.60
  10 -10  -4   10.50   14.00
 -10  10  -4    2.60    7.70
   0 -11  -4   12.50    6.50
   0  11  -4    3.30    6.40
   0  11  -4    4.10    7.70
   0 -11   4    8.80    5.70
 -11   0  -4    2.40   13.50
 -11   0   4    3.20    5.70
   0  11   4    1.40    5.10
   0 -11  -4    5.70    6.50
   0 -11   4   11.50    6.30
  11   0  -4   20.40    8.10
   0  11   4    3.40    4.70
   0  11   4    2.90    8.90
 -11   0   4   18.60    8.50
  11   0   4   11.50    6.60
 -11   1  -4   30.20    7.80
 -11   1  -4   24.20   14.00
   1  11  -4   37.30    7.40
  -1 -11  -4   40.50    8.10
 -11  -1   4   47.70    9.70
 -11   1  -4   46.90   10.30
  -1  11   4   31.40    6.60
   1  11  -4   35.50    9.10
  11  -1  -4   38.10    9.40
  11   1   4   35.60   14.20
 -11  -1   4   29.80    7.30
   1 -11   4   33.00    6.90
  11   1   4   40.30    7.50
  -1 -11  -4   62.99    9.30
  -1  11   4   59.49   11.10
   1 -11   4   37.20    6.90
  -1  11   4   35.70    6.70
  -1  11  -4   39.10    9.70
 -11  -1  -4   32.90   14.20
   1 -11  -4   49.00    8.20
 -11   1   4   62.69   10.00
   1  11   4   31.30    6.60
  11   1  -4   45.30   11.10
  -1  11  -4   38.10    7.60
   1  11   4   39.70    6.70
  11  -1   4   44.40   11.20
  11  -1   4   35.30    7.30
 -11  -1  -4   10.50    7.80
  -1 -11   4   41.40    8.00
   1  11   4   45.20   10.40
 -11   1   4   26.90    5.30
  -1 -11   4   43.20    7.90
  11   1  -4   32.20    8.40
   1 -11  -4   56.59    8.50
 -11  -1  -4   32.50   13.40
  -2 -11  -4   42.50    9.30
   2 -11   4   28.70    6.90
 -11  -2   4   32.70    8.10
  -2  11   4   41.30   10.40
 -11   2  -4   33.90   10.10
 -11  -2   4   39.80   11.10
  -2 -11  -4   34.80    8.80
   2  11  -4   37.60   10.20
 -11   2  -4   24.70    8.20
  -2  11   4   36.60    7.40
 -11  -2   4   25.50    8.70
   2  11  -4   29.60    7.80
   2 -11   4   28.30    7.20
  -2  11   4   39.40    7.10
  11  -2  -4   47.30    9.50
  11   2   4   31.20    7.30
 -11   2  -4   40.10   15.00
  11   2   4   11.70   15.40
   2 -11  -4   38.70    6.90
  11   2  -4   41.40    8.90
  11  -2   4   32.30    7.70
   2  11   4   41.20    7.10
  -2 -11   4   57.19    9.70
 -11  -2  -4   48.40    8.50
  -2 -11   4   41.60    7.50
 -11  -2  -4   53.59   14.50
  11  -2   4    8.90    9.50
   2  11   4   48.00   11.30
   2  11   4   21.40    5.80
  -2  11  -4   29.80    6.80
  11   2  -4   29.80   11.00
   2 -11  -4   47.10    7.40
 -11  -2  -4   15.70   14.50
  -2  11  -4   60.49   10.60
 -11   2   4   28.00    8.80
  -3 -11  -4    6.00    7.80
   3 -11   4    9.40    6.20
 -11   3  -4   -6.20    7.10
  -3 -11  -4   -6.50    7.00
   3  11  -4    4.90    7.30
  -3  11   4    5.60    5.80
   3 -11   4   13.30    6.90
  -3  11   4    8.30    5.90
 -11  -3   4   11.20    8.30
  11  -3  -4   -1.70    8.40
  11   3   4    3.80    6.70
 -11   3  -4   -0.10    9.00
 -11  -3   4   -4.40    7.70
  -3  11   4  -11.40    8.20
  11   3   4    6.20   12.80
   3  11  -4    4.00    9.00
 -11   3  -4   26.50   15.30
  -3 -11   4    3.60    5.30
   3  11   4    0.90    5.00
 -11  -3  -4   -0.90   12.90
 -11   3   4    2.10    7.50
   3  11   4   19.60   11.40
   3 -11  -4   11.40    6.10
  11   3  -4    8.10   11.00
  11  -3   4   -0.20    8.80
  -3 -11   4   -2.20    4.60
  -3  11  -4    3.00    6.50
   3  11   4   -2.50    5.00
   3 -11  -4   12.50    5.60
  -3  11  -4   10.90    6.70
 -11  -3  -4   16.10   12.70
  11  -3   4   10.20    6.80
  11   3  -4   -3.20    7.10
   4  11  -4    4.90    7.60
 -11   4  -4   36.30   15.60
 -11   4  -4   24.40    9.70
   4  11  -4   21.90    9.90
  -4  11   4    4.00    6.20
  -4 -11  -4   -3.80    8.90
  -4  11   4   27.40    9.50
   4 -11   4   13.00    7.20
  -4  11   4    7.80    6.90
   4 -11   4    9.40    5.90
  11   4   4    6.20   13.60
  11   4   4    3.50    6.90
 -11   4  -4   13.20    8.00
 -11  -4   4   17.70    8.40
  11  -4  -4   21.10    9.30
 -11  -4   4   15.60    8.40
  -4 -11  -4   11.10    8.60
  11  -4   4   21.10    7.20
  -4 -11   4    4.60    5.90
  11  -4   4    0.20    8.40
   4  11   4    7.90    5.80
  11   4  -4    1.80    6.80
 -11   4   4   10.00    8.10
  11   4  -4    7.30   13.40
 -11  -4  -4    1.30   11.60
  -4 -11   4    6.70    6.20
   4 -11  -4    9.70    6.10
 -11  -4  -4    2.00   13.30
  -4  11  -4    1.40    6.00
   4 -11  -4   12.80    6.60
   4  11   4   -3.80   10.00
   4  11   4    5.90    5.70
  -4  11  -4    8.70    7.20
   5  11  -4    8.90    8.60
 -11  -5   4    7.00    8.50
 -11  -5   4   10.10    9.00
   5 -11   4   14.80    6.70
 -11   5  -4   20.10    8.50
   5  11  -4   19.00   10.90
  -5 -11  -4   18.30    8.70
   5 -11   4   13.60    7.50
  -5  11   4   18.10    7.40
  11  -5  -4   18.10    9.60
 -11   5  -4   31.30   17.50
  11   5   4    7.70    6.90
  -5  11   4   14.30    9.00
  11   5   4    5.50   14.00
 -11  -5   4    6.40    8.40
 -11   5  -4   23.60    9.40
  11   5  -4   20.80    7.60
 -11   5   4   11.20    8.30
  -5  11  -4    4.30    6.80
  -5 -11   4   11.50    7.30
 -11  -5  -4   14.90   13.40
  -5 -11   4   15.20    6.90
   5 -11  -4   22.80    9.20
  11  -5   4    6.50    8.40
  -5  11  -4   20.30    8.30
  11   5  -4   31.40   13.10
   5 -11  -4   12.20    6.50
 -11  -5  -4   21.60   12.50
   5  11   4    7.70    5.60
   5 -11  -4   19.00    7.10
   5  11   4   15.20   12.50
  11  -5   4   19.40    7.40
   5  11   4   14.80    6.40
   6 -11   4   14.40    8.00
  11   6   4    5.60    7.10
 -11   6  -4   22.60    9.10
   6  11  -4   10.50    6.80
  -6  11   4   24.10    7.80
 -11  -6   4   13.50    9.70
  11   6   4   14.30   15.30
   6  11  -4   15.80   10.20
  11  -6  -4   16.20   10.10
  -6 -11  -4   17.50    9.80
 -11   6  -4   23.20    9.80
   6 -11   4   28.20    9.80
  -6  11   4   17.90   10.10
   6  11  -4   24.30   11.40
 -11  -6   4   20.00    9.90
 -11  -6   4   17.00    9.10
 -11   6  -4   12.40   17.30
  11  -6   4    6.40    8.80
  11   6  -4   21.70   13.90
  11  -6   4   26.70    8.30
  -6  11  -4    6.90    7.10
   6 -11  -4   44.00    8.20
 -11   6   4   18.50    9.60
   6  11   4   31.60    7.50
  11   6  -4   36.30    8.50
  -6  11  -4    3.40    7.80
   6 -11  -4   30.50    7.50
  -6 -11   4   15.70    6.50
   6 -11  -4   28.50   10.00
 -11  -6  -4   16.50   11.90
  11  -7  -4   -3.60    9.40
 -11  -7   4    3.20   10.00
  -7 -11  -4    3.50    9.70
  -7  11   4    5.20   10.00
   7  11  -4   -7.10   11.50
 -11   7  -4   13.00   10.10
 -11  -7   4   15.70   10.40
  11   7   4    7.20    6.80
 -11   7  -4   24.40   20.40
   7 -11   4    7.00    7.70
 -11   7  -4   -2.30    8.60
  -7  11   4   -6.20    6.60
   7  11  -4    5.30    7.00
 -11  -7   4   -9.10    9.30
  11   7  -4  -11.10    7.10
  11   7  -4    7.50   13.90
  -7 -11   4   -5.40    8.70
   7 -11  -4   10.00    8.00
  -7  11  -4   -7.00    6.70
   7 -11  -4   25.50    7.80
 -11  -7  -4    7.20   11.10
   7  11   4   -4.90    6.50
  11  -7   4   14.40    9.10
  11  -7   4    5.40    8.30
 -11   7   4    2.60    7.50
  -7  11  -4   -5.40   11.00
   7 -11  -4    7.50    9.60
   8  11  -4    5.20    7.50
 -11   8  -4   15.50    9.30
 -11  -8   4   23.60   10.80
   8 -11   4   24.20   10.30
  -8  11   4    9.50    7.20
 -11   8  -4   10.60   11.10
  11   8   4    3.50    7.10
 -11  -8   4    8.20   10.40
 -11  -8   4   22.40   10.10
  -8 -11  -4    5.00    9.70
  11  -8  -4   20.10   11.20
 -11   8  -4    8.30   20.80
  -8 -11   4   -1.70    6.70
  11   8  -4   22.70   15.70
  11  -8   4   18.10    9.30
   8 -11  -4   19.00   10.30
  11  -8   4   -3.70    9.60
   8 -11  -4   15.70    8.80
 -11   8   4    1.70    7.80
   8  11   4    1.40    6.60
 -11  -8  -4    9.90   10.80
  11   8  -4    6.60    8.10
  -8  11  -4    6.90    7.30
   9  11  -4   50.99    9.60
   9 -11   4   33.50   11.30
  11  -9  -4   40.00   11.70
  11   9   4   43.70    8.90
  -9 -11  -4   50.29   11.80
 -11  -9   4   60.09   12.60
 -11   9  -4   45.10   10.40
  -9  11   4   40.00    9.00
 -11  -9  -4   35.90   12.70
  -9 -11   4   46.40    9.80
 -11   9   4   44.30    9.50
  11   9  -4   33.30    9.20
   9  11   4   50.59    9.20
   9 -11  -4   79.19   13.20
  -9  11  -4   33.70    9.30
 -11 -10   4   11.80    9.60
 -10  11   4   15.30    8.30
  10 -11   4    6.30   10.60
  11  10   4   18.40    8.40
 -10 -11  -4   -7.00   10.20
 -11  10  -4   14.40    9.20
  10  11  -4   -7.30    8.60
  11 -10  -4    4.50   10.80
 -11 -10   4   16.90   13.20
  10 -11  -4   -0.80   11.30
 -11 -10  -4   -1.80   11.00
 -10  11  -4    1.40    8.10
 -10 -11   4    4.60    8.30
  11  10  -4    1.60    9.10
  10  11   4    8.70    8.00
 -11  10   4   -2.90    7.90
  11 -10   4    0.10   11.00
 -11 -11   4   10.50   10.20
  11  11  -4   -4.40    9.30
  11 -11   4    2.80   10.90
  11 -11  -4   -6.00   11.90
  11  11   4    6.10    8.30
 -11 -11  -4   -2.50   11.70
 -11  11   4  -10.20    7.80
 -11  11  -4  -13.20    8.40
  12   0   4    3.00    6.70
   0 -12  -4   13.60    7.50
 -12   0   4   -7.00    7.00
   0  12  -4   -1.60    6.50
   0  12   4   10.90    5.50
  12   0  -4   -2.30    8.10
 -12   0  -4    5.00    8.50
   0 -12  -4    2.30    6.70
   0  12  -4    6.20    8.30
 -12   0   4   -6.90    8.50
   0  12   4    3.70    5.60
 -12   0  -4   -2.20   14.60
 -12   0  -4  -15.60   13.80
   0  12   4   -1.40    8.90
   0 -12   4   11.30    6.10
 -12   1  -4   15.70    8.00
   1  12  -4   12.30    8.50
 -12  -1   4    4.50    8.20
  -1 -12  -4   19.10    7.30
  -1  12   4    3.20    9.50
   1 -12   4   14.30    6.60
  -1  12   4   11.70    5.80
  12   1   4    6.10    6.80
  12  -1  -4    1.50    8.30
  -1  12   4   12.00    5.70
 -12  -1   4    6.90    8.00
 -12   1  -4    8.90   10.30
   1  12  -4   16.60    7.50
  -1 -12  -4   14.00    7.10
  12   1   4    8.40   14.00
 -12   1  -4   12.50   15.00
 -12  -1  -4   19.10   14.30
  12   1  -4   12.20   12.60
   1  12   4    8.50    5.50
 -12   1   4    9.30    8.80
 -12   1   4   -2.00    5.80
  -1  12  -4   17.00    9.00
  12  -1   4   14.70    7.30
   1 -12  -4   12.90    6.20
 -12  -1  -4   -3.50   10.30
  -1  12  -4    2.00    6.50
   1  12   4   12.30    6.10
 -12  -1  -4   -4.90   13.60
  12   1  -4    8.20    8.40
  -1 -12   4    7.90    6.20
   1  12   4    6.60    9.80
   1 -12  -4    7.40    6.60
  -2  12   4   33.20    7.30
   2  12  -4   26.60   10.20
 -12  -2   4   31.10    9.50
  12  -2  -4   32.70    9.50
   2  12  -4   16.20    7.60
   2 -12   4   34.60    7.20
  -2 -12  -4   31.30    8.10
 -12   2  -4   24.30   15.90
  -2 -12  -4   27.40    7.90
  -2  12   4   22.80   10.50
  12   2   4   40.60    8.00
 -12  -2   4   18.60    9.00
  12   2   4   27.30   15.00
 -12   2  -4   25.00    8.60
  -2  12   4   35.50    7.20
 -12   2  -4   43.10   10.90
   2 -12  -4   40.90    7.40
  12  -2   4   41.60   11.80
   2 -12  -4   34.30    7.70
  -2 -12   4   40.30    8.00
 -12   2   4   18.00    9.00
  12   2  -4   25.40   15.50
   2  12   4   27.50    7.00
  12  -2   4   37.00    8.20
  -2  12  -4   38.00    9.80
  12   2  -4   26.60    8.40
 -12  -2  -4   21.50   16.30
   2  12   4   20.20    5.90
   2  12   4   21.50   11.30
 -12  -2  -4   30.60   14.80
  -2  12  -4   30.40    7.60
  12   3   4  -14.90   16.50
   3 -12   4    3.40    6.50
  -3  12   4    5.20    5.90
 -12   3  -4   19.70   16.90
 -12   3  -4   20.00   10.60
  12  -3  -4   36.60   14.90
  -3 -12  -4   18.40    8.80
   3  12  -4   26.40   10.60
 -12  -3   4   25.10    9.80
 -12   3  -4   10.80    8.40
  -3  12   4   13.90   10.10
 -12  -3   4   17.40   13.30
  -3  12   4   15.50    7.10
 -12  -3  -4   38.60   14.90
   3  12   4   26.80    7.30
  12   3  -4    1.00    7.90
  -3  12  -4    9.50    7.30
 -12  -3  -4   20.90   13.00
   3  12   4   21.60    6.20
  12  -3   4   27.50   10.90
   3 -12  -4   10.90    7.00
   3  12   4   -9.90   12.00
   3 -12  -4   15.90    6.10
 -12   3   4   27.10    9.40
  12   3  -4   19.60   13.60
  12  -3   4   20.20    7.80
  -4  12   4   18.70   10.70
 -12   4  -4  -25.90   16.70
 -12   4  -4   16.20    8.60
   4  12  -4   14.50   10.30
  12   4   4   38.60   16.30
  12  -4  -4   25.30   12.90
 -12  -4   4   22.60    9.80
  -4  12   4   28.90    8.10
 -12  -4   4    9.30    9.80
 -12   4  -4   40.30   11.20
  -4 -12  -4   34.40    9.50
 -12  -4   4   19.70   10.50
  12   4   4   18.80    7.50
 -12  -4  -4  -21.50   14.30
   4 -12  -4   19.70    7.10
  12   4  -4   24.60   14.20
 -12  -4  -4   12.70   13.60
  12  -4   4   18.90    9.50
   4  12   4   15.90    6.20
  -4 -12   4   21.50    6.40
  -4  12  -4   28.30    8.60
  12  -4   4   19.20    8.00
   4 -12  -4   22.00    6.80
  12   5   4   25.90   23.30
  -5  12   4   37.50   11.30
   5 -12   4   41.90    9.70
 -12  -5   4   26.60   10.20
 -12   5  -4   39.30   11.50
  -5 -12  -4   44.20   10.50
  12  -5  -4   22.50   10.30
  12   5   4   12.70    8.00
 -12   5  -4   31.30   18.90
 -12  -5   4   37.10   11.30
 -12  -5   4   30.00   10.50
 -12   5  -4   21.70    9.10
   5  12  -4   61.39   13.50
   5  12   4   39.00    7.70
 -12   5   4   24.70    9.60
  12   5  -4   26.40    9.10
 -12  -5  -4   44.40   14.90
  -5 -12   4   19.20    6.20
   5 -12  -4   35.20    8.70
  -5  12  -4   35.70    8.60
  12   5  -4  -14.00   14.00
   5 -12  -4   28.60   10.90
   5 -12  -4   31.40    7.40
  12  -5   4   33.00    8.70
  12  -5   4   34.50   10.10
 -12  -6   4   28.60   11.60
 -12  -6   4   32.70   10.90
  -6 -12  -4    4.40    9.20
 -12   6  -4    8.00   10.60
  -6  12   4   19.40   11.20
 -12   6  -4    9.70    9.30
  -6  12   4   29.10    8.80
   6  12  -4   24.70   13.10
  12   6   4    9.00    7.10
  12  -6  -4   31.70   10.90
 -12  -6   4   44.80   11.90
   6 -12   4   31.10    8.80
 -12   6  -4   26.60   20.90
   6  12   4   11.70    6.50
   6 -12  -4   30.20    9.20
  -6  12  -4   10.60    7.10
  12   6  -4   41.30   16.00
 -12  -6  -4   24.40   13.30
  12  -6   4   29.70   10.50
  12   6  -4   16.10    8.50
   6 -12  -4   28.40    8.00
   6 -12  -4   34.80   10.80
  12  -6   4   24.10    9.00
 -12   6   4   20.30    8.50
  -6 -12   4   23.40    7.50
 -12  -7   4   49.90   12.00
  -7  12   4   35.50    8.70
 -12  -7   4   53.39   13.10
   7 -12   4   35.70    9.40
  12  -7  -4   41.50   11.30
   7  12  -4   27.40   15.20
  12   7   4   30.10    8.10
  -7 -12  -4   26.80   10.10
 -12   7  -4   61.59   11.90
 -12   7  -4   15.70   11.80
 -12  -7   4   49.90   12.60
 -12   7  -4   63.29   22.90
  12  -7   4   54.49   10.70
 -12   7   4   44.60    9.30
  -7 -12   4   39.80    7.50
   7  12   4   27.50    8.00
  12   7  -4   41.20   17.70
   7 -12  -4   45.00   13.90
  -7  12  -4   53.79   10.20
  12   7  -4   56.89   10.10
   7 -12  -4   84.79   12.90
   7 -12  -4   78.59   13.20
  12  -7   4   30.50   10.50
 -12  -7  -4   51.69   13.80
 -12  -8   4   49.30   13.00
   8  12  -4   33.30   17.80
   8 -12   4   72.49   12.60
 -12  -8   4   52.49   13.60
  12  -8  -4   35.70   11.60
  12   8   4   44.90    9.50
  -8  12   4   58.59   10.30
 -12   8  -4   51.89   11.30
 -12  -8   4   41.80   17.40
  -8 -12  -4   42.40   11.70
 -12  -8  -4   42.90   13.60
  -8 -12   4   37.60    8.50
   8  12   4   42.50    8.70
  -8  12  -4   34.00    8.40
  12  -8   4   72.59   19.40
 -12   8   4   48.40    9.70
  12   8  -4  -16.80   18.20
   8 -12  -4   72.49   13.30
  12   8  -4   36.30    9.10
  12  -9  -4   59.29   12.40
   9 -12   4   53.89   12.10
  -9 -12  -4   57.19   11.80
 -12  -9   4   74.69   15.90
   9  12  -4   87.09   19.60
  12   9   4   66.89   10.70
  -9  12   4   68.79   10.70
 -12  -9   4   77.69   14.40
   9  12  -4   58.79   11.70
 -12   9  -4   71.29   12.30
  -9  12  -4   91.09   13.30
  -9 -12   4   55.79    9.50
   9  12   4   52.59    9.40
 -12  -9  -4   58.99   13.40
 -12   9   4   61.89   10.30
  12   9  -4   70.29   10.90
  12  -9   4   79.99   14.20
   9 -12  -4   91.29   14.40
   0  13  -4    3.30    8.70
 -13   0  -4   23.10   16.00
  13   0  -4    4.60    8.50
   0  13   4   19.70   12.60
 -13   0   4   -3.90    9.10
   0 -13   4    4.00    5.90
  13   0   4    5.80    7.70
   0  13   4    4.50    5.90
   0 -13  -4    4.70    6.60
 -13   0  -4  -10.50   16.00
 -13   0  -4  -20.10   14.10
   0  13   4    6.50    6.20
 -13   0  -4   14.60   12.50
 -13   1  -4    7.30   11.80
 -13   1  -4    0.20   16.30
  -1  13   4    4.20    5.70
  13  -1  -4   -4.70    8.40
 -13   1  -4   23.80   16.20
  -1  13   4    1.60    5.90
   1 -13   4    5.20    6.00
  -1  13   4  -12.60   10.40
   1  13  -4    2.30   10.20
 -13   1  -4    0.80    9.40
  13   1   4   -6.20    7.00
 -13  -1   4   -4.00    9.50
  13  -1   4    9.10   10.90
  13   1  -4   10.10    8.20
  -1 -13   4   -0.70    5.90
   1  13   4    7.70    6.00
   1  13   4    2.30    6.10
  -1  13  -4   -1.60    7.90
 -13   1   4   -3.50    8.90
 -13  -1  -4   35.40   16.10
 -13  -1  -4  -12.10   17.00
   1 -13  -4   -3.40    6.20
   1 -13  -4    5.80    7.10
  13   2   4   -7.00    7.20
  -2 -13  -4    1.30    7.60
  13   2   4    1.00   17.90
  -2  13   4    8.00    6.80
 -13   2  -4   -4.90   16.50
 -13  -2   4    0.30    9.20
 -13   2  -4    5.40   11.50
  -2  13   4   -4.40   10.80
  -2  13   4    3.10    5.60
  13  -2  -4    3.20    9.20
   2 -13   4    3.40    6.60
 -13  -2  -4   27.50   14.90
 -13  -2  -4   -4.10   16.20
  -2  13  -4    5.90    7.50
   2  13   4    0.60    6.30
   2  13   4    3.90    5.60
  -2 -13   4   -5.90    5.40
   2 -13  -4   -1.30    6.90
  13  -2   4    6.60   12.10
 -13   2   4    0.70   13.60
  13   2  -4   13.00    8.40
   2 -13  -4    2.20    5.70
  13   3   4   14.10   18.40
  -3  13   4    4.50   10.80
  -3 -13  -4   -2.00    7.40
  13   3   4    7.50    7.60
 -13   3  -4   -1.20   11.50
   3 -13   4    4.90    6.70
  -3  13   4    3.70    7.50
 -13   3  -4    4.40    8.90
  13  -3  -4   22.10    9.40
 -13   3  -4  -23.30   18.00
 -13  -3   4   14.40   10.00
  -3  13   4   11.90    6.80
  13  -3   4   -1.10   11.90
   3  13   4   12.50    6.50
   3 -13  -4    5.60    7.60
  -3  13  -4   -4.40    6.70
  13  -3   4    7.10    8.20
   3  13   4   -4.70    6.40
 -13  -3  -4   -6.60   14.10
   3 -13  -4    5.60    6.10
  13   3  -4   -2.30    7.70
 -13   3   4    1.00    9.30
  -3 -13   4    8.00    6.50
  13  -4  -4    9.70    9.40
 -13   4  -4   24.30   12.00
   4 -13   4    0.30    7.20
  -4  13   4   -3.30    6.70
 -13   4  -4    2.50   19.80
 -13   4  -4    0.40    9.30
  13   4   4    8.60    7.90
  -4  13   4   11.90   11.80
  -4 -13  -4   -6.40    7.50
 -13  -4   4    4.10    9.90
  13  -4   4    4.50   11.60
   4  13   4   -2.00    6.20
   4 -13  -4    3.20    6.80
  13  -4   4    2.30    8.40
   4 -13  -4    6.40    8.10
 -13  -4  -4    4.70   16.00
  -4  13  -4   11.50    7.80
  13   4  -4    7.90    8.20
 -13   4   4    1.00    8.60
  -4 -13   4   -3.40    5.80
  13  -5  -4    6.80    9.30
 -13   5  -4   -4.30   19.70
  -5 -13  -4    1.80    7.90
   5 -13   4    2.70    7.70
  13   5   4   -8.00    7.20
   5  13  -4   -7.50   15.20
 -13   5  -4    1.40    9.60
 -13  -5   4   -9.90   10.00
  -5  13   4    4.50    7.70
   5  13   4   12.70    6.70
   5 -13  -4   -2.10   10.80
 -13  -5  -4  -15.10   14.10
  13  -5   4   10.60   11.10
 -13   5   4   -6.70    8.60
  13   5  -4    9.80    8.20
  -5 -13   4    0.40    6.00
   5 -13  -4   -1.00    7.10
  -5  13  -4   10.10    7.90
   5 -13  -4    7.00    8.80
  13  -5   4    8.60    9.00
   6  13  -4    9.30   12.70
 -13   6  -4  -20.50   12.60
 -13  -6   4    2.90   11.70
  -6 -13  -4   -8.20    8.20
 -13   6  -4   -1.50   10.40
  -6  13   4   -3.70    7.10
 -13   6  -4    1.30   34.30
   6 -13   4    4.20    8.10
  13  -6  -4  -14.70    9.50
  13   6   4   -6.30    7.00
  13  -6   4   -4.70    9.50
  13   6  -4    4.60    8.50
   6 -13  -4   -4.40    7.50
  13  -6   4    4.10   10.70
 -13  -6  -4    2.30   12.80
  -6  13  -4    3.40    7.60
   6 -13  -4   16.30   10.50
   6 -13  -4   19.80   11.40
   6  13   4    9.00    8.00
 -13   6   4    2.60    8.80
  -6 -13   4    5.10    5.90
  -7  13   4   -1.20    7.50
   7  13  -4    4.10   14.90
 -13  -7   4   -2.80   11.70
  13  -7  -4    7.40   10.70
   7 -13   4    5.50    9.00
 -13   7  -4    3.90    9.30
 -13  -7   4    4.80   14.00
  -7 -13  -4   10.80    9.50
  13   7   4   12.10    8.20
   7  13   4    5.60    7.70
   7 -13  -4   29.80   12.60
 -13  -7  -4   19.80   14.00
   7 -13  -4   -3.90   12.90
  13   7  -4  -10.10    8.60
  -7  13  -4    1.80    7.30
 -13   7   4    5.90    9.30
  13  -7   4    3.00   10.40
  -7 -13   4    2.70    6.10
  13  -7   4   10.80   13.80
  -8  13   4    5.00    7.80
 -13  -8   4   12.00   16.90
   8 -13   4   18.30   10.10
 -13   8  -4   19.00   10.80
 -13  -8   4   19.30   16.90
  -8 -13  -4    1.10    9.50
   8  13  -4    0.80   16.40
  13   8   4   -3.50    7.60
  13  -8  -4   -9.20   10.40
 -13  -8  -4   -9.70   12.50
  13  -8   4   15.60   12.80
   8  13   4   -0.20    7.60
  -8 -13   4    7.00    7.20
  13   8  -4    1.10    8.90
 -13   8   4    4.00    9.00
  -8  13  -4   -8.90    7.30
  13  -8   4    8.20   11.90
 -14   0  -4    3.90   19.00
  14   0  -4   25.20    9.10
  14   0   4   18.70    8.30
   0  14  -4   21.30    9.40
   0 -14  -4   15.70    6.80
 -14   0  -4   16.90   17.40
 -14   0   4   20.40   11.00
   0  14   4   25.20    7.60
   0 -14   4   18.20    6.90
   0  14   4   16.10    7.10
  14   1   4    3.90    7.60
 -14   1  -4   13.50   15.00
  -1  14   4    1.50    7.40
 -14  -1   4    9.60   11.20
  -1 -14  -4   -3.20    6.10
  -1  14   4    6.40    6.70
   1  14  -4   11.80    9.40
  14  -1  -4   14.20    9.20
   1 -14   4    0.60    6.00
 -14   1  -4  -27.00   16.90
 -14  -1  -4   22.50   27.40
  14   1  -4   -3.30    8.30
   1  14   4    6.20    6.90
  -1  14  -4    3.30    8.40
   1  14   4   -5.70    6.40
 -14   1   4   -6.40    9.90
   1 -14  -4   -4.10    6.50
  -1 -14   4   -0.50    6.40
  14  -1   4   16.30    8.20
  -2  14   4   -2.70    7.70
  -2  14   4    9.40    7.50
 -14   2  -4   15.50   15.40
 -14  -2   4   -9.70   12.80
 -14   2  -4    9.00   32.10
  -2 -14  -4    4.80    7.50
  14   2   4   11.90    7.80
  14  -2  -4   15.80    9.60
   2 -14   4    5.50    6.40
   2  14  -4   -4.90    9.60
   2 -14  -4    9.30    7.00
  -2 -14   4    3.80    5.80
 -14   2   4    2.30   10.20
  -2  14  -4    0.20    7.60
   2  14   4    3.70    6.30
   2  14   4   10.30    7.40
 -14  -2  -4   -6.10   17.10
  14  -2   4   11.40    8.50
  14   2  -4   10.00    8.30
  -3  14   4   17.10    7.50
  14  -3  -4   -3.00    8.70
  -3  14   4   13.10    8.90
   3  14  -4   22.90   11.70
  14   3   4   13.00    8.00
  -3 -14  -4    5.60    7.00
 -14  -3   4  -13.90   14.30
   3 -14   4   12.90    7.60
 -14   3  -4   37.60   16.20
 -14  -3  -4   32.40   17.10
  14  -3   4   16.20    8.90
  -3 -14   4   17.30    6.60
  14   3  -4   15.00    8.90
 -14   3   4   22.80   10.50
  -3  14  -4   -0.40    7.40
   3 -14  -4   17.80    8.50
   3  14   4   18.20    7.40
  14   4   4   17.50    8.90
   4  14  -4    9.90   12.40
  -4  14   4   12.20    7.30
   4 -14   4    7.90    7.20
 -14   4  -4    8.00   10.40
  14  -4  -4    5.70    9.80
  -4 -14  -4   17.00    8.00
  14  -4   4   10.60    9.20
  -4  14  -4    8.30    7.90
  14  -4   4   23.60   21.70
 -14  -4  -4    9.30   15.80
   4  14   4    5.40    7.40
  -4 -14   4    9.50    5.90
 -14   4   4    9.50    9.90
  14   4  -4    9.60    8.70
  14  -5  -4   18.10   10.50
   5 -14   4   13.10    9.10
  -5 -14  -4   18.60    9.50
   5  14  -4   -8.20   12.60
  14   5   4   21.80    8.50
 -14  -5   4   24.00   14.50
  -5  14   4    8.50    7.80
 -14   5  -4   16.50   10.80
   5  14   4   -4.80    7.30
   5 -14  -4   30.30   12.50
   5 -14  -4   22.80    9.70
 -14   5   4    5.90    9.70
  -5 -14   4   13.50    6.70
  14  -5   4   24.60   10.30
 -14  -5  -4    4.70   14.60
  14  -5   4    9.80   16.50
  -5  14  -4   12.30    7.40
  14   5  -4   12.10    9.20
 -14   6  -4    1.30   10.10
  14  -6  -4   18.30   11.10
   6  14  -4   22.60   14.00
 -14  -6   4   23.70   13.30
  -6  14   4   -1.80    7.60
   6 -14   4   -2.10    8.00
  14   6   4    5.60    8.00
  -6 -14  -4    7.40    8.50
   6  14   4    7.30    7.90
  14  -6   4  -11.00   13.80
   6 -14  -4    0.10    8.50
  -6 -14   4   15.00    6.90
 -14   6   4   -3.50    9.30
   6 -14  -4   15.30   13.10
  14  -6   4   -6.70   10.20
 -14  -6  -4   19.40   15.50
  -6  14  -4    8.10    7.50
  14   6  -4   -1.10    8.90
  15   0   4   -5.30    8.10
 -15   0  -4   29.10   20.80
  15   0  -4    9.60    9.00
 -15   0   4   14.30   12.00
   0  15  -4   23.50    9.90
   0 -15  -4   19.40    7.40
   0  15   4   24.90    9.10
   0 -15   4   16.90    7.00
   0  15   4   27.10    8.90
  -1 -15  -4    3.20    6.40
  -1  15   4    6.10    8.80
 -15  -1   4   -1.20   11.40
  15   1   4    1.80    8.10
   1  15  -4    6.60    9.20
   1 -15   4    6.80    6.90
 -15   1  -4   34.90   20.90
  15  -1  -4  -11.30    8.40
  -1  15   4    4.00    7.70
   1  15   4    1.30    7.60
  15   1  -4    0.80    8.40
   1  15   4    8.70    7.90
  -1  15  -4    4.40    8.40
  15  -1   4    9.90    8.60
   1 -15  -4   11.40    7.00
 -15   1   4    7.90   11.80
 -15  -1  -4  -12.40   17.90
  -1 -15   4    1.90    6.80
  15  -2  -4   -7.60    8.70
 -15   2  -4  -16.40   20.70
 -15  -2   4   -7.50   12.40
  15   2   4    6.70    8.60
  -2  15   4    6.60    7.30
  -2 -15  -4    4.60    7.50
  -2  15   4   -0.10    9.60
   2  15  -4   -0.60   10.40
   2 -15   4   21.90    7.80
   2 -15  -4   13.10    7.40
 -15   2   4    3.40   10.90
  -2  15  -4   11.20    8.80
  15   2  -4   -1.80    8.30
  15  -2   4   14.70    9.50
   2  15   4    7.90    7.50
 -15  -2  -4   -6.20   17.40
  -2 -15   4    8.20    7.00
 -15  -3   4   10.50   12.30
  -3  15   4    8.90    7.30
   3  15  -4    5.80   11.50
  -3 -15  -4    7.90    7.50
 -15   3  -4    5.80   12.10
  15   3   4    7.20    8.70
  15  -3  -4    8.80    9.40
   3 -15   4    7.10    7.30
  15   3  -4   11.00    8.70
  -3 -15   4    8.10    6.70
 -15   3   4  -14.20   10.40
   3  15   4    8.90    8.30
 -15  -3  -4    1.80   17.10
  -3  15  -4   -6.50    7.60
   3 -15  -4    8.70    8.00
  15  -3   4   18.40    9.70
  -4 -15  -4   12.70    8.10
 -15   4  -4    6.70   12.70
   4 -15   4    8.50    7.60
 -15  -4   4   13.60   13.90
   4  15  -4   16.00   12.20
  -4  15   4   14.00    7.70
  15  -4  -4   -3.60    9.60
  15   4   4   12.00    8.50
   4  15   4    5.50    8.40
  15   4  -4    6.20    9.10
  15  -4   4    0.80    9.90
 -15  -4  -4   14.10   17.60
 -15   4   4   15.40   11.10
   4 -15  -4   18.20    9.50
  -4 -15   4    9.60    7.20
  -4  15  -4    0.50    7.40
   0   0  -5    3.00    6.30
   0   0   5    3.60    3.30
   0   0   5    1.60    3.20
   0   0  -5    8.10    3.80
   0   0   5   -4.10    3.40
   1   0   5   17.30    4.70
   1   0   5   11.70    3.50
   0   1   5   11.60    3.90
  -1   0   5   14.80    4.30
   0  -1  -5   13.90    6.80
   0   1   5    8.50    3.90
   1   0  -5   17.60    3.80
   0  -1   5   14.20    3.70
   0   1   5    8.40    7.10
   1   0  -5    9.00    6.50
   0  -1   5    8.40    3.80
  -1   0   5   17.10    3.60
   1   0   5   15.30    3.60
   0  -1   5   15.50    4.10
   0   1   5   15.20    3.90
  -1   0   5   17.60    3.90
   0   1  -5    8.50    3.60
  -1   0  -5   13.00    4.60
  -1   0  -5    9.10    7.20
   1  -1   5   38.90    5.60
  -1  -1   5   47.80    6.30
  -1  -1   5   43.70    4.80
   1  -1  -5   51.69    7.00
  -1   1  -5   42.40    6.90
  -1   1   5   38.50    5.60
   1   1  -5   47.30    5.70
   1  -1   5   42.20    6.00
   1  -1   5   40.90    4.90
  -1  -1   5   38.90    5.40
  -1   1   5   35.80    5.40
  -1   1  -5   43.10    9.20
  -1  -1  -5   50.19    7.90
   1   1   5   39.50    6.50
   1   1   5   51.09    8.70
   1   1   5   42.90    5.30
  -1  -1   5   45.70    6.30
  -1   1   5   40.60    5.50
   1   1   5   42.70    4.80
   0   2   5   -1.70    6.00
   0   2  -5   -2.80    3.50
   2   0   5    1.20    3.10
   0  -2   5   -1.50    3.70
   0  -2   5    2.30    3.90
   2   0   5    1.80    4.20
   2   0   5    3.50    3.30
  -2   0   5    4.00    3.90
   2   0  -5    4.90    2.80
  -2   0   5   -3.50    4.00
   0  -2   5    2.20    2.90
   0   2   5   -2.60    3.30
   0  -2   5   -0.50    4.20
   2   0  -5  -10.50    5.60
   0   2   5   -0.70    3.00
  -2   0  -5    6.00    7.80
  -2   0   5   -1.20    2.80
  -1   2   5   34.20    6.60
   1   2  -5   20.20    4.10
   2  -1  -5   23.50    3.50
   1  -2   5   26.70    4.80
   1  -2   5   29.20    5.00
  -1   2   5   26.90    4.60
   2   1   5   28.50    8.70
   2  -1  -5   27.50    5.50
  -2  -1   5   24.20    3.90
   1  -2   5   24.40    5.10
   2   1   5   27.50    5.20
  -2   1  -5   18.20    8.30
   1  -2   5   26.80    4.10
   2   1   5   28.30    4.40
  -1   2   5   21.20    4.20
  -2  -1   5   28.00    5.40
  -2   1  -5   26.50    5.40
  -2  -1   5   27.60    4.20
  -1  -2  -5   29.40    6.90
   2   1   5   30.10    3.60
   1   2   5   29.30    7.80
   1   2   5   29.10    3.80
   2   1  -5   32.70    4.70
  -2   1   5   17.50    4.40
  -2   1   5   21.90    4.40
   2  -1   5   26.80    4.70
   1  -2  -5   30.70    5.90
  -1  -2   5   23.40    4.20
  -1  -2   5   26.00    4.60
   1   2   5   30.20    5.70
  -1  -2   5   27.70    4.70
   1   2   5   19.80    4.10
  -1  -2   5   25.70    4.50
  -2  -1  -5   25.70    8.10
  -2   1   5   27.90    3.70
   2  -1   5   29.60    4.00
   2  -1   5   28.20    4.40
  -1   2  -5   22.00    5.10
   2  -2   5  155.38    7.80
  -2  -2   5  178.78    9.30
  -2   2   5  170.58    8.50
   2  -2  -5  159.68    8.70
  -2  -2  -5  172.48   13.30
  -2   2   5  154.78    8.60
   2  -2  -5  175.08    7.80
   2   2   5  167.28   13.60
  -2   2  -5  173.68    9.80
   2   2   5  173.28    6.40
  -2  -2   5  159.88    7.40
   2   2   5  153.58   11.90
   2   2  -5  150.18    7.60
   2  -2   5  155.38   10.00
   2   2  -5  130.79    8.30
   2   2   5  167.18   10.40
  -2   2   5  156.28    9.90
  -2  -2   5  153.88    8.30
   0   3   5   13.80    4.00
   0  -3  -5   12.10    5.20
   0   3  -5   12.90    4.20
   0   3   5   20.90    3.80
  -3   0   5   15.50    3.10
   3   0   5   11.90    4.60
   3   0   5   24.80    8.30
   0  -3   5   17.80    4.90
   0  -3   5   20.30    5.90
   3   0  -5   16.00    2.70
  -3   0   5   24.80    5.30
   0  -3   5   16.80    4.40
   0  -3  -5   12.50    6.00
  -3   0  -5   28.20    8.30
   0  -3   5   17.80    3.50
   0   3   5   18.60    6.60
  -3   0  -5   19.00    4.60
   3   0   5   19.20    4.00
   3   1   5    1.60    4.90
  -1   3   5    3.80    3.80
  -3  -1   5    9.20    3.10
  -3   1  -5    9.70    5.00
  -1  -3  -5   12.80    6.40
   1  -3   5   13.00    2.80
   1   3  -5    3.00    3.70
   1  -3   5    5.90    4.40
  -3   1  -5   -5.40    4.60
   3   1   5    2.00    7.90
   1   3  -5   10.60    3.80
  -3  -1   5    9.80    5.00
  -1   3   5   11.70    3.70
  -1   3   5    7.80    5.60
   3   1   5   -3.60    5.90
  -3   1  -5    7.30    8.30
  -1  -3  -5    5.00    5.70
   1  -3   5    3.20    3.90
  -3  -1   5    4.90    3.20
   3  -1  -5    7.30    2.30
   3  -1  -5    5.40    3.70
  -3   1   5    1.40    5.00
   1  -3  -5   -9.00    4.60
   3  -1   5    3.80    4.40
   1  -3  -5   -5.80    4.00
   3  -1   5    5.50    3.30
  -1  -3   5    4.40    4.00
   3   1  -5    1.20    4.90
   3   1  -5   11.90    2.90
   1   3   5    6.20    3.00
  -3   1   5    4.10    4.20
   1   3   5   15.70    6.60
  -3  -1  -5    7.70    7.60
  -1  -3   5    7.20    3.60
  -1   3  -5    5.30    4.50
  -3   1   5   12.60    3.00
   1   3   5    3.30    3.60
  -1  -3   5    9.30    4.10
  -2   3   5  108.89    9.00
  -3  -2   5  104.49    8.80
  -3  -2   5   97.09    6.20
  -2  -3  -5   99.69   10.90
   3   2   5  110.49   13.40
   3  -2  -5  102.39    6.00
   3   2   5  105.49    7.10
  -2   3   5  115.69    7.40
   2   3  -5  104.09    7.20
   2   3  -5   86.79    7.00
  -3   2  -5   99.69    9.30
   3   2   5  103.99    9.80
  -3   2  -5  110.99   15.30
   3   2   5  101.99    4.70
   3  -2  -5   95.69    5.20
  -3  -2   5  101.19    6.70
   2  -3   5  110.69    5.40
   2  -3   5   99.59    8.90
  -2   3   5  105.19    7.80
   2  -3   5   99.09    8.30
  -2  -3  -5  101.79   10.40
  -3   2  -5  104.79    9.40
   3   2  -5   87.49    6.40
  -3  -2  -5  111.19   12.00
  -3   2   5   96.49    7.60
   3  -2   5  113.69    6.10
   3  -2   5  103.39    8.40
   2  -3  -5   75.59    7.10
  -3   2   5  128.79    9.10
   2   3   5  104.89    7.20
   2   3   5  102.79   12.10
   2   3   5  102.39    5.10
  -2  -3   5  103.19    6.90
   3   2  -5  100.59    7.80
   2  -3  -5   93.79    6.40
  -2   3  -5   98.89    8.60
  -2  -3   5  108.19    7.50
  -2  -3   5   99.99    8.00
  -3   3   5  267.67   11.70
   3  -3   5  266.87   12.30
   3  -3   5  272.27    9.20
   3  -3  -5  239.58    9.10
   3   3   5  254.77   15.60
   3  -3  -5  248.08    8.80
  -3   3  -5  255.97   13.70
   3   3  -5  256.77   10.80
  -3  -3   5  250.07   10.10
  -3  -3  -5  256.67   14.00
  -3   3   5  271.57   11.20
  -3  -3   5  268.67   10.70
  -3   3  -5  254.47   13.00
   3   3   5  261.77   11.00
  -3  -3  -5  267.07   15.90
   3  -3   5  255.47   12.00
  -3   3   5  266.77   11.00
  -3  -3   5  274.37   12.10
   3   3  -5  256.37   10.90
  -4   0   5  125.19    8.80
   0   4   5  126.69    6.60
   0   4  -5  134.99    5.70
  -4   0  -5  114.89   13.90
   4   0  -5  102.69    5.20
   4   0   5  132.29   13.80
   0  -4   5  118.99    8.60
   0   4  -5  120.59    8.40
   4   0  -5  126.59    9.50
   0  -4   5  121.19    7.90
   0   4   5  131.69   11.00
  -4   0  -5  106.69    7.30
   0   4   5  132.89    8.10
  -4   0   5  116.09    5.30
   0  -4   5  125.19    8.80
   4   0   5  112.89    9.20
   0  -4  -5  151.18   10.40
   0  -4  -5  133.29    8.80
  -4  -1   5   76.49    5.10
   4   1   5   99.69   10.00
  -4  -1   5  101.09    8.40
   1  -4   5   90.19    4.60
  -1   4   5   96.79    9.80
  -1   4   5   71.79    6.20
   1  -4   5   87.09    7.80
  -1   4   5   92.99    7.20
   1   4  -5   86.59    7.60
   4   1   5   88.89    7.00
  -4   1  -5  106.69    7.90
  -1  -4  -5   89.29   10.60
  -4   1  -5   93.59   14.90
   4   1   5   96.39   13.80
  -1  -4  -5  101.39   10.10
   1  -4   5   92.59    7.90
  -4   1  -5   97.69    9.20
  -4  -1   5   86.09    5.80
   4  -1  -5   94.69    9.60
  -4  -1  -5   69.99    5.70
  -1   4  -5   97.39    8.10
  -1  -4   5   85.39    7.10
   1   4   5   83.99    7.20
   4  -1   5   74.39    8.20
   1  -4  -5   89.79    7.30
  -1  -4   5   77.19    7.60
   1  -4  -5   89.99    8.40
  -1  -4   5   90.59    8.30
  -4  -1  -5   82.89   12.70
  -4   1   5   84.09    8.10
   4   1  -5   68.59    5.30
   4   1  -5   87.79    8.60
   1   4   5   80.99    5.30
   1   4   5   89.19   11.40
   4  -1   5   91.59    6.40
   2  -4   5  163.68    6.10
  -4   2  -5  163.08   10.20
  -2  -4  -5  189.68   13.10
   4   2   5  163.78    8.90
  -4  -2   5  184.88   10.50
  -2  -4  -5  149.19   11.70
  -4   2  -5  171.28   16.70
   2  -4   5  165.78   10.70
  -2   4   5  165.18   10.40
   2  -4   5  175.68    9.70
  -2   4   5  159.58    8.90
   4   2   5  155.98   11.90
   2   4  -5  165.38    9.30
   2   4  -5  174.98    7.80
  -4  -2   5  156.98    7.90
  -2   4   5  171.18    8.70
  -4  -2   5  162.08    7.40
   4  -2   5  161.58   10.00
   2   4   5  167.98    6.60
  -2  -4   5  175.38    9.90
   4   2  -5  160.88    8.00
  -4  -2  -5  157.18   15.00
   2  -4  -5  176.68    9.00
  -4   2   5  163.98    9.60
  -2  -4   5  151.88    8.30
   2  -4  -5  179.38    8.20
   4   2  -5  163.88    9.60
  -2  -4   5  159.58    9.00
  -2   4  -5  164.58   12.40
   2   4   5  162.38    8.70
   4  -2   5  172.38    7.80
   2   4   5  162.38   13.10
  -3   4   5  458.35   16.60
  -4   3  -5  439.56   17.20
   4  -3  -5  417.96   12.00
   4   3   5  463.95   21.20
  -3   4   5  457.55   15.80
   3  -4   5  464.95   13.30
  -3   4   5  448.46   15.70
  -4  -3   5  495.15   17.90
  -4  -3   5  426.86   14.90
  -3  -4  -5  463.35   19.70
   3   4  -5  451.85   15.70
  -4  -3   5  448.76   14.50
   3  -4   5  462.65   17.30
   3   4  -5  439.96   14.70
  -4   3  -5  467.45   17.40
  -3  -4  -5  467.65   19.20
  -4  -3  -5  462.15   19.70
  -3  -4   5  458.75   18.40
   3   4   5  452.45   20.20
  -3  -4   5  437.06   15.40
  -4   3   5  454.05   13.60
   3  -4  -5  427.96   13.50
   3  -4  -5  447.76   14.10
  -3   4  -5  437.26   17.90
  -3   4  -5  457.85   17.00
   4  -3   5  447.66   14.00
  -3  -4   5  433.76   14.90
   4   3  -5  435.66   15.20
  -4   3   5  465.75   16.30
  -4   4  -5  202.28   11.60
  -4   4   5  210.38   10.50
   4   4  -5  191.88   11.10
   4   4   5  190.68    9.90
   4  -4   5  188.28   11.20
   4  -4  -5  190.08    6.90
  -4   4   5  205.28   11.50
   4  -4  -5  196.58    7.20
  -4  -4  -5  213.88   14.20
   4   4   5  186.28   15.70
  -4  -4   5  202.98    9.40
   4  -4   5  202.88    8.00
   4   4  -5  202.98   10.60
  -4  -4   5  214.88   11.40
   4  -4   5  199.68   11.30
  -4   4  -5  199.58   12.30
  -4  -4   5  200.58    9.60
  -4  -4  -5  220.98   15.40
  -4   4   5  210.38    9.30
   5   0   5   23.90    4.60
   0   5   5   22.90    7.10
   0   5   5   31.70    4.70
   5   0  -5   26.10    4.20
  -5   0  -5   43.90   10.50
   0  -5   5   30.00    5.70
  -5   0   5   22.60    3.50
  -5   0   5   29.50    3.50
   0  -5   5   34.60    5.40
   0   5   5   32.20    5.30
   5   0   5   37.90   11.00
   5   0  -5   35.10    6.80
  -5   0  -5   34.20    4.90
   0   5  -5   29.10    5.70
   0  -5  -5   38.90    6.80
   0  -5  -5   45.00    6.40
  -5   1  -5  157.38   15.20
   1  -5   5  147.59    9.90
  -1  -5  -5  140.09   11.80
  -5   1  -5  157.28   10.50
   5   1   5  151.78   15.90
   1   5  -5  183.28   12.80
  -5   1  -5  164.58    8.90
  -1   5   5  152.38   11.40
   1   5  -5  146.69    6.20
  -5  -1   5  140.19    6.40
  -5  -1   5  148.49    6.80
  -1   5   5  156.08    9.10
   5   1   5  136.49    8.40
  -1  -5  -5  149.39   10.50
  -1  -5   5  139.29    9.10
   1   5   5  158.28    7.10
   1   5   5  148.39   10.20
  -1  -5   5  143.69   14.20
  -5  -1  -5  139.59   14.20
   5   1  -5  137.39    7.40
  -1   5  -5  152.58    9.10
   1   5   5  159.78   12.40
  -1  -5   5  148.19    8.60
  -5  -1  -5  145.39    6.50
   5   1  -5  152.78   10.00
   1  -5  -5  162.18    9.00
   1  -5  -5  166.28    9.90
   5  -1   5  149.88    7.90
  -5   1   5  149.39   12.60
   2  -5   5  212.28   10.80
   5   2   5  198.58    9.90
  -5   2  -5  239.48   11.40
  -5   2  -5  215.18   17.60
  -2  -5  -5  211.88   13.90
  -5   2  -5  208.98   12.50
   2   5  -5  214.48    8.30
   5  -2  -5  212.48   11.90
  -5  -2   5  218.88   11.70
  -2  -5  -5  212.98   12.70
  -5  -2   5  197.58    8.50
  -2   5   5  210.98   12.00
  -5  -2   5  206.58    8.90
  -2   5   5  231.28   10.00
   5   2   5  209.48   16.90
   2  -5   5  205.98   11.60
  -2  -5   5  206.38   10.60
   2   5   5  211.68    7.70
  -2  -5   5  209.58    9.80
   5  -2   5  221.88   11.70
   5  -2   5  192.08   10.20
   5   2  -5  199.28   11.30
   5   2  -5  209.88    9.80
   2   5   5  244.58   14.30
  -5   2   5  217.08   11.50
  -5  -2  -5  211.28   16.30
   2  -5  -5  234.08   10.40
  -2   5  -5  215.88   11.50
  -2   5  -5  216.78   13.70
  -2  -5   5  234.08   11.50
   2  -5  -5  231.98    9.70
   2   5   5  220.28   10.30
   5   3   5  387.26   19.40
   3  -5   5  382.26   15.60
  -3   5   5  397.56   16.30
  -5   3  -5  424.46   22.40
  -5  -3   5  421.76   16.40
  -5   3  -5  401.76   16.50
   5   3   5  413.16   14.90
   5  -3  -5  406.86   16.50
  -3  -5  -5  409.56   18.60
  -5  -3   5  401.36   13.50
  -3   5   5  395.16   15.30
   3   5  -5  399.56   13.30
   3  -5   5  409.06   11.70
  -3  -5  -5  406.16   17.70
  -5  -3   5  411.16   14.10
  -3   5   5  398.66   15.10
  -5   3  -5  394.16   16.30
  -5   3   5  380.46   15.40
  -3  -5   5  415.56   14.60
   3   5   5  401.36   19.30
   5  -3   5  399.26   13.30
   5  -3   5  410.16   15.90
   3  -5  -5  387.86   13.50
   5   3  -5  402.46   15.10
   3   5   5  398.86   14.80
  -3  -5   5  423.86   15.90
  -3   5  -5  428.46   16.30
   5   3  -5  388.96   14.70
   3  -5  -5  406.16   13.00
  -3   5  -5  419.56   17.60
   3   5   5  401.56   11.70
  -3  -5   5  412.16   15.00
  -5  -3  -5  410.66   19.00
   5   4   5  223.08   10.80
   4  -5   5  214.08   12.10
   5  -4  -5  214.48    7.00
   4  -5   5  217.98   12.00
  -4   5   5  223.68   10.80
  -5  -4   5  229.18   10.10
   4   5  -5  242.58   10.30
  -4  -5  -5  206.88   15.30
  -5  -4   5  219.58   10.50
   5  -4  -5  205.88   12.60
  -4   5   5  226.48   11.80
  -5  -4   5  220.88   12.10
  -5   4  -5  229.38   12.50
  -4   5   5  228.08   11.10
   4  -5   5  218.38    8.20
  -4  -5  -5  239.98   14.70
   4   5  -5  238.88   15.50
   5   4  -5  215.58   11.30
  -5   4   5  220.18    8.40
   5   4  -5  223.38   10.80
   4  -5  -5  208.28    8.20
  -4  -5   5  220.08   12.10
  -4   5  -5  226.88   13.40
   4   5   5  226.78   11.10
   4   5   5  226.68   18.30
  -5  -4  -5  237.38   16.70
  -5   4   5  220.98   11.30
  -5  -4  -5  222.18   15.70
  -4   5  -5  226.88   13.20
   5  -4   5  230.68    8.90
  -4  -5   5  227.28   10.40
   4  -5  -5  220.58    8.60
   5  -4   5  227.58   12.30
  -4  -5   5  209.98   10.50
   5  -5  -5  198.68    8.10
   5   5  -5  221.08   10.40
  -5   5   5  214.18   10.00
   5   5   5  213.98   10.80
   5  -5   5  217.28    8.60
  -5   5  -5  230.98   13.30
  -5  -5  -5  217.68   15.00
  -5   5   5  214.28   11.70
  -5  -5  -5  232.08   15.20
  -5   5  -5  237.28   13.00
   5  -5   5  212.98   12.80
   5  -5   5  212.88   12.60
   5   5   5  216.98   17.20
  -5  -5   5  225.08   10.40
   5   5  -5  208.98   12.00
  -5  -5   5  220.08   12.00
   5  -5  -5  200.98    7.60
  -5  -5   5  212.18   11.00
   6   0  -5   -1.10    6.10
   0  -6  -5    2.10    5.00
   6   0   5    3.00    6.20
  -6   0  -5   13.20    3.90
   6   0   5   -1.20   10.10
   0   6   5    4.90    3.30
  -6   0   5    0.80    2.10
   6   0  -5    4.60    3.00
   0   6  -5    8.80    4.90
   0   6   5    3.00    3.70
   0  -6  -5    0.20    5.70
   0   6   5   14.70    7.00
  -6   0   5    0.60    5.20
   0  -6   5    3.60    4.50
  -1   6   5   86.39    6.90
   6   1   5   87.99    7.50
   6   1   5   95.89   10.60
  -1  -6  -5  107.69   10.80
   6   1   5  103.69   13.70
   1  -6   5   88.99    8.10
  -6   1  -5   87.29    7.60
  -6  -1   5   81.59    9.30
  -1   6   5   83.19    7.60
   6  -1  -5   81.99   10.10
  -1   6   5   94.09   10.90
   1   6  -5   86.99    4.00
  -6  -1   5   85.39    5.60
  -6   1  -5   81.99   10.50
   1   6  -5   98.39    8.10
   1  -6   5   81.59    8.70
  -6  -1   5   83.59    5.10
   6  -1   5   85.89    7.10
   6   1  -5   81.39    6.80
   6  -1   5   87.09    9.60
  -6  -1  -5   95.59    5.80
   1   6   5   91.49   12.10
   1  -6  -5   92.69    8.10
  -1  -6   5   80.19    9.40
   6   1  -5   91.39    9.20
  -6  -1  -5   96.19   16.60
   1  -6  -5   91.29    9.20
  -1   6  -5   83.69   11.20
   1   6   5   83.09    7.30
  -6   1   5   87.29    8.80
  -1  -6   5   78.39    8.60
  -1  -6   5   91.09    7.90
   1   6   5   85.89    5.90
  -1   6  -5   96.09    8.80
  -2  -6  -5  222.68   15.20
  -6  -2   5  246.58   12.70
  -6  -2   5  239.38    9.00
   6   2   5  235.08   18.20
  -6   2  -5  238.78   12.00
   2   6  -5  243.68   11.80
   2   6  -5  232.38    8.10
  -2  -6  -5  238.38   13.10
  -6   2  -5  225.18   21.90
  -2   6   5  231.08   11.00
  -2   6   5  234.98   10.60
   6   2   5  235.18   10.80
   2  -6   5  225.88   11.50
  -6   2  -5  228.28   13.40
   6  -2  -5  226.08   13.10
  -6  -2   5  227.28    9.40
   2  -6   5  243.88   12.50
  -2   6   5  248.88   13.20
   2   6   5  239.78    8.80
   2  -6  -5  200.18   14.10
   6   2  -5  251.77   10.90
  -2   6  -5  217.38   13.70
  -2  -6   5  231.88   10.70
  -2  -6   5  240.88   12.60
   6   2  -5  227.08   12.00
  -6   2   5  234.08   12.30
   2   6   5  228.18   11.00
   6  -2   5  238.38   12.50
  -6  -2  -5  216.28   17.30
   2  -6  -5  237.48   11.20
   2   6   5  233.68   15.70
  -2   6  -5  232.58   13.10
   6  -2   5  234.48   10.20
  -2  -6   5  224.48   12.10
   6  -3  -5  335.57   15.70
   6   3   5  361.36   20.80
  -6  -3   5  337.77   15.30
  -3   6   5  358.86   15.30
   3   6  -5  363.36   14.80
  -6   3  -5  380.16   22.70
   3  -6   5  328.27   15.20
  -6  -3   5  332.67   12.60
  -6  -3   5  330.87   12.00
  -3  -6  -5  345.17   16.60
  -3   6   5  355.46   14.10
   3   6  -5  339.07   11.40
  -6   3  -5  331.97   14.80
  -3   6   5  336.07   13.50
   6   3   5  348.87   13.90
   3  -6   5  348.97   14.60
   6   3  -5  327.17   14.10
  -6  -3  -5  346.67   18.60
   3  -6  -5  336.37   12.70
  -3   6  -5  358.26   16.70
  -3  -6   5  338.37   13.40
  -3  -6   5  308.87   16.00
   6   3  -5  337.97   14.20
  -6  -3  -5  331.77   19.50
  -6   3   5  338.77   14.90
   3   6   5  344.07   10.80
  -3  -6   5  361.16   15.00
  -3   6  -5  360.66   14.90
   6  -3   5  319.17   12.10
   3  -6  -5  334.47   12.10
   3   6   5  345.67   14.00
   6  -3   5  331.87   15.20
   4   6  -5  183.68    8.80
  -4   6   5  192.48   11.30
  -6   4  -5  180.58   20.00
  -6  -4   5  202.68    9.90
  -4  -6  -5  187.88   15.20
   4  -6   5  190.58   11.70
  -4   6   5  198.38   11.30
   4   6  -5  199.88   11.60
  -4  -6  -5  188.48   14.00
  -6  -4   5  177.38   10.10
   6  -4  -5  191.78   12.90
  -4   6   5  194.58   10.60
  -6   4  -5  196.48   12.40
   6   4   5  193.98   17.10
   4  -6   5  186.48   12.10
  -6  -4   5  190.58   11.90
   6   4   5  205.18   10.60
  -6   4  -5  200.68   12.10
   4  -6   5  198.08    7.30
   6   4  -5  217.18   10.90
  -4  -6   5  214.88   12.10
   6   4  -5  191.28   12.00
  -4  -6   5  189.58   10.20
   6  -4   5  160.18   13.50
   4  -6  -5  194.98    8.50
   4  -6  -5  190.98    8.70
   4   6   5  174.78   10.20
  -6  -4  -5  222.18   17.10
  -6  -4  -5  201.18   16.00
   4   6   5  196.88   16.30
  -4   6  -5  193.18   11.80
  -4   6  -5  178.58   13.50
  -6   4   5  189.98   11.20
   6  -4   5  189.58   11.90
  -5   6   5  220.38   11.20
  -6   5  -5  203.08   12.90
  -6   5  -5  213.08   13.40
   6  -5  -5  208.98    7.70
   5   6  -5  228.98   12.70
  -5  -6  -5  212.98   15.10
  -5   6   5  201.38   11.40
   6   5   5  212.78   16.70
  -6  -5   5  215.98   11.30
   5   6  -5  205.28    9.90
   6  -5  -5  210.58   13.50
   5  -6   5  211.58    8.40
   6   5   5  200.48   10.90
  -5  -6  -5  214.58   15.30
   5  -6   5  202.98   12.30
  -6  -5   5  208.18   12.50
   5  -6   5  212.18   12.80
   5   6   5  216.98   16.30
   5  -6  -5  206.68    8.90
  -6   5   5  211.78    9.10
   6  -5   5  202.88    9.40
  -5  -6   5  217.28   12.70
   5  -6  -5  213.08    8.50
   6   5  -5  204.28   12.40
  -6  -5  -5  218.58   15.50
   5   6   5  217.38   11.40
  -5   6  -5  208.98   12.00
  -6  -5  -5  217.38   17.10
  -5   6  -5  194.18   13.30
   6   5  -5  190.08   10.80
  -5  -6   5  207.28   10.70
  -6   5   5  217.88   11.90
   6  -5   5  206.58   12.90
  -5  -6   5  204.68   11.00
   6   6  -5  132.39   13.00
   6   6  -5  129.39    8.80
  -6  -6  -5  144.59   14.20
  -6  -6  -5  121.09   15.10
   6   6   5  122.59   16.80
  -6  -6   5  130.19   11.40
   6  -6  -5  128.49    7.50
  -6   6   5  122.69   10.20
  -6   6  -5  129.99   11.80
  -6   6   5  135.79    9.20
  -6  -6   5  126.59    9.60
   6  -6  -5  120.09   11.90
  -6   6  -5  116.09   11.20
   6  -6   5  133.89    7.70
   6  -6   5  131.19   11.50
   6  -6   5  118.09   12.00
  -6  -6   5  117.19   10.20
   6  -6  -5  130.29    6.90
   6   6   5  124.99    9.80
   0   7   5    6.20    4.40
  -7   0  -5    4.40   10.80
   0   7   5    7.00    6.80
   7   0   5    7.80    4.80
  -7   0  -5   16.60    4.60
   0  -7   5    3.60    5.00
   7   0   5    2.10    7.10
   0  -7  -5   10.60    5.80
   0   7  -5    7.30    4.80
   7   0  -5   11.50    7.00
  -7   0   5    7.30    2.20
   0  -7  -5    7.60    6.10
   0   7  -5   -5.70    6.80
   7   0   5   20.90   11.00
   0   7   5   14.20    3.90
   0  -7   5    5.10    4.80
  -7   0   5    2.40    5.40
  -7   1  -5   30.20    5.70
  -7   1  -5   28.00   10.70
  -7   1  -5   38.50    8.50
   1  -7   5   22.40    5.50
  -1   7   5   29.60    5.30
   1   7  -5   31.20    5.70
   7   1   5   25.10   11.40
  -7  -1   5   33.80    4.70
  -7  -1   5   25.20    3.60
   7   1   5   27.20    8.00
  -7  -1   5   47.60    7.90
  -1   7   5   40.20    8.30
  -1   7   5   28.80    4.80
   1  -7   5   21.80    5.20
  -1  -7  -5   36.00    9.20
   7  -1  -5   31.80    7.40
   7   1   5   27.20    5.50
  -1  -7  -5   30.00    7.00
   1   7   5   26.80    8.40
   7  -1   5   26.90    5.30
  -7   1   5   21.20    5.80
   7   1  -5   35.30    7.50
  -7  -1  -5   26.50    4.20
   7   1  -5   24.80    5.20
   1   7   5   19.80    4.90
   7  -1   5   40.20    7.60
  -1   7  -5   40.50    6.40
   1  -7  -5   29.50    6.00
   1   7   5   27.50    4.20
  -1   7  -5   23.40    8.00
  -7  -1  -5   24.20   10.20
   1  -7  -5   42.10    6.60
  -1  -7   5   31.70    6.00
  -1  -7   5   27.10    5.70
  -7  -2   5  115.29   10.40
   7  -2  -5   98.99   10.60
  -7  -2   5  110.89    6.80
  -7  -2   5   96.19    7.20
  -2   7   5   98.49    8.00
  -2  -7  -5  103.69   12.30
   2  -7   5  114.69    9.10
   7   2   5  116.49    8.40
  -7   2  -5  108.19    9.10
   2   7  -5  119.79   10.20
   2   7  -5  109.59    5.20
   7   2   5   91.99   16.50
  -2   7   5  111.99   11.00
  -7   2  -5  101.19   11.40
   2  -7   5  104.39    9.70
  -7   2  -5  103.39   18.00
  -2  -7  -5  106.39   10.50
  -2   7   5  105.69    8.00
   2   7   5  110.79    8.30
  -7  -2  -5   96.49   16.50
   7   2  -5   91.59    9.30
   2   7   5  115.09   14.30
  -7   2   5  103.79   10.00
   2  -7  -5  104.99    8.00
  -2  -7   5  112.99   10.60
   7   2  -5  106.89   10.40
  -2   7  -5  108.09    9.60
  -2   7  -5  107.29   11.60
  -2  -7   5   98.29    8.30
   7  -2   5  112.89    8.10
  -2  -7   5  103.99    8.80
   2   7   5  111.09    6.30
   7  -2   5  110.49   10.70
   2  -7  -5  106.89    8.80
  -3  -7  -5  203.98   13.60
   7   3   5  173.38   10.40
   7  -3  -5  195.38   12.60
   3  -7   5  198.58   12.30
  -3   7   5  192.08   10.90
  -7  -3   5  187.48    9.80
   3   7  -5  182.68    8.00
  -3   7   5  178.58   10.40
   3  -7   5  170.88   11.00
  -7   3  -5  170.48   19.70
  -3   7   5  187.68   12.60
  -3  -7  -5  208.48   14.80
  -7   3  -5  195.98   13.20
   3   7  -5  189.88   11.90
  -7  -3   5  185.38    9.30
   7   3   5  198.78   18.30
  -7  -3   5  185.88   12.40
   3   7   5  169.48   15.20
  -3  -7   5  176.78   10.40
  -3   7  -5  184.38   11.40
  -3  -7   5  187.48   10.80
  -3   7  -5  189.38   13.70
   3  -7  -5  181.88    9.20
   3  -7  -5  205.68   10.30
   7  -3   5  197.48   12.30
   7   3  -5  196.28   12.20
   3   7   5  185.28    7.90
  -7   3   5  198.58   12.00
   7  -3   5  173.68    9.10
  -7  -3  -5  186.68   17.00
  -3  -7   5  200.08   12.50
  -7  -3  -5  208.18   16.30
   3   7   5  187.58   10.30
   7   3  -5  181.38   11.70
  -7   4  -5  111.89   10.80
   4   7  -5  105.49   10.50
  -4   7   5  130.39   11.20
   4  -7   5  111.99   10.30
  -4  -7  -5  128.69   12.80
  -4  -7  -5  129.39   13.50
  -7  -4   5  110.39    8.90
  -7  -4   5  128.59   11.00
  -4   7   5  114.19    9.50
  -7   4  -5  148.79   19.90
   4  -7   5  123.59   10.40
  -7   4  -5  113.09   11.80
  -4   7   5  105.79    9.90
  -7  -4   5  119.09    9.40
   4   7  -5  119.99    7.30
   7   4   5  110.29    9.10
   7  -4  -5  124.59   11.50
   7   4   5  125.99   17.00
   4   7   5  140.59    9.40
   7  -4   5  128.19   11.00
  -4   7  -5  123.09   10.50
   4   7   5  113.39   15.30
  -7  -4  -5  121.49   16.00
  -4   7  -5  139.79   12.70
   7   4  -5  116.89   11.60
  -7  -4  -5  147.89   15.50
  -4  -7   5  115.79   10.70
   4  -7  -5  121.09    8.10
  -4  -7   5  118.59    8.80
   4   7   5  111.29    5.70
   7  -4   5  122.39    7.80
  -4  -7   5  133.69    9.50
  -7   4   5  123.99   10.30
   7   4  -5  122.19   10.20
  -7   5  -5   62.29    8.80
  -5  -7  -5   73.09   12.10
  -7  -5   5   82.49   10.40
   7  -5  -5   86.99   11.50
  -5  -7  -5   80.79   11.40
   7   5   5   97.89    8.90
   5   7  -5   81.39    7.30
   5  -7   5   73.09   10.60
  -7  -5   5   78.79    8.90
  -5   7   5   67.29   10.10
  -7   5  -5   86.59   15.50
  -7   5  -5   81.29   10.90
   7   5   5   80.99   13.20
   5  -7   5   70.89   10.10
   5   7  -5   70.19   10.60
  -5   7   5   83.79    8.90
  -7  -5   5   83.99    9.10
   7  -5   5   72.29   10.50
   5   7   5   74.99    8.50
  -5   7  -5   64.39   10.70
  -7  -5  -5   75.79   11.90
  -5  -7   5   77.69    8.60
  -5  -7   5   83.39   10.30
  -5  -7   5   79.09    8.80
  -7  -5  -5  102.19   14.30
   7   5  -5   72.59    9.00
  -7   5   5   91.49    9.90
   7   5  -5   76.79   11.40
   5  -7  -5   76.79    7.10
  -5   7  -5   77.49   10.10
   7  -5   5   70.39    7.00
   5  -7  -5   83.39    6.60
   5   7   5   68.09   11.40
  -7   6  -5   97.99   11.70
   6   7  -5   97.79   11.80
  -7   6  -5   84.29   11.10
   7   6   5   89.99   15.50
   6  -7   5   88.99   11.60
  -7  -6   5   88.69    9.70
   6  -7   5   84.59   10.80
  -6  -7  -5   79.29   14.50
   6  -7   5   89.29    6.90
  -6   7   5   85.79    9.60
  -7  -6   5   84.79   10.70
   7   6   5   75.79    9.10
  -7  -6   5   95.29    9.40
   7  -6  -5   64.89    9.90
  -6   7   5   79.99   10.10
   6   7  -5   72.09    7.70
  -6  -7  -5   96.29   13.60
   6   7   5   92.49   14.00
  -6  -7   5   68.19   10.70
  -7  -6  -5   76.09   11.40
   7   6  -5  105.49   12.50
   6  -7  -5   88.49   11.90
  -6  -7   5   73.59    9.30
   6  -7  -5   84.69    7.10
  -6  -7   5   77.19   10.10
  -7   6   5   75.89    8.20
   7  -6   5   81.29   11.30
   6   7   5   87.69    9.30
  -6   7  -5   84.69   11.30
  -7   6   5   71.99    9.60
   7  -6   5   81.29    7.40
   7   6  -5   81.09    8.90
  -7  -6  -5   70.89   11.90
  -6   7  -5   72.89   11.20
   6  -7  -5   87.89    7.90
   7   7   5   60.99   12.20
  -7  -7   5   66.59    9.70
   7  -7  -5   80.29   10.30
  -7  -7   5   75.39   10.90
  -7   7  -5   75.69   11.40
  -7   7   5   57.09    7.60
   7   7  -5   81.69   12.40
   7  -7   5   58.89    9.60
  -7   7   5   54.69    8.10
  -7  -7  -5   53.19   11.20
  -7  -7  -5   53.59   11.20
   7  -7   5   82.29   11.70
   7   7  -5   61.79    7.40
  -7   7  -5   55.49    9.10
   7   7   5   63.79    9.30
   7  -7  -5   61.39    7.30
  -7  -7   5   72.99   10.60
   7  -7  -5   60.89    7.60
   0   8  -5   11.50    7.60
   8   0  -5    7.90    7.20
   8   0   5   -3.30    9.70
   8   0   5   13.00    5.40
   0  -8   5   16.90    5.50
   0   8   5   10.10    4.10
   0  -8   5   15.40    5.40
   0   8   5   10.40    4.40
  -8   0  -5   15.80    5.00
   0  -8  -5   15.20    6.60
   8   0  -5    1.20    4.50
   8   0   5    5.00    7.70
   0  -8  -5   10.30    6.20
  -8   0   5   15.40    6.30
   0   8  -5   10.60    5.50
  -8   0  -5    9.00   11.60
  -8   1  -5   33.40    6.30
   1  -8   5   39.40    7.10
   1   8  -5   40.00    7.10
   8   1   5   23.30    5.80
  -8  -1   5   33.70    4.20
   8  -1  -5   31.70    8.00
   8   1   5   51.69   13.00
  -8  -1   5   27.90    4.00
  -1   8   5   48.90    9.00
   8   1   5   31.20    8.80
  -1  -8  -5   37.50    7.70
  -8  -1   5   36.80    6.90
  -8   1  -5   25.40    7.90
  -1   8   5   23.70    5.10
  -8   1  -5   36.20   12.10
  -1   8   5   38.50    6.10
   1   8  -5   40.10    9.50
  -1  -8  -5   30.70    7.00
   1  -8   5   42.60    7.20
  -1   8  -5   49.50    9.30
   1   8   5   24.00    5.20
   8   1  -5   36.10    7.90
  -8  -1  -5   49.70   12.60
  -1  -8   5   34.00    6.70
  -1   8  -5   35.10    6.40
  -8  -1  -5   31.10    4.90
   8   1  -5   34.80    6.30
   1   8   5   29.40    8.70
   8  -1   5   23.80    7.10
   8  -1   5   28.80    6.30
   1  -8  -5   39.50    6.70
  -8   1   5   36.60    7.90
  -1  -8   5   42.60    7.00
   1   8   5   36.00    6.00
  -8   2  -5   82.99   15.30
   8  -2  -5   82.49    9.90
  -2  -8  -5   79.99   11.00
  -2   8   5   61.89    7.90
   2  -8   5   75.89    8.70
  -8  -2   5   62.39    9.90
  -2   8   5   68.69    7.90
  -8  -2   5   74.39    7.40
  -8   2  -5   93.89   11.80
  -2  -8  -5   98.09   12.30
  -2   8   5   82.89   11.60
   2  -8   5   78.99    9.70
  -8   2  -5   72.09    9.10
   2   8  -5   66.19    4.70
   8   2   5   72.49   12.90
   2   8  -5   70.39    9.40
   8   2   5   74.89    8.10
  -8  -2   5   73.49    7.10
  -2   8  -5   76.89    9.20
  -2  -8   5   75.29    8.50
   8  -2   5   85.29   11.00
   2  -8  -5   75.89    8.00
  -2  -8   5   81.19    8.80
   2   8   5   57.49    7.80
   8   2  -5   75.19   10.20
  -8   2   5   73.59    9.70
   8  -2   5   89.99    8.10
  -8  -2  -5   86.99   14.90
   2   8   5   76.29    6.70
   2  -8  -5   67.59    8.50
  -8  -2  -5   70.49    6.10
   2   8   5   66.39   11.00
   8   2  -5   65.29   10.10
  -2   8  -5   87.39   11.90
  -8  -2  -5   79.69   13.60
  -3   8   5  124.89    9.90
  -8   3  -5  140.79   11.30
  -3  -8  -5  149.59   13.50
  -3  -8  -5  152.58   13.80
  -8  -3   5  144.79    9.50
   8  -3  -5  170.78   13.10
  -3   8   5  169.58   12.80
  -3   8   5  167.28   10.30
   3   8  -5  173.58   11.70
   8   3   5  171.18   19.00
   3   8  -5  143.39    7.20
   8   3   5  149.79   10.10
  -8   3  -5  202.58   20.70
  -8   3  -5  132.69   12.90
  -8  -3   5  176.88   12.10
   3  -8   5  146.89   11.50
   3  -8   5  157.88   11.10
   3   8   5  145.29   10.00
  -3   8  -5  149.09   13.30
   8  -3   5  143.09    9.00
  -3  -8   5  146.29   10.50
  -3   8  -5  146.39   11.00
   8   3  -5  168.08   11.60
  -3  -8   5  151.18    9.90
   3   8   5  149.19    7.80
  -8  -3  -5  147.39   15.90
  -8  -3  -5  148.09   18.00
   3  -8  -5  151.28    9.80
  -8   3   5  160.68   11.70
   3   8   5  154.58   16.30
  -3  -8   5  157.18   12.50
   3  -8  -5  140.49    9.30
   8   3  -5  144.79   12.50
   8  -3   5  146.09   12.30
   8   4   5   62.59   12.50
  -4   8   5   78.09   10.60
  -4   8   5   71.69    9.00
   4   8  -5   65.49    6.50
   8   4   5   60.99    8.80
   4  -8   5   68.79    9.40
  -8   4  -5   61.99    9.00
  -4   8   5   72.89    9.30
  -4  -8  -5   51.59    8.90
  -4  -8  -5   62.49    9.80
  -8   4  -5   74.99   11.30
  -8   4  -5   87.29   14.70
   8  -4  -5   88.89   11.90
  -8  -4   5   60.89    8.90
  -8  -4   5   81.19    9.00
   4   8  -5   58.39   10.00
   4  -8   5   69.09   10.10
  -8  -4   5   85.29    8.90
   4  -8  -5   75.29    7.20
   4   8   5   69.59   11.50
  -8   4   5   81.29   10.20
   8  -4   5   61.89   10.60
  -4  -8   5   77.69    9.00
  -4  -8   5   68.19    9.60
   8  -4   5   68.89    7.30
  -8  -4  -5   72.79   11.70
  -4   8  -5   75.89   11.50
   8   4  -5   78.59    9.40
  -4   8  -5   80.19   10.00
  -8  -4  -5   68.29   11.70
   4   8   5   62.29    5.60
   4  -8  -5   80.89    8.10
  -4  -8   5   59.19    8.50
   4   8   5   68.69    8.50
   5  -8   5   73.99   10.30
  -8  -5   5   82.99   10.50
  -5  -8  -5   85.49   12.90
  -5  -8  -5   85.19   12.00
  -8   5  -5   74.19   16.90
  -5   8   5   85.79   11.30
   5   8  -5   79.89   11.60
   8   5   5   59.49   12.60
   8  -5  -5   83.79   12.50
   5  -8   5   91.29   11.50
  -8   5  -5   64.49   10.70
  -8   5  -5   75.89   11.70
   5   8  -5   59.39    7.20
  -8  -5   5   76.49    9.70
   8   5   5   78.19    9.50
  -5   8   5   72.79    9.30
  -5  -8   5   79.09   10.90
  -8   5   5   74.89    9.80
   8  -5   5   66.19   10.90
   5   8   5   75.69    8.80
  -5  -8   5   74.59    9.20
   5  -8  -5   71.09    8.10
  -5   8  -5   70.69   11.00
  -5  -8   5   64.89    9.70
  -8  -5  -5   71.89   13.10
  -5   8  -5   78.19   10.00
   8  -5   5   68.19    7.90
   8   5  -5   79.19    9.50
   5   8   5   70.19   13.00
  -8  -5  -5   87.29   14.40
   5  -8  -5   85.89    7.60
   8   5  -5   68.09   10.60
  -6   8   5   60.89    8.80
  -6  -8  -5   88.09   15.30
   6  -8   5   57.79    9.10
   8   6   5   66.49   14.10
   8   6   5   73.99    9.20
   6   8  -5   70.79   10.30
  -8   6  -5   47.50    8.90
  -8  -6   5   65.49    8.60
  -6   8   5   63.79    9.20
  -8   6  -5   81.59   12.00
   8  -6  -5   72.29   10.50
  -6  -8  -5   70.39   11.50
   6   8  -5   58.69    8.00
  -8  -6   5   67.99    9.60
  -8  -6   5   73.59   10.10
   6  -8   5   53.29    8.50
  -8   6  -5   74.79   18.00
  -6   8  -5   75.09   11.20
  -6  -8   5   65.69   10.00
   8   6  -5   58.99    7.60
  -8   6   5   70.19    9.50
  -6   8  -5   50.09    8.10
   8   6  -5   90.59   13.80
   6  -8  -5   86.09    9.10
  -6  -8   5   77.19    9.80
   6  -8  -5   69.69    8.80
  -6  -8   5   65.89    9.50
   6  -8  -5   70.39   10.30
   8  -6   5   77.79   11.60
   6   8   5   54.49   12.10
   6   8   5   68.59    9.20
  -8  -6  -5   63.29   12.10
  -8  -6  -5   68.79   12.80
   8  -6   5   74.79   10.20
   7  -8   5   26.40    8.40
  -8  -7   5   17.80    7.00
   8  -7  -5   20.40    8.70
  -7   8   5   13.10    7.90
  -7  -8  -5   24.20    8.90
  -7  -8  -5   45.50   11.00
   7   8  -5   13.40    6.20
   8   7   5   -4.10   11.90
  -7   8   5   21.30    7.10
  -8  -7   5   17.30    8.10
   8   7   5   24.40    6.80
   7   8  -5   18.60    8.90
   7  -8   5   13.30    8.40
  -8   7  -5   14.50    7.40
  -8   7  -5   11.00    7.50
  -8  -7   5   15.70    7.10
  -7  -8   5   16.30    8.40
   7  -8  -5   12.20    5.70
   7   8   5   19.00    6.10
   7   8   5   29.40   12.50
  -8  -7  -5    4.90   10.10
  -8  -7  -5   23.70   10.10
  -8   7   5   13.30    6.40
  -7   8  -5   16.50    7.80
  -7  -8   5   12.70    6.20
  -7  -8   5   25.70    7.10
   7  -8  -5   31.10    6.00
   8   7  -5   13.20    9.80
   7  -8  -5   21.90    8.90
   8  -7   5   12.50    7.40
   8  -7   5   11.60    6.00
   8   7  -5   16.10    6.30
  -7   8  -5   19.20    7.60
   8  -8   5    9.00    6.20
  -8  -8  -5   31.60   10.70
   8  -8   5   16.60    8.00
  -8  -8   5   14.90    8.70
   8   8  -5   25.90    7.00
  -8   8  -5   33.60    8.80
  -8  -8   5   36.30    8.20
   8   8   5   15.60   12.70
   8   8   5   25.00    7.20
   8   8  -5    6.40   10.50
   8  -8  -5   30.80    9.80
  -8  -8  -5   31.70   12.10
  -8   8  -5   19.60    8.00
   8  -8  -5   28.90    6.90
  -8  -8   5   27.40    7.60
  -8   8   5   20.80    8.00
  -8   8   5    9.70    6.80
  -9   0   5  133.69   12.00
   9   0   5  162.08   15.20
   9   0  -5  176.18   12.60
   0  -9   5  170.88   11.00
   0  -9   5  165.68   11.30
   0   9   5  169.98    9.70
  -9   0   5  150.58    6.40
   0  -9  -5  170.88   12.80
   0   9   5  152.68   10.20
  -9   0  -5  134.19   19.60
  -9   0  -5  163.58   11.40
   0   9  -5  181.28   12.00
   0   9   5  168.08   15.30
   9   0   5  164.68   10.90
   9   0   5  118.79   18.80
   0   9  -5  170.48   13.90
   0  -9  -5  158.18   11.90
   1   9  -5  476.15   19.00
  -1   9   5  464.95   17.30
   9  -1  -5  468.65   19.10
   1  -9   5  458.85   18.70
  -9   1  -5  474.45   26.30
  -9   1  -5  435.06   17.00
  -1  -9  -5  455.85   18.90
  -9  -1   5  408.66   14.50
  -9   1  -5  462.55   21.10
  -1  -9  -5  484.75   19.60
  -9  -1   5  404.16   18.70
  -1   9   5  439.16   21.00
  -1   9   5  440.56   17.10
   9   1   5  463.55   17.20
   9   1   5  401.96   26.10
   1   9  -5  443.66   21.40
   1  -9   5  457.75   18.00
  -1   9  -5  471.35   20.80
   9  -1   5  457.95   17.10
   1   9   5  454.85   17.40
   9   1  -5  431.56   18.90
  -9   1   5  434.66   19.10
  -1   9  -5  445.36   18.40
   9   1  -5  434.46   17.70
   1  -9  -5  469.15   18.10
   1   9   5  453.95   16.50
   9  -1   5  458.95   20.60
  -1  -9   5  446.56   18.00
  -1  -9   5  447.06   17.70
  -9  -1  -5  437.56   15.50
   1  -9  -5  449.46   17.60
  -9  -1  -5  463.35   25.10
   1   9   5  463.55   22.00
   2   9  -5  579.04   25.10
  -9  -2   5  559.34   19.00
  -9   2  -5  554.84   20.80
  -9   2  -5  595.94   29.50
   9   2   5  625.84   21.10
   9  -2  -5  575.14   22.50
   2  -9   5  647.74   22.10
   9   2   5  606.34   30.20
  -2  -9  -5  591.54   23.20
  -9  -2   5  598.94   19.10
  -9   2  -5  548.85   23.40
  -2   9   5  601.84   27.00
   2   9  -5  611.94   22.70
  -2   9   5  619.34   21.10
  -2  -9  -5  610.14   22.40
  -9  -2   5  564.94   22.40
   2  -9   5  614.24   22.60
  -2   9   5  607.14   21.10
   2   9   5  600.24   25.90
   2  -9  -5  609.74   21.20
  -2   9  -5  609.34   22.00
  -2  -9   5  603.54   21.80
  -2  -9   5  606.24   21.40
   2   9   5  572.44   20.90
   9  -2   5  625.94   20.50
   9   2  -5  567.04   21.90
  -9   2   5  557.14   22.40
   2   9   5  590.74   19.60
   9   2  -5  577.64   22.20
   2  -9  -5  606.74   20.70
   9  -2   5  592.44   23.00
  -2   9  -5  602.04   24.40
  -9  -2  -5  591.04   27.70
  -9  -2  -5  627.04   26.90
  -9  -3   5  617.24   20.20
  -9   3  -5  633.94   24.00
   3  -9   5  609.24   23.10
   3  -9   5  623.94   22.20
  -9  -3   5  541.05   22.70
  -3   9   5  652.33   24.40
   9  -3  -5  597.94   23.20
  -9   3  -5  600.74   21.90
   9   3   5  554.54   29.20
  -3  -9  -5  640.34   23.90
  -9   3  -5  585.34   31.30
   3   9  -5  595.34   17.90
  -9  -3   5  586.04   20.50
   9   3   5  598.34   21.40
  -3   9   5  609.24   21.70
   3   9  -5  624.14   23.20
  -3   9   5  649.43   21.90
   9  -3   5  593.34   20.40
   3   9   5  603.04   26.50
   9   3  -5  631.94   22.00
  -3  -9   5  595.74   21.80
  -9  -3  -5  587.54   27.90
  -9   3   5  567.14   22.70
  -9  -3  -5  622.84   27.30
   3   9   5  579.04   21.10
   3   9   5  597.64   19.90
  -3  -9   5  586.24   21.40
  -3   9  -5  628.14   22.30
   9   3  -5  609.74   23.50
   9  -3   5  599.44   23.30
  -3   9  -5  593.94   24.60
   3  -9  -5  624.54   20.80
   3  -9  -5  635.64   21.40
   4   9  -5  434.06   19.20
  -9   4  -5  414.56   18.00
  -9  -4   5  457.05   18.40
   9   4   5  416.76   17.00
  -4   9   5  419.26   17.40
  -4   9   5  431.46   20.00
  -4   9   5  396.36   17.80
   9  -4  -5  439.26   19.20
   4   9  -5  346.07   15.70
  -9  -4   5  382.26   18.90
  -9   4  -5  427.86   19.90
   9   4   5  389.06   25.50
  -9   4  -5  446.66   27.20
  -4  -9  -5  441.76   19.80
   4  -9   5  403.36   18.60
  -9  -4   5  449.66   17.40
   4  -9   5  425.96   18.30
   4   9   5  414.76   23.40
  -9  -4  -5  402.16   22.40
   9   4  -5  438.76   21.30
   4   9   5  398.96   16.80
  -9  -4  -5  448.16   23.10
  -4  -9   5  424.16   17.30
   9   4  -5  420.06   17.70
   4  -9  -5  439.06   15.80
  -4  -9   5  417.96   17.50
   4  -9  -5  369.86   17.60
   9  -4   5  423.86   19.30
   9  -4   5  408.56   16.00
   4   9   5  404.06   14.40
  -4   9  -5  416.56   19.60
  -4   9  -5  408.86   17.60
  -9   4   5  410.26   18.40
  -9   5  -5  288.77   16.80
  -9   5  -5  309.07   16.20
   5  -9   5  280.97   16.60
  -9  -5   5  276.27   16.40
  -5   9   5  307.97   15.20
  -5  -9  -5  293.47   18.90
   5  -9   5  293.47   15.30
   5   9  -5  323.77   17.40
   5   9  -5  298.67   12.40
   9  -5  -5  295.27   17.20
  -9   5  -5  297.87   27.50
   9   5   5  306.67   22.90
  -9  -5   5  310.27   14.80
   9   5   5  293.17   14.60
  -9  -5   5  307.47   15.10
  -5  -9  -5  313.77   18.20
  -5   9   5  313.77   17.20
  -5  -9   5  290.17   15.00
   5   9   5  267.27   13.80
  -9  -5  -5  291.07   20.20
   9   5  -5  316.67   19.50
  -5   9  -5  305.07   17.10
   5  -9  -5  286.37   13.60
  -5  -9   5  284.87   14.60
  -9  -5  -5  304.07   20.70
   5  -9  -5  301.77   13.90
   9  -5   5  318.87   14.10
  -5   9  -5  274.67   14.90
   5   9   5  307.67   21.60
   9   5  -5  266.57   14.50
   5   9   5  265.77   12.20
  -5  -9   5  287.37   16.80
  -9   5   5  280.67   15.70
   9  -5   5  278.27   16.30
   9   6   5  160.08   20.70
   6  -9   5  199.58   15.40
  -9  -6   5  199.58   14.40
   9  -6  -5  196.58   15.50
  -9  -6   5  182.98   13.60
   6  -9   5  202.18   14.40
   9   6   5  193.08   12.30
  -6   9   5  194.18   13.20
  -6  -9  -5  195.08   16.60
  -6   9   5  208.58   16.20
  -9  -6   5  228.78   14.30
  -9   6  -5  196.28   14.90
   6   9  -5  192.58   10.90
  -9   6  -5  206.48   15.60
  -6  -9  -5  170.28   16.20
   6   9  -5  173.18   15.90
  -9   6  -5  170.08   27.50
   9   6  -5  207.98   18.30
  -9  -6  -5  201.78   18.30
  -6  -9   5  189.38   12.60
  -9  -6  -5  206.48   20.10
   6   9   5  179.88   12.30
   9   6  -5  194.88   12.60
   9  -6   5  206.98   15.20
  -6  -9   5  179.98   13.10
   9  -6   5  214.18   12.00
   6  -9  -5  186.28   14.60
  -6   9  -5  203.88   15.00
   6   9   5  187.48   20.40
  -6  -9   5  179.38   15.00
  -9   6   5  170.38   13.50
   6  -9  -5  207.78   11.50
   9   7   5   73.59   15.20
  -7  -9  -5   62.29   12.80
  -9  -7   5   84.49   12.30
   7  -9   5   77.79   14.10
   9   7   5   70.89   10.10
  -9  -7   5   84.49   12.60
   7   9  -5   91.99   14.80
  -7  -9  -5   95.59   14.60
  -9   7  -5  106.79   14.30
   9  -7  -5   98.49   14.00
  -9   7  -5  125.49   21.60
  -7   9   5   89.49   10.80
  -9   7  -5   83.79   12.50
   7  -9   5   86.39   12.80
   7   9  -5   81.19    9.30
  -9  -7   5  108.49   12.30
   7  -9  -5   90.29   11.50
  -7  -9   5   81.59   11.00
  -7  -9   5  113.69   12.50
   9   7  -5   92.99   13.70
  -7  -9   5   85.59   11.10
  -7   9  -5   93.49   11.90
   7  -9  -5   90.79   11.00
  -9  -7  -5   99.89   16.10
   7   9   5   90.39   14.80
  -7   9  -5  104.59   12.70
   9  -7   5   85.09   10.30
   7   9   5   91.39   10.60
  -9   7   5   79.29   11.80
   7  -9  -5  108.59   10.30
   9   7  -5   89.59   10.60
   9  -7   5  102.59   13.30
  -9  -7  -5   63.89   13.50
  -9  -8   5   48.30   10.40
  -9   8  -5   38.10    9.20
  -9   8  -5   89.99   20.20
  -8  -9  -5   20.60   13.70
   8   9  -5   69.29   13.20
   9  -8  -5  104.39   14.10
   9   8   5   54.29    8.50
   8   9  -5   66.19    9.60
  -9  -8   5   55.49    9.80
  -9   8  -5   48.20   10.10
   8  -9   5   54.09   10.10
   8  -9   5   50.79   10.90
  -9  -8   5   73.49   11.90
  -8  -9   5   47.10    9.50
  -8  -9   5   42.80   10.20
   8   9   5   49.50    8.60
  -8   9  -5   44.80    9.20
   9   8  -5   49.20   12.90
  -8  -9   5   52.29    9.10
   9  -8   5   57.69   10.40
   8  -9  -5   72.89   12.20
  -8   9  -5   45.20    9.20
   8  -9  -5   47.80   10.40
   9   8  -5   46.70    8.00
  -9  -9   5   25.80    8.90
  -9  -9  -5   30.00   10.80
   9  -9  -5   43.50   10.90
  -9   9  -5   31.80    9.90
   9   9   5   26.50    7.70
  -9  -9   5   38.30    9.30
  -9   9   5   23.70    8.40
  -9  -9   5   26.80   10.10
   9  -9   5   34.80   10.20
   9   9  -5   29.40   13.20
   9   9  -5   36.60    8.30
  -9   9  -5   11.70    8.40
   0  10  -5    8.30    5.80
 -10   0   5   10.20    3.80
   0 -10   5   10.70    6.00
 -10   0   5    5.00    3.40
   0 -10  -5   13.60    6.80
 -10   0  -5    6.30   12.20
   0 -10  -5    3.10    6.60
  10   0   5    3.70    6.10
   0 -10   5   13.10    5.90
 -10   0   5   14.70    7.40
  10   0   5   -4.90    9.00
  10   0  -5    5.40    8.00
   0  10   5   -5.70    8.90
   0  10   5   -1.30    4.80
 -10   0  -5    4.40    6.10
   0  10   5    4.10    4.90
   0  10  -5    1.40    7.30
  -1 -10  -5   14.40    7.80
 -10   1  -5   18.70   13.40
 -10   1  -5   11.20    9.10
   1 -10   5   20.20    6.20
   1 -10   5   16.20    6.10
  10   1   5   40.80   14.50
   1  10  -5    8.50    8.10
  -1  10   5    7.10    9.20
 -10  -1   5    9.70    7.30
  -1  10   5   16.00    5.50
   1  10  -5   15.50    6.50
  -1  10   5   16.70    5.30
 -10  -1   5   12.70    4.80
  -1 -10  -5   11.30    7.40
  10   1   5    9.00    6.10
  10  -1  -5   21.90    8.60
 -10  -1  -5   18.80   12.80
  10   1  -5   15.30    8.10
  -1  10  -5   11.30    6.20
  -1 -10   5   17.80    5.70
   1 -10  -5   13.20    6.30
   1  10   5    8.40   10.20
  10   1  -5   13.50    8.60
 -10  -1  -5   24.40    6.90
  -1 -10   5   13.30    5.70
   1  10   5    9.40    5.10
   1  10   5   10.80    5.40
  10  -1   5   15.40    6.20
  -1  10  -5   22.50    9.40
 -10   1   5   20.70    7.70
  10  -1   5   15.50    9.80
   1 -10  -5   20.30    6.40
  10  -2  -5   65.29   10.50
  10   2   5   56.39   16.20
   2 -10   5   63.79   10.40
  -2  10   5   73.69    8.90
   2  10  -5   68.49   11.00
  -2  10   5   47.40    7.40
  -2 -10  -5   59.69    9.50
  -2 -10  -5   70.39   10.50
 -10  -2   5   61.89    9.30
   2 -10   5   58.59    9.40
 -10   2  -5   53.29    8.60
   2  10  -5   66.19   12.00
  10   2   5   52.39    7.90
 -10  -2   5   58.29    8.90
 -10   2  -5   42.90   10.70
 -10   2  -5   65.59   15.70
 -10  -2   5   51.49    9.40
  -2  10   5   69.59   10.60
  10  -2   5   64.89   10.80
   2 -10  -5   65.29    9.50
 -10   2   5   48.90    9.50
   2  10   5   76.09   13.20
 -10  -2  -5   38.40   12.70
 -10  -2  -5   48.80   14.40
  -2 -10   5   45.40    6.90
  -2  10  -5   64.99   10.90
  10   2  -5   61.69    9.60
  10   2  -5   41.20    9.60
   2 -10  -5   63.09    8.50
  -2 -10   5   50.59    9.80
   2  10   5   60.49    8.50
  -2  10  -5   46.50    8.00
  10  -2   5   59.49    7.90
  10   3   5  118.29   11.20
 -10   3  -5  110.99   14.30
  10  -3  -5  148.89   13.50
  -3  10   5  158.88   15.20
   3  10  -5  141.79   15.90
 -10  -3   5  130.99   11.40
 -10  -3   5  114.49   13.10
   3  10  -5  131.99   12.90
  -3 -10  -5  118.29   14.60
  10   3   5  120.79   20.50
   3 -10   5  128.09   11.10
  -3  10   5  130.79   11.00
 -10  -3   5  113.99   11.30
  -3  10   5  126.79   10.60
   3 -10   5  147.19   12.60
 -10   3  -5  120.29   12.20
  -3 -10  -5  130.49   13.80
 -10   3  -5  131.89   17.40
  10   3  -5  155.48   12.60
   3  10   5  141.59   17.90
  -3 -10   5  119.79   10.40
 -10  -3  -5  116.99   17.90
  -3  10  -5  125.09   10.90
  10  -3   5  113.79   13.90
 -10  -3  -5  115.69   20.80
  10   3  -5  135.09   15.60
   3  10   5  128.09   10.40
 -10   3   5  122.69   12.60
   3 -10  -5  141.99   10.40
  10  -3   5  121.49   10.70
   3 -10  -5  142.49   10.70
  -3  10  -5  118.89   13.80
   3  10   5  143.19    9.50
  -3 -10   5  125.29   11.10
  -4 -10  -5   99.39   13.40
  10   4   5   72.39   10.20
 -10   4  -5   74.49   18.20
  10  -4  -5   82.19   11.20
 -10  -4   5   75.29   12.50
  -4  10   5   79.89   14.40
   4  10  -5   70.29   12.10
 -10   4  -5   71.39   11.10
  10   4   5   82.49   16.10
 -10   4  -5   68.49   10.10
   4 -10   5   70.19   10.50
 -10  -4   5   77.99   10.60
 -10  -4   5   68.39   11.20
  -4 -10  -5   63.29   10.70
  -4  10   5   90.79   10.80
   4  10  -5   70.79   11.90
  -4  10   5   83.09   10.20
   4 -10   5   74.09   12.20
  -4  10  -5   88.99   11.20
  -4 -10   5   70.69    9.60
  -4 -10   5   60.89   10.10
 -10  -4  -5   71.79   13.40
  10   4  -5   90.49   11.20
   4 -10  -5   84.29    8.80
 -10  -4  -5   63.99   14.20
  10   4  -5   66.79   12.10
  10  -4   5   78.19   10.30
   4 -10  -5   60.89    9.90
   4  10   5   93.69    9.70
  -4  10  -5   80.49   12.20
 -10   4   5   84.59   11.80
  10  -4   5  108.69   13.30
   4  10   5   76.49   13.00
  -5  10   5   22.30    6.80
 -10   5  -5   32.70   16.30
 -10   5  -5   25.30    9.10
  10  -5  -5   28.30    9.70
 -10  -5   5   27.00    8.90
 -10  -5   5   22.10    9.10
  -5 -10  -5   26.00   10.90
  -5  10   5   35.30   11.10
   5  10  -5   32.20    6.20
   5 -10   5   26.20    7.50
   5 -10   5   33.80    8.60
   5  10  -5   39.50    9.10
 -10  -5   5   33.10    8.20
  -5 -10  -5   45.50   10.50
  10   5   5    6.10   13.20
 -10   5  -5   38.10    8.80
  10   5   5   23.60    7.00
  -5  10  -5   24.90    7.40
 -10   5   5   31.10    8.30
  -5  10  -5   29.70    8.70
  -5 -10   5   26.10    7.00
   5 -10  -5   31.60    7.00
  10  -5   5   34.30    7.70
 -10  -5  -5   30.80   11.80
   5  10   5   41.50    7.80
  10  -5   5   30.50    8.60
   5 -10  -5   37.40    6.80
  -5 -10   5   32.00    7.80
  10   5  -5   44.10   12.40
 -10  -5  -5   28.20   13.00
  10   5  -5   31.00    8.10
   5  10   5   41.70   13.50
  -6 -10  -5   63.89   11.50
  -6  10   5   56.09   11.30
   6 -10   5   40.00    8.70
 -10  -6   5   46.60    9.80
  -6  10   5   65.69   10.70
 -10   6  -5   58.09   19.60
 -10  -6   5   55.89    9.80
   6  10  -5   43.00    7.00
 -10  -6   5   63.99   10.00
  10   6   5   55.69    8.90
   6 -10   5   76.39   12.20
   6  10  -5   53.29   11.40
 -10   6  -5   54.89   10.60
  10  -6  -5   56.19   11.40
 -10   6  -5   61.39   10.10
  10   6   5   37.20   14.80
   6 -10  -5   59.69    9.50
 -10  -6  -5   61.89   14.30
  -6 -10   5   59.89    8.40
  -6  10  -5   51.29   10.40
  -6 -10   5   49.10    8.70
  -6  10  -5   47.30    8.90
   6 -10  -5   50.79   10.60
   6 -10  -5   60.89   10.80
   6  10   5   66.89    9.80
  10  -6   5   53.99   10.40
  10   6  -5   46.50    8.20
   6  10   5   48.10   13.10
  10  -6   5   56.99    8.70
 -10   6   5   45.60    9.10
 -10  -6  -5   45.60   14.50
  10   6  -5   50.49   13.50
   7 -10   5   27.10   10.40
  -7  10   5   23.20   11.20
 -10   7  -5   11.80    8.40
 -10  -7   5   21.20    8.70
 -10  -7   5   24.70    9.40
  -7 -10  -5   32.90   11.00
   7 -10   5   33.70   10.10
  10   7   5    6.10    6.80
 -10   7  -5   51.49   19.00
   7  10  -5   23.60   10.60
  10  -7  -5   28.20   10.30
   7  10  -5   32.20    7.40
 -10  -7   5   21.40    9.20
 -10   7  -5   21.10    9.60
  -7 -10   5   21.00   10.00
  -7  10  -5   33.30    8.90
  -7 -10   5   18.10    7.90
  10   7  -5   -2.00   12.40
  10   7  -5   18.20    7.90
   7  10   5   27.50    7.30
  -7 -10   5   28.70    7.70
  10  -7   5   20.90    8.10
   7 -10  -5   25.60    9.90
 -10   7   5   29.30    8.70
   7 -10  -5   22.40    7.40
  -7  10  -5   31.80   11.60
  10  -7   5   18.40    8.90
   8  10  -5   12.50    7.70
 -10   8  -5   -1.40    9.20
  10  -8  -5    8.80   10.90
  -8  10   5    5.90    7.50
 -10  -8   5    7.20    9.00
  10   8   5   11.40    6.70
 -10   8  -5    5.90   23.70
  -8 -10  -5    2.20    8.90
 -10  -8   5    1.30    8.90
   8  10  -5   -3.10   12.40
   8 -10   5  -11.70   13.90
 -10  -8   5   12.60    9.20
 -10   8   5   11.30    7.80
   8  10   5    8.80    7.20
  10   8  -5    4.40    7.10
   8 -10  -5    4.80    9.90
  -8 -10   5   -1.10    9.70
 -10  -8  -5    9.60    9.90
  -8 -10   5   -3.50    7.10
  10  -8   5    5.70    9.30
  10   8  -5   -2.60   13.30
  -8  10  -5   16.60    8.20
 -10   9  -5   11.50    9.10
 -10  -9   5   20.40   10.30
 -10  -9   5    8.90   10.70
  10  -9  -5   12.90   10.90
   9  10  -5    9.60    7.90
  10   9   5   13.60    7.60
  -9 -10  -5   14.60   10.20
 -10  -9   5    2.90    9.30
  -9  10   5    5.70    7.90
   9 -10   5   24.90   10.70
 -10   9   5   14.00    8.10
  10  -9   5   25.60   10.60
 -10  -9  -5   13.90    9.90
  -9  10  -5    5.20    7.70
   9  10   5   20.00    7.70
  10   9  -5   17.40    8.10
  -9 -10   5   -5.90   10.70
  10   9  -5   13.70   14.80
  10  10  -5    1.30    8.40
 -10 -10  -5   13.60   10.60
 -10  10   5   10.00    8.60
 -10 -10   5    7.00    9.60
  10 -10   5    2.10    9.60
 -10  10  -5   13.30    8.50
  10  10   5   17.30    8.30
  10 -10  -5    2.40   10.90
 -10 -10   5   36.40   17.40
   0 -11   5   52.99    8.50
   0 -11  -5   45.20    8.90
   0  11  -5   45.00    8.00
 -11   0  -5   34.70   14.90
   0 -11   5   65.79   10.70
   0 -11  -5   35.80    8.20
 -11   0   5   53.39    6.40
   0  11  -5   50.69   10.60
   0  11   5   29.40   10.10
   0  11   5   33.90    6.70
   0  11   5   63.89    9.30
  11   0   5   40.50    8.20
 -11   0   5   44.20    9.50
  11   0  -5   53.59    9.90
 -11   0  -5   37.00    8.50
  -1  11   5   94.89   16.20
 -11   1  -5   87.19   11.20
  11   1   5   90.39   11.00
  -1  11   5   96.69   10.10
   1 -11   5   75.49   11.60
 -11  -1   5  112.39    9.40
  -1 -11  -5   95.59   12.50
   1  11  -5   94.99   14.30
 -11   1  -5   79.89   16.20
   1 -11   5   94.09   10.90
  -1 -11  -5  103.19   12.30
  -1  11   5  101.29   10.10
  11  -1  -5   91.79   13.30
 -11   1  -5  138.19   16.50
   1  11  -5   97.19   12.00
  11   1   5  119.59   18.80
 -11  -1   5  107.19   13.30
   1  11   5  119.89   10.20
  -1 -11   5   98.89   11.40
  11   1  -5  110.29   12.90
 -11  -1  -5  125.89   19.40
   1 -11  -5  104.39   11.50
  11  -1   5  121.39   11.10
   1  11   5  119.89   10.00
  -1 -11   5  116.79   10.50
 -11  -1  -5   81.69   16.50
   1 -11  -5  115.59   11.40
 -11   1   5  110.09   13.30
  -1  11  -5  105.39   13.60
   1  11   5  129.79   16.80
  11   1  -5  114.09   16.50
  -1  11  -5  116.09   12.10
  11  -1   5  117.19   16.30
  11   2   5  140.89   12.20
   2  11  -5  142.69   12.30
  -2  11   5  139.59   15.90
 -11  -2   5  136.09   14.10
 -11   2  -5  132.99   16.20
 -11   2  -5  132.59   12.50
  11   2   5  205.18   26.20
 -11  -2   5  166.28   16.20
  11  -2  -5  155.28   14.10
  -2 -11  -5  170.98   14.20
  -2  11   5  140.29   11.40
 -11   2  -5  156.18   23.70
   2 -11   5  152.98   13.10
  -2 -11  -5  150.38   14.20
  -2  11   5  149.99   11.50
   2  11  -5  151.68   15.50
 -11  -2   5  164.78   11.60
   2 -11   5  149.59   12.00
   2  11   5  145.29   11.10
 -11  -2  -5  161.38   22.10
  -2 -11   5  144.29   11.20
   2 -11  -5  143.89   11.50
   2 -11  -5  162.08   12.50
 -11  -2  -5  169.38   20.00
  11   2  -5  167.18   13.60
  -2  11  -5  144.59   12.80
   2  11   5  134.99   10.60
 -11   2   5  131.29   14.00
  -2 -11   5  142.49   12.20
  11  -2   5  158.38   11.70
   2  11   5  164.48   18.90
  11   2  -5  159.08   17.90
  11  -2   5  134.19   16.30
  -2  11  -5  136.39   14.40
 -11  -3   5  241.68   14.50
   3 -11   5  222.78   14.20
  -3 -11  -5  247.58   17.50
  11   3   5  213.78   26.90
 -11  -3   5  249.38   16.80
 -11   3  -5  238.38   18.00
 -11   3  -5  216.38   26.00
  -3  11   5  224.58   13.90
   3  11  -5  245.38   15.90
  -3 -11  -5  254.07   16.50
   3  11  -5  237.58   18.70
 -11   3  -5  244.98   15.20
  11   3   5  260.37   14.40
   3 -11   5  227.18   14.60
  11  -3  -5  234.38   16.00
  -3  11   5  234.88   19.00
  -3  11   5  259.67   14.20
  -3 -11   5  230.58   13.90
  -3  11  -5  246.38   16.70
  11  -3   5  247.68   14.00
  -3 -11   5  207.48   13.20
   3 -11  -5  246.68   13.10
   3  11   5  210.18   20.10
   3  11   5  251.87   13.10
 -11  -3  -5  263.57   24.50
  11  -3   5  238.28   17.20
  11   3  -5  259.27   15.30
 -11  -3  -5  261.67   22.30
 -11   3   5  223.98   15.90
   3 -11  -5  256.17   14.30
  -3  11  -5  251.97   14.70
   3  11   5  231.18   13.50
   4 -11   5  134.69   12.90
  11   4   5  150.38   12.00
  -4 -11  -5  141.79   17.00
  11  -4  -5  160.68   15.70
   4 -11   5  164.18   15.60
   4  11  -5  145.99   17.30
  -4  11   5  154.88   12.40
   4  11  -5  106.79   14.40
  11   4   5  164.78   23.90
  -4 -11  -5  162.38   15.50
 -11   4  -5  134.19   13.60
 -11   4  -5  179.38   16.90
  -4  11   5  136.89   16.90
 -11   4  -5  150.78   21.10
  -4  11   5  148.39   12.20
 -11  -4   5  142.89   13.50
 -11  -4   5  130.49   14.20
  -4 -11   5  135.79   11.60
  -4 -11   5  135.19   12.50
 -11  -4  -5  119.49   21.40
 -11   4   5  127.59   13.60
 -11  -4  -5  111.79   18.40
  11  -4   5  154.98   15.60
  -4  11  -5  132.79   13.60
  11  -4   5  123.79   12.20
   4 -11  -5  153.68   12.40
   4  11   5  123.09   20.10
   4 -11  -5  140.89   11.10
  11   4  -5  130.99   20.00
   4  11   5  141.39   10.50
  -4  11  -5  140.59   14.00
  11   4  -5  136.29   12.80
   4  11   5  136.89   11.20
   5  11  -5   60.19   12.70
 -11   5  -5   83.59   10.80
   5  11  -5   92.29   12.70
  11  -5  -5  109.39   13.60
 -11   5  -5  111.39   16.00
  -5  11   5  100.89   17.00
 -11  -5   5  109.89   14.10
  -5  11   5   92.69   11.40
  11   5   5  100.39   12.30
 -11  -5   5  100.19   13.70
 -11   5  -5  105.39   21.00
   5 -11   5   90.19   12.20
 -11  -5   5   74.19   11.20
  11   5   5   92.09   18.80
  11  -5   5   88.89   11.80
  11  -5   5   84.09   14.00
  11   5  -5   92.59   11.70
  -5  11  -5   92.59   12.50
 -11  -5  -5   79.29   14.40
   5 -11  -5   97.69   12.00
   5  11   5  101.09   10.60
  -5 -11   5   76.19   10.70
   5 -11  -5  104.59   11.00
  -5  11  -5   78.39   12.90
  11   5  -5   60.59   15.40
  11   6   5   83.19   11.40
  11  -6  -5   59.29   16.80
 -11   6  -5   86.49   12.30
  -6  11   5   77.19   13.20
  -6 -11  -5   71.29   11.60
 -11  -6   5   77.49   12.20
   6  11  -5   79.79   14.50
 -11  -6   5   80.89   11.60
 -11  -6   5   95.89   14.60
 -11   6  -5   53.89   19.30
 -11   6  -5   88.39   13.10
  11  -6   5   99.09   14.80
  11   6  -5   70.39   15.80
  -6 -11   5   83.19   14.60
  -6  11  -5   82.99   12.80
   6  11   5   53.39    8.40
   6 -11  -5   90.19   12.50
  11  -6   5   94.69   12.20
   6 -11  -5  111.09   11.60
 -11   6   5   59.59    9.90
 -11  -6  -5   72.89   15.80
   6 -11  -5   93.69   12.90
  11   6  -5   91.99   11.90
   7  11  -5   32.00    8.50
 -11   7  -5   43.00   24.10
  -7  11   5   28.40    8.60
  11   7   5   35.80    7.90
 -11   7  -5   42.40   10.60
   7 -11   5   20.00    8.40
 -11  -7   5   40.00   10.70
 -11   7  -5   27.60   11.20
 -11  -7   5   50.79   11.40
 -11  -7   5   52.69   11.00
  11  -7  -5   16.30   10.40
  -7 -11  -5   30.20   10.80
  11   7  -5   59.49   16.00
 -11   7   5   25.40    8.40
   7  11   5   23.80    7.90
 -11  -7  -5   32.60   13.40
  11   7  -5   44.00    9.30
   7 -11  -5   45.80   10.20
  -7  11  -5   29.00    8.50
   7 -11  -5   34.10    8.50
   7 -11  -5   47.30   10.90
  11  -7   5   44.30   10.70
  -7 -11   5   39.30    8.80
  11  -7   5   25.00    9.30
  11   8   5   19.50    8.20
 -11  -8   5   16.30   10.90
 -11  -8   5    2.10   10.40
  -8  11   5    7.20    7.60
   8 -11   5   15.60   10.40
 -11  -8   5   13.70   10.60
   8  11  -5   10.50    7.90
 -11   8  -5    0.20    9.50
  -8 -11  -5    7.10    9.80
  11  -8  -5   12.50   10.60
  11  -8   5    9.70   11.40
 -11  -8  -5   30.50   12.40
  -8  11  -5   10.50    7.80
   8  11   5   15.60    8.10
 -11   8   5    9.10    8.30
  -8 -11   5   12.00    8.30
  11   8  -5   16.10   16.10
   8 -11  -5   12.80   10.20
 -11   9  -5   -2.00    8.70
  -9  11   5   14.00    8.30
 -11  -9   5   18.10   17.60
  11  -9  -5    2.40   10.70
  11   9   5   10.40    7.90
   9  11  -5   17.10    9.20
   9 -11   5   18.20   10.40
  -9 -11  -5   16.60   10.90
   9 -11  -5    4.60   11.20
 -11  -9  -5   12.30   11.20
  11   9  -5   13.90    9.20
  -9  11  -5   10.50    8.90
  -9 -11   5    6.00    8.40
   9  11   5   16.10    8.00
 -11   9   5    5.60    8.00
  11  -9   5   12.10   11.30
 -11  10  -5    9.20    9.00
 -11 -10   5  -22.10   10.00
 -10  11   5  -11.10    7.60
 -10 -11  -5    2.00   10.90
 -11 -10   5    9.30   13.00
  10 -11   5    0.90    9.70
  11 -10  -5    7.20   11.50
  10  11  -5   25.70    9.80
  11  10   5   15.10    7.90
  10  11   5   15.30    8.30
  10 -11  -5   12.60   12.00
 -11 -10  -5  -15.00    9.90
 -10 -11   5   -1.30   13.10
  11  10  -5    4.60    9.20
 -10  11  -5   -4.40    8.30
 -11  10   5    1.40    8.40
 -10 -11   5   17.30    9.70
  11 -10   5    7.40   11.10
 -12   0   5    9.60    8.70
 -12   0  -5    5.00   15.80
 -12   0  -5   33.70   15.10
 -12   0  -5   10.30   11.10
   0  12  -5   26.80    9.50
   0 -12  -5   20.30    8.00
   0  12   5   26.70    6.60
  12   0   5   19.50    7.70
   0  12   5    2.40   10.40
   0  12   5    9.10    5.70
   0 -12  -5   25.90    7.90
  -1  12   5   54.89    8.40
 -12   1  -5   46.00   16.30
  -1 -12  -5   47.20    9.20
 -12  -1   5   61.79   11.40
  -1 -12  -5   57.69   10.10
  12   1   5   32.70   16.60
 -12   1  -5   50.59   11.70
 -12   1  -5   39.70   10.00
   1  12  -5   50.89   11.60
  12   1   5   29.10    8.30
  -1  12   5   61.79   13.40
  -1  12   5   38.90    7.20
  12  -1  -5   36.80   12.50
   1  12   5   46.00    7.80
 -12  -1  -5   40.20   15.90
   1 -12  -5   50.39    9.20
   1  12   5   40.60    7.40
 -12   1   5   44.20   11.00
   1  12   5   62.69   13.00
  12  -1   5   37.50    8.40
 -12  -1  -5   31.80   14.20
  -1  12  -5   66.59   12.20
   1 -12  -5   53.19    8.90
 -12   2  -5  110.19   16.50
  -2 -12  -5   94.99   13.00
 -12  -2   5  107.39   12.50
  12  -2  -5   95.59   14.40
  -2  12   5  100.29   10.60
 -12   2  -5  105.09   19.20
 -12  -2   5   88.69   12.40
 -12   2  -5   76.49   10.90
  12   2   5  146.39   26.40
   2  12  -5   86.69   12.80
   2 -12   5  104.49   12.40
  -2  12   5   85.29   10.70
  -2  12   5   73.79   12.50
  -2 -12  -5  115.49   18.20
  12   2  -5   80.09   16.90
 -12  -2  -5   73.69   18.20
  12  -2   5   91.39   11.40
 -12   2   5   80.49   12.80
   2  12   5   98.79   10.50
  -2 -12   5   95.29   10.90
  -2  12  -5   76.29   11.40
   2 -12  -5   80.29   10.50
   2  12   5  118.49   16.30
  12  -2   5  103.69   17.20
  12   2  -5   82.19   16.30
   2 -12  -5   99.29   11.80
   2  12   5   93.59   10.30
 -12  -2  -5   99.89   17.60
 -12   3  -5   91.09   20.10
 -12   3  -5  135.19   17.20
  12   3   5  149.39   12.90
  12  -3  -5  148.39   15.30
 -12  -3   5  137.89   14.20
  -3  12   5  143.69   12.10
 -12  -3   5   95.89   14.60
   3  12  -5  145.09   16.70
  -3  12   5  125.99   18.20
 -12   3  -5  105.79   13.20
  -3  12   5  141.29   12.30
   3 -12   5  141.59   12.70
  12   3   5  132.19   21.90
   3  12   5  149.29   11.70
 -12  -3  -5  165.38   27.70
  -3 -12   5  139.99   12.30
   3 -12  -5  147.69   11.60
  -3  12  -5  127.29   14.10
  12   3  -5  124.59   15.30
  12   3  -5  135.89   22.70
 -12   3   5   65.99   19.00
 -12  -3  -5  128.59   20.70
   3 -12  -5  155.18   13.40
   3  12   5  117.99   10.90
  12  -3   5  149.19   12.60
  12  -3   5  134.19   17.20
  12   4   5  101.59   12.50
 -12  -4   5  117.29   14.80
 -12   4  -5  110.09   13.50
 -12   4  -5  125.09   17.80
  -4  12   5  120.89   12.20
   4 -12   5  109.99   12.60
   4  12  -5  115.29   15.90
  -4  12   5  107.99   18.40
 -12   4  -5   73.19   20.00
  -4  12   5  131.69   13.00
 -12  -4   5  127.09   15.40
  12  -4  -5   95.89   12.70
  -4 -12  -5  117.49   15.70
  12   4  -5  104.19   13.30
   4 -12  -5   95.89   13.00
  12  -4   5  109.29   12.40
 -12   4   5  103.79   14.00
   4 -12  -5  126.69   11.30
   4  12   5   96.99   11.10
  -4  12  -5  117.09   14.00
  -4 -12   5  125.29   11.70
  12  -4   5  101.49   15.60
  -5  12   5   82.09   14.20
  12  -5  -5   69.99   11.70
 -12  -5   5   97.69   16.20
   5 -12   5   55.09    9.50
 -12   5  -5   83.19   13.50
 -12   5  -5   47.70   20.30
 -12  -5   5   65.59   11.60
 -12   5  -5   72.49   12.90
   5  12  -5   77.99   14.20
  -5 -12  -5   83.99   12.20
  -5  12   5   78.39   11.80
  12   5   5   86.49   11.90
 -12  -5   5   75.49   12.10
 -12  -5  -5   80.69   16.50
  -5 -12   5   91.59   11.50
   5  12   5   91.89   11.30
 -12   5   5   64.69   10.80
  12   5  -5   61.79   10.00
  12  -5   5  102.09   15.70
   5 -12  -5   87.49   13.90
   5 -12  -5  113.19   12.00
  12   5  -5   78.59   17.30
  12  -5   5   87.29   13.20
  -5  12  -5   86.69   13.20
  -6  12   5   62.89    9.80
  12  -6  -5   68.49   12.30
  -6 -12  -5   91.79   15.50
 -12  -6   5   74.59   12.90
 -12  -6   5   35.90   11.50
 -12   6  -5   63.49   14.30
   6 -12   5   40.30    9.00
 -12   6  -5   74.19   12.10
  12   6   5   83.69   11.50
 -12  -6   5  110.29   16.20
   6  12  -5   51.79   20.60
  12  -6   5   50.09   11.30
  12   6  -5   81.29   18.10
   6 -12  -5   91.19   13.00
  12   6  -5   61.39   10.40
   6  12   5   52.19    9.30
  12  -6   5   99.49   12.00
 -12  -6  -5   60.89   15.50
  -6 -12   5   72.49   10.70
   6 -12  -5   99.99   13.30
  -6  12  -5   89.49   13.40
   6 -12  -5   87.99   14.40
 -12   6   5   62.19   10.70
 -12   7  -5   17.00   11.00
   7 -12   5   23.30    8.90
  -7  12   5   25.60    8.30
 -12  -7   5   23.10   12.40
   7  12  -5   21.70   14.80
  -7 -12  -5   26.60   10.20
 -12  -7   5   27.60   11.30
  12   7   5   31.10    8.40
 -12  -7   5   66.69   13.20
  12  -7  -5   27.10   11.00
  -7 -12   5   25.90    7.90
   7 -12  -5   35.90   11.80
  12  -7   5   25.50   10.30
  -7  12  -5   31.60    9.00
  12   7  -5  -17.10   23.60
  12  -7   5   27.30   11.20
 -12  -7  -5   16.80   13.00
 -12   7   5    3.20    8.10
   7  12   5   39.00    8.00
  12   7  -5   40.40   10.00
 -12  -8   5   34.30   13.10
   8  12  -5   24.20   16.10
  12  -8  -5   29.70   11.70
  12   8   5   17.40    8.00
 -12  -8   5   21.00   16.60
 -12  -8   5   17.60   12.40
  -8 -12  -5   28.20   11.10
  -8  12   5   11.60    7.30
 -12   8  -5   28.60   10.70
   8 -12   5   25.50   10.30
 -12  -8  -5   16.80   11.40
   8 -12  -5   29.70   12.20
 -12   8   5   25.00    9.50
   8  12   5   14.70    7.70
  12   8  -5   17.50    8.80
  -8  12  -5   22.00    8.50
  12   8  -5   12.40   24.90
  12  -8   5   -0.50   11.50
  -8 -12   5    2.20    7.30
 -12   9  -5    7.10    9.70
 -12  -9   5    7.40   13.00
   9 -12   5   24.20   11.70
 -12  -9   5    7.40   13.40
  12   9   5   17.70    8.50
  12  -9  -5   33.90   12.50
  -9 -12  -5   13.00   10.90
  -9  12   5    6.50    7.80
   9  12   5   16.30    8.30
  12   9  -5   16.80    9.20
 -12  -9  -5   24.40   11.70
  12  -9   5   17.80   11.40
  -9  12  -5   12.90    8.70
   9 -12  -5    1.80   11.50
  -9 -12   5   17.70    8.50
 -12   9   5    5.30    8.40
 -13   0  -5   34.30   13.30
   0  13   5   53.49    8.70
   0  13  -5   95.29   13.70
   0  13   5   58.89    8.60
  13   0   5   63.19    9.80
   0 -13  -5   87.29   15.00
 -13   0   5   41.30   11.80
   0 -13   5   68.19   10.70
  13   0  -5   62.19   10.90
 -13   0  -5   54.69   17.10
  13   1   5   93.39   12.70
  -1  13   5  116.19   16.10
  -1  13   5  115.89   11.70
   1 -13   5  117.69   12.00
  -1  13   5  104.19   11.80
 -13   1  -5  114.29   19.70
 -13   1  -5   90.59   23.40
  -1 -13  -5  112.99   13.90
   1  13  -5   96.89   15.60
  13  -1  -5  118.99   14.30
  -1  13  -5  112.99   14.90
 -13  -1  -5   90.89   18.00
   1 -13  -5  138.89   22.90
   1  13   5  121.39   11.60
  13  -1   5  110.99   13.00
  13   1  -5   91.89   13.90
   1  13   5   99.29   11.30
  -1 -13   5  111.99   12.00
   1 -13  -5  112.29   11.90
 -13   2  -5  120.59   24.90
  13   2   5  182.28   14.30
  -2  13   5  152.68   19.90
 -13  -2   5  126.69   20.80
  13  -2  -5  146.99   15.00
   2  13  -5  143.69   17.20
  -2 -13  -5  156.78   15.30
  -2  13   5  168.58   13.10
   2 -13   5  180.08   13.60
  -2  13   5  183.78   13.60
 -13   2  -5  148.69   15.30
   2 -13  -5  161.98   12.80
  13  -2   5  132.89   15.90
  -2  13  -5  149.29   15.00
   2  13   5  179.88   12.80
  13   2  -5  134.19   13.50
   2 -13  -5  171.98   14.50
 -13   2   5  140.99   16.40
  -2 -13   5  157.88   12.40
   2  13   5  160.18   12.80
  13  -2   5  178.08   21.00
   3 -13   5  184.58   13.90
  -3  13   5  172.08   14.20
 -13   3  -5  181.48   19.90
   3  13  -5  162.18   18.10
 -13  -3   5  192.18   20.30
  -3 -13  -5  176.38   15.70
  13   3   5  169.48   14.10
  -3  13   5  172.08   21.60
  -3  13   5  210.08   14.10
  13  -3  -5  146.59   15.60
 -13   3  -5  186.18   36.70
  -3 -13   5  176.48   13.60
  -3  13  -5  148.79   14.80
  13  -3   5  203.68   20.60
  13   3  -5  194.38   14.50
 -13   3   5  163.68   16.10
   3  13   5  186.18   13.50
   3 -13  -5  196.58   13.30
  13  -3   5  236.08   22.30
   3 -13  -5  194.78   15.50
 -13  -3  -5  196.58   23.80
  -4  13   5  146.89   13.60
  -4 -13  -5  149.69   14.90
  13   4   5  159.08   14.00
 -13   4  -5  128.09   15.20
  13  -4  -5  131.79   16.00
   4  13  -5  133.79   18.40
   4 -13   5  157.68   14.20
 -13  -4   5  157.58   24.50
  13   4  -5  146.19   13.20
  13  -4   5  129.99   13.70
 -13  -4  -5  200.98   23.00
  -4  13  -5  142.69   14.30
  -4 -13   5  139.19   12.60
  13  -4   5  116.39   20.20
 -13   4   5  118.39   14.70
   4 -13  -5  134.59   15.30
   4  13   5  161.98   13.70
   4 -13  -5  144.19   13.00
   5  13  -5   75.49   14.40
  13  -5  -5   79.69   12.50
  -5  13   5   89.59   12.10
 -13  -5   5   79.79   21.40
   5 -13   5  106.49   13.90
  -5 -13  -5  122.99   15.60
  13   5   5   98.39   12.80
 -13   5  -5   81.29   13.00
   5 -13  -5  137.99   16.10
 -13  -5  -5   80.89   15.90
  -5 -13   5   87.99   11.20
  13  -5   5  100.19   16.40
  13  -5   5  114.89   14.70
  -5  13  -5  102.89   14.30
  13   5  -5   93.99   13.20
 -13   5   5   99.69   14.30
   5  13   5  100.09   13.10
   5 -13  -5   79.59   13.70
   5 -13  -5  132.89   17.90
  13  -6  -5   57.59   12.00
  -6  13   5   43.80    9.10
   6  13  -5   57.29   15.30
   6 -13   5   50.89   10.80
 -13  -6   5   33.20   13.10
  -6 -13  -5   68.09   12.50
 -13   6  -5   43.50   11.90
  13   6   5   47.00    9.30
   6 -13  -5   67.89   13.30
 -13   6   5   41.90   10.70
 -13  -6  -5   59.09   14.90
  13  -6   5   55.99   11.50
  -6 -13   5   44.60    8.60
   6 -13  -5   52.29   10.20
   6  13   5   59.29   10.10
  13   6  -5   52.09    9.50
  13  -6   5   63.09   13.30
  -6  13  -5   36.90    8.90
   7  13  -5   49.70   15.90
  -7 -13  -5   29.90   11.50
 -13  -7   5   13.10   12.30
   7 -13   5   38.80   11.20
  13  -7  -5   14.30   10.90
  13   7   5   23.00    8.20
 -13   7  -5   30.90   11.40
  -7  13   5    8.80    7.90
  13  -7   5   27.40   12.00
  13  -7   5   -0.20   11.40
 -13   7   5   22.50   10.00
  -7  13  -5   20.30    8.90
  -7 -13   5   27.00    8.50
   7  13   5   22.60    8.50
   7 -13  -5   28.20   12.70
  13   7  -5   30.90   10.10
 -13  -7  -5   31.10   14.60
 -13   8  -5   13.90   11.10
   8  13  -5   19.90   17.20
 -13  -8   5   15.90   13.50
   8 -13   5   25.10   11.00
  13  -8  -5   28.90   12.20
  13   8   5   12.60    8.40
  -8  13   5   23.60    9.10
  -8 -13  -5    1.90   10.40
 -13   8   5   17.90    9.80
   8  13   5    9.40    8.10
  -8  13  -5   14.80    8.50
  -8 -13   5   17.30    8.90
   8 -13  -5   12.50   12.70
 -13  -8  -5    6.10   12.70
  13  -8   5   11.60   12.00
  13   8  -5   10.60    9.30
   0  14  -5   55.59   11.80
   0 -14   5   32.00    7.70
 -14   0  -5   40.70   18.50
   0  14   5   41.30    8.80
  14   0  -5   44.00   10.40
  14   0   5   36.90    9.60
   0 -14  -5   40.00    8.40
   0  14   5   52.99    8.90
 -14   0   5   60.69   12.50
  -1  14   5   75.99   10.60
  14  -1  -5   74.69   11.30
  -1 -14  -5   91.69   13.60
  14   1   5   84.69   12.40
   1  14  -5   99.49   13.80
   1 -14   5   99.79   12.20
  -1  14   5   87.49   12.30
 -14  -1   5   74.89   13.30
 -14   1  -5   97.89   20.20
  14   1  -5   63.09   10.50
   1  14   5   84.49   12.00
  -1 -14   5   82.69   11.60
 -14  -1  -5  102.29   20.40
 -14   1   5   71.49   13.30
  -1  14  -5   86.59   14.10
   1  14   5   90.29   12.20
  14  -1   5   88.29   13.20
   1 -14  -5  107.99   13.00
  14  -2  -5  106.89   14.20
 -14  -2   5   97.69   15.10
  -2 -14  -5  138.19   14.00
   2 -14   5  127.89   13.40
  14   2   5  137.39   13.80
   2  14  -5  121.99   16.60
  -2  14   5  137.49   13.40
  -2  14   5  128.29   14.30
   2 -14  -5  126.39   14.80
   2  14   5  147.79   12.70
 -14  -2  -5  123.69   19.20
  14   2  -5  115.89   14.30
  14  -2   5  132.79   14.40
 -14   2   5  117.39   15.90
  -2  14  -5  121.89   14.70
  -2 -14   5  129.29   12.20
  -3  14   5  107.89   14.60
   3  14  -5  113.69   17.90
  14   3   5  153.58   14.00
  -3 -14  -5  140.99   15.30
  -3  14   5  131.59   13.60
  14  -3  -5  119.89   15.70
 -14  -3   5  117.19   15.80
   3 -14   5  152.28   14.00
 -14   3   5  102.69   15.50
  14  -3   5  143.39   23.50
  14   3  -5  129.79   14.00
  -3  14  -5  119.49   15.10
  -3 -14   5  133.69   12.50
  14  -3   5  131.39   14.20
 -14  -3  -5  171.68   23.50
   3  14   5  130.39   13.80
   3 -14  -5  151.78   14.80
 -14  -4   5  133.29   16.80
  14  -4  -5  114.19   14.60
   4  14  -5   90.49   14.40
  -4 -14  -5  117.99   15.20
 -14   4  -5   88.29   13.80
   4 -14   5  111.29   13.60
  -4  14   5  124.39   13.20
  14   4   5  121.59   13.70
  14  -4   5  148.09   22.90
 -14  -4  -5  109.39   18.40
   4  14   5   94.09   12.90
  14   4  -5  116.59   13.30
  -4  14  -5  104.29   14.20
  14  -4   5  103.39   14.90
 -14   4   5  107.59   15.40
  -4 -14   5   86.99   11.40
   5  14  -5   70.59   15.00
  14  -5  -5   67.99   12.20
  14   5   5   89.29   13.10
  -5 -14  -5   63.69   11.30
   5 -14   5   81.39   13.90
 -14  -5   5  115.29   18.90
 -14   5  -5   61.89   13.20
  -5  14   5   82.79   13.00
  14  -5   5  105.19   15.20
 -14   5   5   58.89   12.40
  -5  14  -5   84.59   12.50
  14   5  -5   70.89   11.20
  -5 -14   5   87.89   12.00
  14  -5   5   43.20   15.00
   5 -14  -5   77.09   11.30
   5  14   5   53.29    9.60
 -14  -5  -5   59.19   17.60
   6 -14   5   55.39   11.30
 -14  -6   5   39.00   13.60
   6  14  -5   38.20   15.70
  14  -6  -5   38.60   11.80
  14   6   5   46.90    9.60
  -6  14   5   44.20    9.90
  -6 -14  -5   37.20   10.10
 -14   6  -5   31.50   12.40
 -14  -6  -5   51.59   15.90
  14  -6   5   51.59   15.00
  14   6  -5   34.30   10.00
  -6  14  -5   60.49   10.60
   6 -14  -5   41.20   10.20
  -6 -14   5   34.00    8.20
   6  14   5   38.50    9.60
   6 -14  -5   96.39   16.20
 -14   6   5   47.00   11.50
  14  -6   5   28.80   12.20
  15   0  -5   -0.50    9.40
 -15   0  -5   -2.30   19.30
   0 -15  -5    1.40    7.30
   0 -15   5    5.10    6.80
   0  15  -5    0.70    9.50
  15   0   5   -4.40    8.90
   0  15   5    7.70    9.00
 -15   0   5   27.60   12.40
 -15  -1   5   17.50   12.20
   1 -15   5   13.80    7.70
  -1  15   5   17.20    8.30
  15   1   5   29.00    9.30
  15  -1  -5   11.50    9.70
   1  15  -5    9.40   10.40
  -1 -15  -5    2.40    6.90
  -1  15   5   13.60   13.10
 -15   1  -5   43.90   19.80
   1  15   5    8.30    8.20
  -1  15  -5    7.40    8.50
   1 -15  -5    5.50    7.60
  -1 -15   5   11.00    7.40
 -15  -1  -5    5.70   18.40
   1  15   5   -1.10    9.80
 -15   1   5   11.70   11.10
  15   1  -5    8.20    9.20
  15  -1   5   16.10    9.60
  -2  15   5   28.60    9.10
  -2  15   5   26.10   12.60
  -2 -15  -5   23.10    8.80
   2 -15   5   40.70    9.70
  15  -2  -5   24.90   10.30
   2  15  -5   36.50   11.90
 -15  -2   5   46.00   13.10
  15   2   5   15.70    9.10
 -15   2  -5   28.50   20.80
 -15   2   5   16.30   11.60
  -2 -15   5   24.20    8.30
  15   2  -5   22.20    9.60
   2 -15  -5   30.60    8.50
   2  15   5    5.20    8.60
  15  -2   5   25.30   10.20
  -2  15  -5   21.10    9.50
 -15  -2  -5    8.20   17.50
  15  -3  -5   39.90   10.80
 -15  -3   5   55.79   14.60
  -3 -15  -5   31.80    9.10
   3  15  -5   58.29   13.70
  -3  15   5   42.60    9.60
  15   3   5   25.80    9.50
  -3  15   5   36.80   11.80
   3 -15   5   54.99   10.20
  -3 -15   5   48.70    9.40
  -3  15  -5   26.10    9.00
 -15   3   5   48.60   13.00
   3  15   5   38.60    9.70
  15  -3   5   27.80   10.40
   3 -15  -5   48.70    9.60
  15   3  -5   28.70   10.00
 -15  -3  -5   22.60   18.00
   0   0   6    1.90    3.80
   0   0  -6    2.60    4.00
   0   0   6   -5.60    3.80
   0   0   6    2.40    3.80
   0   0  -6    1.90    7.70
   0  -1   6   63.59    6.80
   0  -1  -6   67.59    9.20
   1   0  -6   63.09    6.50
   0   1   6   63.99    6.30
  -1   0  -6   66.19   11.90
   0   1  -6   72.29   10.00
   1   0   6   50.39    7.20
   1   0   6   60.69    6.10
   0   1  -6   55.79    6.80
   1   0  -6   52.49    8.50
  -1   0  -6   46.90    7.10
  -1   0   6   67.09    6.60
   0  -1   6   49.50    6.00
   0   1   6   57.89    7.00
   0  -1   6   62.79    6.90
  -1   0   6   62.49    7.30
  -1   0   6   68.49    6.20
   1   0   6   56.09    6.00
  -1  -1   6   15.20    4.10
  -1  -1   6   13.90    4.20
  -1   1  -6   10.00    8.60
  -1   1  -6    7.80    5.00
   1  -1  -6   15.10    4.20
   1  -1   6   12.10    3.90
   1   1  -6   17.90    4.10
  -1   1   6   13.20    4.30
  -1  -1  -6   20.30    7.50
   1   1   6   14.20    3.80
   1   1   6   10.20    8.80
  -1   1   6   11.60    4.50
  -1  -1   6    9.90    5.40
  -1   1   6   13.50    4.40
   1  -1  -6   12.40    6.60
   1   1   6   11.80    4.80
   1  -1   6    8.90    4.00
   0  -2   6   18.20    5.20
  -2   0  -6   19.10    9.20
  -2   0   6   17.80    4.10
   2   0  -6   21.00    7.00
   0   2   6   17.50    7.40
   2   0   6   13.90    4.10
   0   2   6   19.50    4.20
   2   0   6   13.20    5.20
   0  -2  -6   15.70    7.20
   2   0  -6   19.70    3.80
   0  -2   6   17.30    4.70
   0   2   6   12.40    4.20
   0   2   6   26.30    5.90
  -2   0   6   14.80    5.10
  -2   0  -6    9.50    5.10
  -2   0   6   13.60    9.20
   0   2  -6   12.10    4.70
   0  -2   6   15.10    3.90
   2   0   6   23.50    4.20
   0  -2   6   20.20    5.40
   1  -2   6   15.30    3.70
  -2   1  -6    9.70    5.60
  -1   2   6    5.10    4.50
   1   2  -6   10.10    4.00
  -1  -2  -6   12.50    7.30
  -2  -1   6   16.50    4.30
   2   1   6   12.80    5.70
   1  -2   6   13.70    4.70
  -1   2   6    6.50    6.80
  -2  -1   6   14.10    4.10
   2  -1  -6   22.90    6.30
  -2  -1   6   12.10    5.20
  -2   1  -6   14.10    9.40
  -2  -1   6   13.00    5.30
  -1   2   6   13.60    4.00
   1  -2   6   13.10    5.20
   2   1   6   16.90    4.30
   2   1   6   10.10    9.30
   2   1   6   13.40    3.60
   2  -1  -6   18.10    3.90
  -2   1   6    8.00    4.20
   1   2   6   20.30    6.10
   1   2   6   13.20    3.90
  -2   1   6   18.30    4.10
   2  -1   6    3.90    4.40
  -1   2  -6   14.30    5.10
   1   2   6   13.00    4.30
  -2  -1  -6   24.80    9.10
   2  -1   6   11.90    4.30
   1   2   6   10.30    8.00
  -1  -2   6   12.50    4.60
  -1  -2   6    9.10    4.50
  -1  -2   6    7.70    4.40
   2   1  -6   16.00    3.80
   1  -2  -6   11.30    6.20
   2  -1   6   11.60    3.90
  -2   1   6   12.30    4.60
  -1  -2   6   14.90    4.50
   2   2   6   -2.70    3.60
  -2  -2   6    1.40    4.20
   2  -2   6    1.70    3.20
   2  -2  -6    0.10    5.30
   2   2  -6   -4.30    3.30
   2  -2   6    2.90    4.50
   2   2   6   -4.90    5.70
  -2  -2   6    2.20    3.90
   2   2   6    2.00    2.90
  -2   2   6    3.10    4.10
   2  -2   6   -2.30    4.80
  -2  -2  -6    7.30    8.30
  -2   2  -6    0.60    4.70
  -2  -2   6   -1.90    4.40
   2   2   6    0.00    8.20
  -2   2   6    1.00    3.90
   0  -3   6  108.89    6.50
   0   3  -6   98.19    8.10
   3   0  -6  102.29    5.90
   0  -3   6  112.89    8.50
  -3   0  -6  113.59   15.10
   0   3   6  114.49   11.80
   3   0   6  104.99    7.30
   0   3   6  105.79    6.70
   3   0  -6   92.99   10.40
  -3   0   6   95.29    8.30
   0  -3   6  103.29    8.70
   3   0   6  102.59    8.80
   0  -3  -6   77.69   10.20
   0  -3  -6  101.89    9.30
   0   3   6  102.29    7.80
   0  -3   6  106.39    8.10
  -3   0   6   92.69    6.10
   3   1   6  290.97   11.70
  -1  -3  -6  283.47   14.10
   3  -1  -6  290.37    9.80
   1  -3   6  293.57   13.20
   3   1   6  286.67   13.30
   3   1   6  321.07   20.70
  -1   3   6  284.77   12.20
  -1   3   6  316.97   11.70
   1   3  -6  286.47   11.80
   1  -3   6  303.87   10.30
   3   1   6  288.07   10.30
  -3  -1   6  299.77   13.10
  -1  -3  -6  313.77   15.30
   1  -3   6  293.87   12.60
   1  -3   6  284.37   12.40
  -3  -1   6  304.27   10.70
   3  -1  -6  291.27   12.30
  -3   1  -6  294.67   19.20
  -1   3   6  310.37   15.20
  -3  -1   6  285.97   11.20
   1   3   6  328.47   16.70
  -3  -1  -6  299.37   17.80
   3   1  -6  307.57   10.60
  -1  -3   6  307.97   12.70
   3  -1   6  307.57   13.10
  -3   1   6  291.77   10.10
  -1  -3   6  304.67   12.50
   3  -1   6  298.97   11.20
   1   3   6  305.17   10.60
   1   3   6  294.17   12.10
   1  -3  -6  279.87   13.90
  -1   3  -6  286.77   12.80
  -3   1   6  297.97   12.40
  -1  -3   6  293.67   12.10
   1  -3  -6  294.17   12.90
  -3   1   6  295.87   12.80
   3   1  -6  290.57   13.00
  -3  -2   6  415.26   15.50
  -2   3   6  397.96   16.40
   2  -3   6  379.26   15.70
   2  -3   6  390.56   12.40
  -3   2  -6  404.06   21.10
  -3  -2   6  382.16   13.30
  -3  -2   6  397.36   14.00
  -2  -3  -6  402.06   18.60
   2   3  -6  388.26   14.10
   2   3  -6  377.36   13.70
   3  -2  -6  399.16   12.90
   2  -3   6  399.16   15.20
   3   2   6  391.76   11.90
  -2   3   6  409.46   14.50
  -3   2  -6  363.26   16.50
   3   2   6  396.66   14.40
   3   2   6  382.36   16.30
  -3   2  -6  387.06   15.50
   3  -2  -6  381.06   12.20
   3  -2  -6  366.06   13.20
  -2  -3  -6  373.16   17.10
  -2   3   6  389.56   14.40
   3   2  -6  400.36   13.30
  -3  -2  -6  392.26   19.60
   2  -3  -6  392.76   14.40
  -2  -3   6  401.86   15.20
   2   3   6  374.56   14.40
  -2  -3   6  372.76   14.50
   2  -3  -6  393.56   13.90
   2   3   6  403.06   19.30
   3  -2   6  382.26   15.20
  -3   2   6  401.06   14.90
   2   3   6  394.36   12.30
  -2   3  -6  406.56   16.10
  -3   2   6  396.26   15.00
   3  -2   6  393.56   13.10
   3   3  -6   90.29    7.40
  -3   3  -6   81.49   10.30
  -3   3   6   78.59    7.80
  -3   3   6   78.19    9.10
   3  -3   6   88.99    6.10
   3   3   6   95.29   14.10
   3  -3  -6   72.69    6.10
  -3  -3  -6  106.09   13.60
   3  -3  -6   82.79    6.70
  -3  -3   6   83.79    8.40
  -3   3   6   93.89    8.50
   3   3   6  105.09    7.60
  -3  -3   6   81.79    7.50
   3   3   6   86.39    4.80
   3   3  -6   89.49    7.70
  -3   3  -6   82.79    8.50
   3  -3   6   90.59    9.00
  -3  -3   6   91.89    7.20
   0  -4   6   16.10    4.80
  -4   0  -6   11.10    4.80
   4   0  -6    6.40    6.00
   4   0  -6   21.40    6.00
   0  -4   6   21.10    5.40
   0  -4   6   22.80    6.50
   0   4   6   12.70    7.20
   4   0  -6   23.20    3.80
   0   4   6   18.70    4.10
  -4   0   6   20.30    3.40
   0   4   6    8.80    6.30
   4   0   6   18.90    4.70
  -4   0  -6   20.20    9.70
   0  -4  -6   25.60    6.60
  -4  -1   6   50.59    6.10
   4   1   6   63.29   11.50
  -4  -1   6   56.99    5.40
  -1   4   6   60.99    8.50
  -1  -4  -6   68.09   11.10
  -1   4   6   55.09    7.20
  -1  -4  -6   47.30    7.80
   1  -4   6   68.59    8.00
   1  -4   6   54.69    7.60
   4  -1  -6   55.59    3.60
   4   1   6   44.70    6.30
   4   1   6   61.99    9.40
   1  -4   6   57.79    5.10
   1   4  -6   52.89    5.80
  -4   1  -6   53.39   10.80
   4  -1  -6   51.69    6.10
   1   4  -6   41.20    7.20
  -4   1  -6   53.89    9.40
  -4   1  -6   53.89    6.80
  -4  -1   6   59.19    8.30
   1  -4   6   57.59    9.90
  -1  -4   6   53.59    7.60
  -1   4  -6   50.19    8.00
   4  -1   6   53.99    5.90
  -1  -4   6   66.29    9.00
  -4  -1  -6   47.80    6.40
   4   1  -6   40.20    5.10
   1   4   6   57.39    9.10
   1  -4  -6   54.29    7.20
  -4  -1  -6   48.30   10.10
   1  -4  -6   54.19    8.60
   1   4   6   50.59    7.10
   4   1  -6   54.89    7.20
   1   4   6   54.29    5.30
   4  -1   6   45.40    6.90
  -1  -4   6   48.40    6.60
  -4   1   6   44.50    4.90
   4   2   6   38.90    7.30
  -2   4   6   36.90    7.00
  -4  -2   6   27.70    4.30
  -2  -4  -6   41.10    8.30
   2  -4   6   35.90    6.10
  -4   2  -6   33.30    7.10
   4   2   6   29.80   10.30
   4   2   6   27.60    5.30
  -4  -2   6   28.70    4.60
  -2   4   6   36.40    5.40
   2   4  -6   31.60    5.30
  -4  -2   6   24.20    6.20
   2  -4   6   36.10    4.40
   2   4  -6   30.70    5.10
  -2  -4  -6   18.80    7.40
   4  -2  -6   31.10    3.10
   4  -2  -6   29.80    3.70
   4  -2  -6   32.70    4.00
   2  -4   6   42.70    6.90
  -4   2  -6   49.80   11.10
  -2   4   6   35.80    5.60
   2   4   6   36.40    4.00
   4   2  -6   36.40    6.60
  -2  -4   6   24.40    5.30
  -2  -4   6   29.30    5.50
  -2   4  -6   33.20    8.10
  -4  -2  -6   29.70    9.10
   2  -4  -6   29.90    5.10
  -2  -4   6   33.20    5.30
   2   4   6   31.50    5.90
   2  -4  -6   30.80    5.60
  -2   4  -6   40.60    7.10
   2   4   6   27.90    8.40
   4  -2   6   20.00    5.90
  -4  -2  -6   39.40    5.10
   4   2  -6   26.30    4.40
   4  -2   6   37.00    4.70
  -4   2   6   34.00    5.90
   4  -3  -6  288.57    9.10
  -4   3  -6  298.97   14.50
   3  -4   6  297.57   10.10
  -3   4   6  300.57   13.10
  -3   4   6  304.37   13.30
  -3  -4  -6  298.57   17.60
  -4  -3   6  282.47   11.90
  -3  -4  -6  284.37   16.40
   4   3   6  276.27   17.50
   4   3   6  283.17   12.30
   3   4  -6  297.27   11.80
   4  -3  -6  270.07    8.70
  -4  -3   6  283.97   11.30
   3   4  -6  311.17   12.80
  -4   3  -6  283.07   14.10
   3  -4   6  297.37   13.70
  -4  -3   6  301.57   13.60
  -3   4  -6  297.67   13.80
   4   3  -6  277.77   12.50
   3   4   6  298.67   12.70
   4   3  -6  289.77   11.80
  -4   3   6  312.27   13.20
  -3  -4   6  312.77   13.60
   3  -4  -6  293.87   11.20
   4  -3   6  301.47   10.70
  -4  -3  -6  294.77   16.90
  -4   3   6  265.77   13.50
   3   4   6  302.67    9.30
   4  -3   6  282.77   13.60
  -3  -4   6  288.87   11.80
   3   4   6  287.67   17.40
   3  -4  -6  276.67   10.60
  -3  -4   6  278.87   12.30
   4  -4  -6   54.19    4.80
  -4  -4   6   47.70    6.70
   4   4  -6   47.40    7.30
   4  -4  -6   43.60    4.30
  -4  -4   6   53.09    7.40
   4   4   6   69.09   13.00
  -4  -4  -6   49.30    9.80
  -4  -4   6   50.89    8.10
  -4   4   6   52.69    7.60
  -4   4   6   58.69    6.90
   4   4   6   53.29    7.40
   4   4  -6   51.39    7.40
  -4  -4  -6   61.99   11.00
   4  -4   6   61.79    5.40
  -4   4   6   51.29    8.00
   4  -4   6   51.69    8.50
   4  -4   6   50.49    8.00
  -4   4  -6   63.09    8.60
   5   0   6   41.80    5.70
   0   5   6   40.10    5.60
   0   5  -6   43.30    7.60
   5   0  -6   53.79    7.70
   0  -5  -6   51.69    8.50
   0  -5   6   40.60    6.90
  -5   0   6   43.40    7.10
  -5   0  -6   48.40    6.50
   0   5   6   65.19   11.70
   0  -5  -6   48.60    8.00
   5   0   6   38.30   10.40
  -5   0   6   45.10    4.40
   0   5   6   51.89    7.10
   5   0   6   49.30    7.70
   0  -5   6   41.90    6.30
   0   5  -6   52.89    4.60
   5   0  -6   35.30    4.20
   0  -5   6   52.89    8.40
  -5  -1   6   10.40    3.50
   5   1   6    9.60    6.70
   5   1   6   10.50    4.40
  -1   5   6   18.70    7.00
   1   5  -6   -4.10    3.30
  -5   1  -6  -20.80   11.50
  -5   1  -6   11.10    5.10
   5  -1  -6   12.20    6.50
   1  -5   6   10.50    5.30
  -1   5   6    4.40    3.70
  -5  -1   6    9.80    3.60
  -1  -5  -6   19.90    7.30
   1   5  -6    8.50    4.70
  -1  -5  -6   26.30    6.70
  -5   1  -6   16.30    6.80
   5   1   6    0.20    9.70
  -1   5   6   12.70    4.60
  -5  -1   6    8.60    5.20
   1  -5  -6   15.80    5.70
   5   1  -6    3.40    3.30
  -5  -1  -6    8.50    3.90
  -5   1   6   11.20    5.40
  -1   5  -6    8.10    5.10
   1   5   6    9.30    3.50
   1   5   6    3.20    8.30
  -5  -1  -6    0.90    9.60
   5  -1   6   10.00    4.30
   5   1  -6    6.80    6.20
  -1  -5   6    5.90    4.60
  -1  -5   6   11.50    5.40
   1   5   6    9.00    4.60
  -1  -5   6   12.40    5.10
   5  -1   6    7.90    5.80
  -2  -5  -6   24.80    7.20
  -5  -2   6   34.00    6.50
   2   5  -6   42.20    5.60
   5  -2  -6   33.90    7.30
  -2   5   6   35.80    6.20
  -5  -2   6   34.50    5.50
  -5  -2   6   36.50    6.00
   5   2   6   21.40    7.60
  -5   2  -6   33.80    6.90
   5   2   6   34.20    5.80
   2  -5   6   23.10    5.50
  -5   2  -6   30.70   11.70
   2   5  -6   34.60    5.80
  -2   5   6   27.00    4.90
  -2  -5  -6   37.00    8.20
  -5   2  -6   30.90    6.70
   5   2   6   26.70   10.40
   2  -5   6   29.60    6.20
  -2   5   6   47.30    7.70
   2  -5   6   28.40    4.10
  -2   5  -6   29.70    8.40
   5  -2   6   36.90    7.20
   5   2  -6   29.50    4.70
   5  -2   6   30.20    5.00
  -2  -5   6   26.00    6.00
  -2   5  -6   39.60    6.80
  -5   2   6   30.10    6.20
  -2  -5   6   25.20    5.30
   2  -5  -6   31.40    5.40
   2   5   6   47.60    9.90
  -5  -2  -6   36.00   10.40
   2   5   6   32.90    4.90
   2   5   6   29.30    5.40
   2  -5  -6   41.70    6.20
  -3   5   6  136.69    9.70
   5   3   6  135.59    8.80
  -3   5   6  150.38   11.30
  -5  -3   6  132.19    7.90
  -5   3  -6  138.79   19.20
  -3  -5  -6  131.69   13.90
  -3  -5  -6  129.29   12.60
  -5   3  -6  115.89   12.10
  -3   5   6  133.99    8.90
   3   5  -6  133.79    9.20
   3  -5   6  143.99    6.20
  -5   3  -6  115.19   11.00
   5   3   6  151.68   18.20
   3   5  -6  124.19    8.00
  -5  -3   6  136.49   10.30
   5  -3  -6  128.49   11.40
  -5  -3   6  123.99    8.30
   3  -5   6  131.89   11.00
   3  -5   6  125.39   10.10
  -3   5  -6  147.99   12.10
   3  -5  -6  147.79    8.60
   5  -3   6  137.89   10.70
  -5   3   6  138.29    9.90
   3   5   6  137.79    9.00
   5   3  -6  134.29    9.70
  -5  -3  -6  134.89   14.00
  -3  -5   6  134.89   10.10
   3   5   6  140.59   14.80
  -3   5  -6  135.49   10.50
  -5  -3  -6  145.39   16.20
   3  -5  -6  127.29    7.60
  -3  -5   6  129.49    9.40
   5   3  -6  135.19    8.70
   5  -3   6  128.79    7.80
   3   5   6  140.39    6.10
   4   5  -6   92.59    9.10
  -5   4  -6  103.99   10.10
  -4   5   6  120.19    9.80
  -5   4  -6   84.49   10.70
  -4  -5  -6   97.49   12.90
   5   4   6   79.49   11.90
  -5  -4   6   94.39    8.10
  -5   4  -6   83.39   14.30
  -4   5   6   85.79    8.50
   4  -5   6  101.69    6.20
   5   4   6   82.19    8.20
  -5  -4   6   92.79    7.60
   4   5  -6   81.99    7.90
  -5  -4   6   97.19   10.00
  -4   5   6   88.59    9.70
   4  -5   6   69.29    9.90
   4  -5   6   94.29   10.10
  -4  -5  -6   82.79   13.20
   5   4  -6   89.19    8.60
  -4  -5   6   90.29    8.70
  -4   5  -6   98.39    9.20
   4  -5  -6   87.99    6.20
   5  -4   6   77.49    6.70
  -4   5  -6   77.79   11.10
   4  -5  -6   80.89    5.70
  -5  -4  -6   81.19   13.10
   4   5   6   86.29    8.40
  -5  -4  -6   88.89   15.00
   4   5   6  100.99   12.80
   5   4  -6   81.59    8.60
   5  -4   6   82.39    9.90
  -5   4   6   95.79    9.10
  -4  -5   6   84.59    9.70
  -5   5   6  148.59    9.30
  -5   5   6  127.79   10.00
   5   5  -6  124.09    9.40
  -5  -5  -6  118.59   14.00
  -5   5  -6  121.69   12.30
  -5  -5  -6  144.29   15.80
   5  -5  -6  126.69    5.80
   5   5   6  131.29   16.40
  -5  -5   6   99.49    9.30
   5   5   6  144.89    9.70
  -5  -5   6  130.89    9.60
   5  -5  -6  117.99    5.90
   5   5  -6  135.79   10.10
  -5  -5   6  119.79   10.40
  -5   5  -6  123.39   11.20
   5  -5   6  126.59   11.80
   5  -5   6  127.79   11.00
   5  -5   6  135.09    7.50
   0   6   6    0.40    4.00
  -6   0  -6   -4.30    4.30
   6   0  -6    2.60    6.40
   0   6   6   -4.60    7.00
   6   0   6    3.80    5.90
   6   0   6    1.20    4.00
   0  -6  -6    4.70    5.50
   0   6   6    1.50    3.60
   0  -6   6    2.10    4.20
   0  -6  -6   -4.40    6.10
  -6   0  -6   13.20   10.40
  -6   0   6    1.80    5.00
   0  -6   6    1.60    4.80
   6   0   6   -0.10    9.40
   1  -6   6    1.40    4.70
   6   1   6    0.10    4.40
  -1   6   6    9.50    7.00
   1   6  -6    2.80    4.70
  -6  -1   6    3.60    6.00
  -1   6   6   -1.30    3.90
  -6   1  -6    5.70    6.20
  -1  -6  -6    1.90    6.70
   1   6  -6    0.10    2.60
  -1   6   6   -3.00    4.20
  -1  -6  -6    7.70    6.00
   1  -6   6    3.00    4.30
  -6   1  -6   17.70   11.20
  -6   1  -6   13.10    5.20
   6  -1  -6    2.60    6.90
   6   1   6    3.50   10.30
   6   1   6   -8.40    7.10
  -6  -1   6    8.90    3.50
  -6  -1   6    2.10    3.40
  -6  -1  -6    8.60    9.80
   1   6   6    4.00    8.10
   6   1  -6    3.10    3.90
   1  -6  -6   10.70    5.60
   6   1  -6    1.90    6.30
  -1  -6   6    5.10    4.60
   6  -1   6    1.80    6.60
   1   6   6    3.90    3.20
   1  -6  -6    6.80    6.50
   6  -1   6    0.10    7.00
  -6  -1  -6   -0.20    3.60
  -1  -6   6   13.80    6.10
  -1   6  -6    0.40    5.20
  -1   6  -6    2.40    7.30
  -6   1   6    3.20    5.40
  -1  -6   6    1.00    4.90
   1   6   6    2.60    4.10
  -6   2  -6   13.40    6.00
   2  -6   6   12.10    5.90
  -2  -6  -6    8.20    6.50
  -2   6   6    7.70    4.70
   6   2   6   17.90   10.40
  -6   2  -6  -11.90   10.60
  -2   6   6   15.60    5.10
   2   6  -6    7.10    3.40
  -6  -2   6   14.30    6.50
  -2   6   6    7.70    6.90
   6  -2  -6   10.20    6.60
  -6  -2   6   13.10    4.00
  -6   2  -6   10.10    6.30
   6   2   6   22.60    5.30
  -6  -2   6   13.40    4.10
   2  -6   6   17.30    5.90
   2   6  -6    7.40    5.20
  -2  -6  -6   10.20    7.60
   2   6   6   12.60    3.60
   6  -2   6    7.50    6.10
  -2  -6   6    9.10    5.00
   2  -6  -6   13.10    5.50
  -2   6  -6   10.40    5.60
  -2  -6   6   15.30    6.30
  -2  -6   6    8.20    4.90
   6  -2   6   13.50    4.40
   2  -6  -6   15.40    5.00
   2   6   6    9.70    5.10
  -6  -2  -6    4.50   10.20
  -2   6  -6   10.10    7.50
   6   2  -6    8.60    4.80
   2   6   6   12.40    8.50
  -6   2   6    8.10    5.80
   6   2  -6    6.80    6.40
  -6  -3   6   69.49    9.80
  -3   6   6   69.29    8.90
  -3   6   6   53.89    7.70
  -3  -6  -6   78.79   12.60
  -6   3  -6   78.49    9.90
   3   6  -6   55.99    8.20
  -3   6   6   59.79    7.60
  -3  -6  -6   59.79    9.10
  -6   3  -6   54.29   12.80
   6  -3  -6   66.09    9.30
  -6   3  -6   60.49   10.20
  -6  -3   6   58.49    6.50
   6   3   6   61.49   13.00
   6   3   6   66.39    7.60
   3  -6   6   59.89    9.40
  -6  -3   6   48.20    6.90
   3  -6   6   72.79    9.10
   3   6  -6   48.90    6.00
  -3   6  -6   74.29   11.10
   3  -6  -6   69.09    7.50
  -6  -3  -6   49.90   10.30
   3   6   6   55.49   11.10
  -3   6  -6   52.89    7.50
  -3  -6   6   57.69    8.10
   3  -6  -6   55.69    6.50
   6  -3   6   67.79   10.00
   3   6   6   64.49    5.20
  -3  -6   6   57.79    7.80
  -3  -6   6   55.89    9.10
   3   6   6   60.59    7.60
   6  -3   6   61.29    6.50
   6   3  -6   58.39    8.40
  -6   3   6   60.09    8.80
  -6  -3  -6   65.59   11.40
   6   3  -6   57.69    7.70
  -6   4  -6   85.59   10.90
   6  -4  -6   96.79   10.70
   6   4   6   95.99   16.70
   6   4   6   85.09    8.50
   4   6  -6   99.29   10.60
  -4   6   6   79.09    9.40
  -6  -4   6   82.79    8.10
   4  -6   6  104.19   10.90
  -4  -6  -6   84.29   12.70
  -4   6   6   99.79    9.00
   4  -6   6   79.19    5.60
   4   6  -6   88.79    8.90
  -4  -6  -6   88.09   14.20
   4  -6   6   91.59    9.70
  -6  -4   6   92.99   10.10
  -6   4  -6  114.49   16.50
  -6  -4   6   65.69    7.80
  -6   4  -6   87.89   10.50
  -4   6   6  103.59   10.80
   4  -6  -6   78.39    7.10
  -4  -6   6   86.59    8.10
   4  -6  -6   81.19    6.60
  -6  -4  -6  104.69   14.70
  -4  -6   6   87.19   10.10
   6   4  -6   79.09    9.30
  -6  -4  -6   96.79   13.90
   6  -4   6   85.99    7.10
  -4   6  -6   72.39   11.30
   4   6   6  108.79   15.60
   6   4  -6  100.29    9.90
  -4   6  -6   87.19    9.10
   6  -4   6   82.69   10.40
  -4  -6   6   92.99    8.70
  -6   4   6   86.49    9.70
   4   6   6   79.19    8.20
  -5  -6  -6  113.49   13.70
  -6  -5   6  104.89    9.30
   5  -6   6  105.79   11.00
  -6   5  -6  118.29   20.20
   5  -6   6   98.59   11.70
   5   6  -6   93.49    8.20
  -5   6   6  103.59   10.70
  -6   5  -6  103.79   11.20
   6   5   6  100.29    8.90
  -6   5  -6  100.79   11.40
  -6  -5   6   98.19   10.60
   6   5   6  103.19   13.90
  -5   6   6  100.19    9.70
  -5  -6  -6  103.89   14.80
   6  -5  -6   91.09   11.80
  -6  -5   6  109.89    8.70
   5  -6   6  110.39    6.90
  -5   6  -6  104.19   11.90
   6   5  -6   91.49    9.30
  -5  -6   6  118.29   10.70
  -6   5   6   91.29    9.70
   5   6   6  113.59    9.60
  -5  -6   6  102.09    9.10
   6  -5   6  102.49   11.40
  -6  -5  -6  111.19   14.40
  -5   6  -6   96.69   10.70
  -6  -5  -6   99.49   15.80
   6  -5   6   78.49    7.20
   5  -6  -6  108.39    6.30
   6   5  -6  111.49   10.80
   5   6   6  102.39   17.00
  -5  -6   6   87.89    9.10
   5  -6  -6  100.99    6.80
  -6  -6  -6   78.99   13.70
  -6  -6   6   96.79    9.30
   6  -6   6   84.09   11.30
  -6   6   6   89.79   10.20
   6   6  -6   85.99   12.40
  -6   6  -6   99.39   11.50
   6  -6   6  104.79    7.70
   6   6  -6   82.39    8.40
  -6   6  -6   84.09   10.70
   6   6   6   97.29   14.10
   6  -6  -6   96.09    6.60
  -6  -6  -6   87.69   14.40
  -6   6   6   83.19    9.40
  -6  -6   6   86.39    9.60
   6  -6  -6   80.79   11.90
  -6  -6   6   84.89   10.80
   6   6   6   82.19    9.10
   0   7  -6    8.50    7.90
  -7   0   6   15.20    6.40
   7   0  -6   11.70    7.30
   0  -7   6   15.70    5.80
   7   0   6   19.10    5.40
   0  -7   6   20.10    6.00
   0  -7  -6   14.60    6.60
   7   0   6   23.70    8.30
   0   7   6   10.80    4.90
   0   7   6   23.20    8.70
   0   7   6   18.10    4.50
  -7   0  -6   18.80    5.10
  -7   0  -6   18.60   11.10
   0   7  -6    9.70    5.60
   7   1   6    7.50   10.70
   7   1   6   26.10    8.20
  -7   1  -6   20.70    7.20
   1  -7   6   14.90    5.70
  -1  -7  -6   17.40    7.70
  -7  -1   6   16.30    3.80
  -1   7   6   19.10    8.10
  -7   1  -6   -6.10   10.90
  -7   1  -6   17.30    6.30
  -7  -1   6   10.90    6.20
  -1  -7  -6   10.30    6.70
   7   1   6   22.60    5.50
  -1   7   6    9.00    5.20
   7  -1  -6   19.90    7.40
   1  -7   6   22.00    6.40
  -7  -1   6   16.70    3.90
   1   7  -6   20.90    5.60
   1   7   6   18.80    4.80
  -1  -7   6   16.60    5.80
   7   1  -6   12.70    6.90
  -7  -1  -6   14.30   10.60
   7   1  -6    8.50    4.90
  -7   1   6   21.30    6.30
  -7  -1  -6   11.70    4.30
   7  -1   6    8.70    7.10
   1  -7  -6   30.70    6.90
   7  -1   6   10.50    4.80
  -1  -7   6   21.10    6.00
  -1   7  -6   19.40    5.70
   1   7   6   14.90    5.00
  -1   7  -6   24.30    8.70
  -7   2  -6   31.30    8.40
  -2   7   6   32.30    6.50
   2   7  -6   32.90    6.30
   2  -7   6   21.70    6.90
  -7  -2   6   35.70    7.60
  -2  -7  -6   45.40    8.60
   7  -2  -6   38.80    8.60
  -7  -2   6   36.70    6.40
  -2  -7  -6   38.20    7.90
   7   2   6   46.90   12.90
  -7   2  -6   29.60   11.90
  -7  -2   6   34.30    4.90
  -7   2  -6   51.49    8.50
  -2   7   6   34.00    5.70
   7   2   6   31.50    6.10
   2  -7   6   42.00    7.20
   2   7  -6   32.50    3.60
  -2  -7   6   47.80    8.40
   2   7   6   57.39   11.30
   7  -2   6   28.60    5.50
  -2  -7   6   31.20    5.80
  -7   2   6   46.00    8.00
   2  -7  -6   39.80    6.80
   7   2  -6   50.69    7.90
   7  -2   6   37.40    7.40
   2   7   6   38.20    5.80
   2  -7  -6   44.10    6.20
   7   2  -6   30.20    6.20
   2   7   6   43.70    6.30
  -2  -7   6   31.30    5.80
  -7  -2  -6   30.00   11.20
  -2   7  -6   39.70    7.10
  -2   7  -6   44.60    8.90
  -7   3  -6   67.89   10.10
   3  -7   6   65.49    9.40
   3  -7   6   69.79    9.30
  -3  -7  -6   77.79   13.00
   3   7  -6   62.29    5.90
   7   3   6   83.29    8.80
  -3   7   6   71.29    9.50
  -3   7   6   67.79    8.50
  -7  -3   6   80.49    7.80
  -7  -3   6   65.29   10.30
   7   3   6   99.89   16.10
  -7  -3   6   58.29    7.20
  -3  -7  -6   65.79    9.50
  -7   3  -6   67.99   10.00
   7  -3  -6   76.49    9.90
   3   7  -6   71.29    9.20
  -3   7   6   63.09    8.20
  -7   3  -6   57.39   14.40
   3   7   6   82.99   12.50
  -7  -3  -6   80.79   13.00
   3  -7  -6   66.19    7.30
  -7   3   6   62.69    9.90
  -3   7  -6   72.79   12.00
  -7  -3  -6   72.09   11.80
   7   3  -6   63.39    9.60
  -3   7  -6   67.59    9.40
  -3  -7   6   74.19    8.90
   3  -7  -6   69.99    8.00
   7  -3   6   75.89    9.80
  -3  -7   6   64.69    8.10
  -3  -7   6   64.59    9.60
   7  -3   6   70.29    7.50
   3   7   6   69.69    5.60
   7   3  -6   68.99    8.40
   3   7   6   67.69    8.20
  -7   4  -6   81.39   15.40
  -4  -7  -6   47.10   10.00
  -7   4  -6   73.39    9.60
   4  -7   6   77.49   10.00
   4   7  -6   76.29   10.00
  -7  -4   6   62.39    8.00
   4  -7   6   82.19   10.70
  -4   7   6   70.09   11.80
  -4   7   6   54.69    7.90
   7   4   6   73.69    8.40
   7  -4  -6   74.69    9.90
  -7  -4   6   79.09    8.40
  -7   4  -6   64.49    9.50
  -4   7   6   83.39    8.90
  -4  -7  -6   89.79   13.30
  -7  -4   6   70.59   10.30
   7   4   6   80.19   14.00
   4   7   6   62.59    8.10
   7   4  -6   78.99   10.30
   7   4  -6   73.59   10.00
  -4  -7   6   60.79    8.70
   7  -4   6   74.09   10.80
  -4   7  -6   76.79   10.10
  -7  -4  -6   73.49   11.80
   7  -4   6   75.19    7.30
  -4   7  -6   75.69   11.70
  -7   4   6   85.39   10.20
   4   7   6   84.99   12.90
   4  -7  -6   75.89    7.70
  -4  -7   6   73.29   10.20
  -4  -7   6   81.49    8.80
  -7  -4  -6   77.69   13.00
   7  -5  -6   81.69   11.30
   5  -7   6   60.69   10.90
   7   5   6   69.79   13.60
   5   7  -6   73.89   11.10
   7   5   6   70.89    8.80
   5   7  -6   62.89    7.30
  -5  -7  -6   57.99   10.50
  -5  -7  -6   61.19   10.20
  -7   5  -6   66.39   11.40
  -5   7   6   68.59    9.10
  -7  -5   6   60.69    8.70
  -5   7   6   69.29   12.10
   5  -7   6   72.09    9.60
  -7  -5   6   52.39    8.80
  -7  -5   6   65.69    9.80
  -7   5  -6   79.29   11.50
  -7   5  -6   63.19   16.10
   5  -7  -6   77.99    6.70
  -5   7  -6   81.09   10.50
  -7   5   6   70.99    9.30
  -7  -5  -6   64.79   12.70
  -5  -7   6   51.89    8.80
   5   7   6   89.09   13.70
  -5  -7   6   67.29   10.60
   7  -5   6   57.69    8.70
   7  -5   6   75.69    7.80
   7   5  -6   71.89    9.50
  -7  -5  -6   81.29   12.70
  -5   7  -6   68.99   11.20
   7   5  -6   66.19    9.10
  -5  -7   6   58.39    9.60
   5  -7  -6   69.19    7.60
   5   7   6   65.29    8.30
  -6   7   6  112.59   10.80
  -7  -6   6  105.99   11.50
  -7   6  -6   98.29   12.60
   6  -7   6  119.29    8.30
  -6  -7  -6  125.19   16.80
  -6  -7  -6  119.39   14.80
  -7  -6   6  125.99   11.00
   6  -7   6  116.79   12.40
   6   7  -6  118.19   13.00
   7  -6  -6  109.09   12.50
   6   7  -6  131.99    9.30
   6  -7   6   98.39   12.60
  -6   7   6  124.89   11.90
   7   6   6  123.39   10.30
  -7   6  -6  120.49   12.90
   7   6   6  163.38   19.00
  -7  -6   6  116.79   10.30
  -7   6  -6  118.39   18.60
   6   7   6  106.69   18.60
  -7  -6  -6  133.09   16.30
   6   7   6  125.09   10.20
  -6  -7   6  113.89   11.90
  -6  -7   6  116.79   10.50
   7  -6   6  122.69    8.80
  -6  -7   6  106.49   10.50
   6  -7  -6  114.49   13.50
   7  -6   6  118.69   12.50
   6  -7  -6  113.19    7.70
  -6   7  -6  123.09   12.20
  -6   7  -6  112.79   12.70
  -7  -6  -6  101.49   15.40
  -7   6   6  117.29   11.00
   7   6  -6  106.09   12.70
   6  -7  -6  122.09    8.40
   7   6  -6  104.89    9.90
  -7  -7   6   59.19    8.10
   7   7  -6   51.99   10.50
  -7   7  -6   66.69   11.90
  -7   7   6   72.19   10.50
   7  -7  -6   77.19   11.10
  -7  -7  -6   61.89   11.90
  -7  -7   6   58.89    9.10
  -7  -7  -6   65.29   11.30
   7  -7  -6   57.99    6.90
   7   7   6   64.39    9.30
   7   7  -6   65.79    8.80
   7  -7   6   83.09    9.90
  -7  -7   6   72.09   10.70
  -7   7  -6   74.79   10.40
   7   7   6   39.60   12.60
   7  -7   6   64.39    9.60
  -7   7   6   68.09   12.00
   0  -8  -6   14.10    7.10
   0   8   6    4.30    9.00
   0   8   6   18.90    4.80
   0  -8   6   12.40    5.40
   0   8  -6    3.00    5.70
   0  -8   6   17.40    5.50
  -8   0   6   21.50    6.50
   8   0   6   19.50    5.70
   8   0  -6    8.60    7.20
   0   8   6    9.30    5.00
  -8   0  -6    8.80    5.10
   0  -8  -6   20.80    7.40
   0   8  -6   23.10    9.00
  -8   0  -6   17.60   12.60
   8   0   6    7.40    8.30
  -1  -8  -6   28.30    8.40
  -1   8   6   26.10    9.00
  -1  -8  -6   28.40    7.80
   8   1   6   22.20    6.10
  -8  -1   6   28.90    7.90
  -1   8   6   31.70    5.60
   1   8  -6   50.69    9.00
   1  -8   6   25.90    6.60
  -1   8   6   36.70    6.70
   8   1   6   40.00   12.60
   8   1   6   24.60    8.80
  -8   1  -6   30.90    6.50
   1   8  -6   22.80    8.80
   1  -8   6   31.00    7.00
  -8   1  -6   32.60   12.60
   8  -1  -6   30.70    8.50
  -8   1  -6   36.70    9.00
  -8  -1   6   33.90    5.70
  -8   1   6   27.40    7.30
   1   8   6   26.30    5.70
  -1  -8   6   30.90    6.70
  -1   8  -6   28.80    8.60
   1  -8  -6   34.40    7.50
   8   1  -6   35.00    6.00
  -1  -8   6   31.50    6.80
   1   8   6   26.50    9.40
  -8  -1  -6   37.90   12.50
  -8  -1  -6   28.80    5.00
  -1   8  -6   32.20    6.60
   1  -8  -6   32.00    7.10
   1   8   6   43.00    6.50
   8   1  -6   33.90    8.20
   8  -1   6   36.20    8.20
   8  -1   6   42.50    6.60
   8   2   6   19.20    6.00
   2   8  -6   21.70    6.90
  -8  -2   6   19.10    4.60
  -2   8   6   25.80    5.70
  -2  -8  -6   27.80    9.10
  -2   8   6   31.60    9.20
  -8   2  -6   14.50    6.30
  -8  -2   6   33.10    7.90
  -8  -2   6   23.80    4.70
  -8   2  -6    9.30    8.40
  -2   8   6   26.80    5.60
  -8   2  -6   29.00   13.70
   2  -8   6   28.00    6.60
  -2  -8  -6   26.90    8.50
   8  -2  -6   25.60    8.50
   8   2   6   35.50   13.70
   2  -8   6   18.50    6.60
   2   8   6   23.50    4.80
  -2   8  -6   20.30    6.70
  -8  -2  -6   10.50   11.40
   8  -2   6   30.80    8.20
   8  -2   6   30.10    6.30
   8   2  -6   16.20    7.40
  -8   2   6   12.30    6.40
  -2  -8   6   26.40    5.90
   2   8   6   23.50   10.00
  -2   8  -6   43.00    9.20
  -2  -8   6   27.50    6.00
   2   8   6   25.00    5.80
   8   2  -6   30.30    7.90
   2  -8  -6   27.80    5.80
   2  -8  -6   29.40    6.50
  -3   8   6   72.29   10.20
   3  -8   6   60.79   10.20
   8   3   6   44.70    7.30
  -8  -3   6   44.60    7.90
  -8  -3   6   66.69   10.30
  -8  -3   6   49.40    8.50
  -8   3  -6   60.39   10.00
  -3   8   6   58.19    8.20
  -8   3  -6   62.99   15.20
   8  -3  -6   59.79    9.70
  -3  -8  -6   59.39    9.60
  -3  -8  -6   57.89   10.60
   8   3   6   49.60   14.10
  -3   8   6   55.89    8.10
   3   8  -6   57.09    9.80
   3   8  -6   42.80    5.60
   3  -8   6   55.59    9.40
  -8   3  -6   61.99    9.90
  -8   3   6   56.19    8.80
   8   3  -6   51.09    8.60
   3   8   6   64.99   12.30
   8  -3   6   51.59    7.00
  -3  -8   6   54.89    8.80
   3  -8  -6   53.99    7.10
  -8  -3  -6   50.19   13.50
   3   8   6   63.59    6.40
  -8  -3  -6   43.90   12.30
   3   8   6   62.79    8.30
  -3   8  -6   42.40    7.30
   8  -3   6   52.99    8.90
   8   3  -6   62.59    8.90
  -3  -8   6   65.19    9.70
  -3  -8   6   59.29    8.60
  -3   8  -6   69.39   10.80
   4  -8   6   52.09    8.60
  -4  -8  -6   77.79   11.30
  -4   8   6   61.19   10.80
   4   8  -6   44.40    5.90
   8   4   6   76.99    9.20
  -4   8   6   59.19    8.70
  -8   4  -6   49.00   14.90
  -8   4  -6   53.99    9.60
   8  -4  -6   50.69    9.90
   8   4   6   58.09   13.50
  -8  -4   6   57.69    8.80
  -8  -4   6   57.59    8.90
   4   8  -6   57.29   10.50
  -8   4  -6   61.39    9.10
  -8  -4   6   44.70    8.50
   4  -8   6   55.39    8.10
  -4  -8  -6   53.39   10.90
  -4   8   6   50.19    8.00
   8  -4   6   57.79    7.90
  -4  -8   6   68.09   11.10
  -8   4   6   47.50    8.10
  -4   8  -6   59.99    9.60
   4  -8  -6   48.60    7.90
  -4  -8   6   41.90    7.00
   4   8   6   66.49   12.00
   8  -4   6   62.09    9.50
  -8  -4  -6   48.90   11.90
   4   8   6   40.20    6.60
   8   4  -6   64.09    8.60
  -8  -4  -6   65.49   12.50
  -4   8  -6   68.99    9.90
  -4  -8   6   63.69    9.00
   4  -8  -6   61.29    7.50
  -8   5  -6   67.69   12.30
  -5   8   6   81.39   10.50
  -5  -8  -6   48.90    9.60
   5  -8   6   83.19   11.50
   5   8  -6   81.19   11.60
   8   5   6   71.09    9.80
  -5   8   6   80.49   10.10
  -8  -5   6   79.09   10.20
   5  -8   6   78.19   11.60
  -8  -5   6   74.39   11.50
  -8   5  -6   66.89   11.10
  -8   5  -6   82.19   17.30
   5   8  -6   68.99    7.30
  -5  -8  -6   87.79   14.00
   8  -5  -6  103.39   11.70
   8   5   6   69.39   14.80
  -5   8  -6   76.79   12.30
  -8   5   6   77.59   10.80
  -8  -5  -6   51.19   12.20
   5  -8  -6   79.79    7.80
   5   8   6   76.19    9.30
  -5   8  -6   64.89   10.80
  -5  -8   6   79.29   10.00
   8   5  -6   80.29   13.70
   8  -5   6   74.79    8.70
  -5  -8   6   81.49    9.90
  -8  -5  -6  116.69   16.20
   8   5  -6   71.99   10.10
   5  -8  -6   77.89    8.50
  -5  -8   6   75.29   11.20
   5   8   6   66.99   12.20
   8  -5   6   82.79   12.00
  -8   6  -6   79.79   12.90
   8  -6  -6   77.29   11.10
  -8   6  -6   74.89   17.60
   8   6   6   66.49    9.50
   8   6   6   80.59   14.00
  -6   8   6   74.49   10.40
   6   8  -6   92.49   13.70
  -6  -8  -6   63.09   10.80
  -6   8   6   81.19   10.30
  -6  -8  -6   85.69   15.60
  -8  -6   6   83.39   10.30
   6   8  -6   83.09    9.00
  -8  -6   6   74.89   11.30
  -8   6  -6   79.99   12.10
   6  -8   6   94.49   13.00
   6  -8   6   83.39   12.10
  -8  -6   6   81.69   10.50
  -6   8  -6   82.79   11.90
   8  -6   6   81.49   12.30
  -6  -8   6   87.39   11.70
  -6  -8   6   83.09   10.20
  -6  -8   6   81.89   10.40
  -8  -6  -6   65.69   12.10
   6  -8  -6   90.79    9.10
   6   8   6   87.59   10.00
   8   6  -6   78.59   11.80
   6  -8  -6   85.99   11.10
   6   8   6   79.09   14.30
  -8  -6  -6   73.89   13.10
  -8   6   6   82.79   11.10
   6  -8  -6   84.39    9.70
   8   6  -6   57.29    8.30
  -6   8  -6   73.69   12.10
  -8  -7   6   65.59   11.00
   8  -7  -6   63.99   11.00
  -8  -7   6   63.19    9.00
  -8  -7   6   48.40    9.70
  -8   7  -6   68.69   18.60
   7   8  -6   33.40   10.50
   8   7   6   62.19   14.10
  -7  -8  -6   50.09   12.30
  -8   7  -6   59.39    9.20
   8   7   6   35.10    7.20
  -7   8   6   53.79    8.60
  -7  -8  -6   45.90   11.20
   7  -8   6   64.99   11.20
  -7   8   6   69.79   11.70
   7   8  -6   49.80    7.70
  -8   7  -6   53.19    9.70
   7  -8   6   76.09   12.20
   7  -8  -6   63.99   10.90
  -7   8  -6   45.20    8.40
   8   7  -6   57.89   11.10
  -7  -8   6   57.99    8.70
  -8  -7  -6   39.70   10.90
  -7   8  -6   50.49   10.20
  -8  -7  -6   24.80   12.10
   7   8   6   58.99   15.20
   8   7  -6   50.29    8.50
   8  -7   6   56.99    7.70
  -8   7   6   44.30    8.80
  -7  -8   6   58.79    8.90
   8  -7   6   77.59   11.00
  -7  -8   6   56.59   10.20
   7   8   6   52.39    8.00
  -8   8  -6   34.60    9.10
   8   8   6   25.30   14.40
   8  -8   6   39.40    9.30
  -8   8  -6   41.00    9.00
  -8  -8   6   49.10   10.10
   8   8  -6   49.99    8.20
  -8  -8   6   37.30    8.80
   8   8  -6   33.60   11.10
  -8   8   6   57.69    9.10
   8  -8   6   39.50   10.00
   8  -8  -6   29.00    9.80
   8   8   6   31.30    8.10
  -8  -8  -6   48.80   12.20
  -8  -8   6   41.60    8.40
  -9   0   6  122.19   12.10
   0   9  -6  158.68   11.80
   0  -9  -6  133.99   12.30
   0   9   6  106.39    9.60
   0   9   6  134.29   16.30
   0  -9   6  112.69   10.30
   9   0   6  136.79   15.40
   9   0   6  144.69   10.50
   0  -9   6  128.69   10.90
   0  -9  -6  141.19   12.40
   9   0  -6  128.79   12.50
   0   9   6  132.09    9.30
  -9   0  -6  133.39   19.70
  -9   0  -6  136.89    9.70
   0   9  -6  141.69   14.90
  -1  -9  -6   29.70    8.60
  -1   9   6   24.70    6.40
  -9  -1   6   30.80    4.50
   9   1   6    2.40   13.00
   1   9  -6   21.60    8.90
  -1  -9  -6   25.20    7.90
  -9   1  -6    6.60   12.40
  -1   9   6   22.40    9.70
   9  -1  -6   37.30    9.20
   9   1   6   26.80    6.50
   1  -9   6   31.30    7.40
  -1   9   6   28.40    6.10
  -9  -1   6   26.10    8.40
  -9   1  -6   29.50    9.20
  -9   1  -6   24.60    6.90
  -9  -1   6   22.30    7.20
   1  -9   6   29.30    7.50
   1   9  -6   25.40    6.60
   9   1  -6   28.90    8.50
  -9   1   6   37.10    8.70
  -9  -1  -6   19.10   13.40
   1   9   6   24.40   10.10
  -1   9  -6   28.70    8.60
   9   1  -6   31.10    6.60
   1   9   6   22.60    6.20
   1  -9  -6   29.10    7.10
   9  -1   6   30.70    9.50
  -1  -9   6   33.40    6.90
  -9  -1  -6   32.20    5.80
   1   9   6   22.20    5.40
   9  -1   6   24.40    6.50
  -1  -9   6   31.20    6.90
  -1   9  -6   23.60    6.90
   1  -9  -6   28.40    7.20
  -9  -2   6   20.90    7.90
   2   9  -6   15.60    6.60
   2  -9   6   20.50    6.60
   2  -9   6   10.00    5.50
  -9   2  -6   24.60    7.30
   9  -2  -6   18.60    9.00
  -9  -2   6   20.20    5.30
   2   9  -6   19.40    9.80
  -2   9   6   12.50    5.40
  -9   2  -6   16.50   13.70
  -2   9   6   16.60    9.70
   9   2   6    9.90   13.20
  -9  -2   6   18.90    5.70
  -9   2  -6    4.80    8.80
  -2  -9  -6   21.00    8.50
  -2   9   6   13.50    5.50
  -2  -9  -6   17.60    8.90
   9   2   6   18.40    6.20
   9   2  -6   28.60    8.20
  -2   9  -6   13.40    8.40
   9   2  -6   11.90    7.70
  -9   2   6   19.70    7.50
   2  -9  -6   15.90    6.30
  -9  -2  -6   23.80   12.90
  -2  -9   6   26.00    6.80
  -2  -9   6   19.10    6.40
  -9  -2  -6   14.10   11.40
   2   9   6   11.30    5.40
   2   9   6   19.50   10.10
   2  -9  -6   16.10    6.10
   2   9   6   16.80    5.10
  -2   9  -6   16.00    7.00
   9  -2   6   15.80    7.90
   9  -2   6   22.50    6.20
  -9  -3   6   93.49   12.00
  -9  -3   6   69.39   10.80
  -9   3  -6   90.19   11.30
   9   3   6   97.89   16.80
  -9  -3   6   85.89    9.10
  -9   3  -6   93.39   13.70
  -3  -9  -6   98.39   14.20
   9  -3  -6   92.29   13.00
   3   9  -6   75.49   11.10
   3  -9   6   78.59   10.50
  -3  -9  -6  114.59   13.70
   3  -9   6   78.49   10.70
   9   3   6  102.99   10.20
  -3   9   6   74.79    9.20
  -3   9   6   76.89    9.70
  -9   3  -6   67.89   16.10
  -3   9   6   99.99   15.70
  -9  -3  -6   70.39   13.10
  -3   9  -6   95.09   12.70
  -3  -9   6   88.59   10.20
   9   3  -6   87.29   11.60
   3   9   6   83.59    7.60
   3   9   6   82.19    9.50
  -9  -3  -6   77.59   13.40
  -9   3   6   82.89   11.60
   3  -9  -6   98.89    9.70
  -3  -9   6   84.29    9.70
   9  -3   6   79.39   12.80
  -3   9  -6   80.49   10.50
   9   3  -6   96.39   13.50
   9  -3   6   78.69    9.30
   3  -9  -6   79.89    9.80
   3   9   6   79.99   13.00
   4  -9   6   66.29   10.80
  -4   9   6   66.69    9.40
   9   4   6   58.39   14.90
  -9  -4   6   83.69    9.90
  -4  -9  -6   68.69   11.30
   9   4   6   71.39    9.90
  -9  -4   6   53.09    9.60
   4   9  -6   60.39    7.30
  -4  -9  -6   72.69   11.20
  -9  -4   6   62.69    9.30
   4   9  -6   80.39   11.60
  -9   4  -6   70.99   16.30
  -9   4  -6   66.49    9.80
  -4   9   6   71.79   12.00
  -4   9   6   68.99   10.30
  -9   4  -6   53.29   10.50
   9  -4  -6   97.69   13.60
   4  -9   6   64.09   10.50
   9  -4   6   62.29    8.10
  -4  -9   6   74.09   10.00
   4   9   6   58.19    8.80
  -4  -9   6   68.59    9.70
   4   9   6   64.99   13.00
  -4   9  -6   60.09   10.40
   9  -4   6   89.29   12.50
   4  -9  -6   70.39    8.50
  -9   4   6   56.79    9.10
   4   9   6   66.79    7.30
  -4   9  -6   61.29   10.40
  -9  -4  -6   69.39   13.40
   9   4  -6   68.59   11.90
  -9  -4  -6   64.09   13.30
  -4  -9   6   77.49   12.30
   4  -9  -6   65.29    8.80
   9   4  -6   63.19    9.00
  -5   9   6   77.99   11.70
   9   5   6   60.49   15.40
   9   5   6   59.79    8.60
  -5   9   6   70.59   10.00
  -9  -5   6   55.59   10.20
  -9  -5   6   64.39   11.00
   5   9  -6   70.29   10.10
   9  -5  -6   69.49   11.10
  -5  -9  -6   62.29   11.70
  -9   5  -6   65.19   10.10
   5  -9   6   49.00    8.40
  -9  -5   6   58.29    8.50
  -9   5  -6   55.29   17.50
  -9   5  -6   54.39    9.80
   5   9  -6   60.39    8.00
   5  -9   6   76.19   12.30
  -5  -9  -6   57.19   10.30
  -5  -9   6   60.49   10.30
   9   5  -6   67.59    9.50
  -5   9  -6   66.29   10.90
  -9  -5  -6   52.59   12.20
   9  -5   6   64.39    8.40
   5   9   6   67.29    9.20
   9  -5   6   68.29   10.40
   5  -9  -6   64.59   13.00
  -9   5   6   52.69    9.10
  -5  -9   6   59.79    9.80
  -5   9  -6   62.09   10.70
  -9  -5  -6   50.89   13.00
   9   5  -6   60.89   11.60
  -5  -9   6   70.49   10.30
   5   9   6   70.99   12.80
   9   6   6   50.39   14.70
  -9   6  -6   51.99   10.00
   6   9  -6   58.49    8.80
  -6   9   6   49.90    8.80
  -9  -6   6   56.49   10.20
  -9   6  -6   78.29   13.50
  -9   6  -6   30.60   17.30
  -9  -6   6   62.19    9.30
  -6  -9  -6   37.70   10.20
   9   6   6   45.90    8.30
   6  -9   6   36.90    9.00
   6  -9   6   51.69    9.20
  -9  -6   6   53.69    8.70
   9  -6  -6   53.99   10.60
  -6  -9  -6   50.09   11.60
   6   9  -6   48.20    9.90
  -9   6   6   37.90    8.60
  -6  -9   6   46.20    8.40
  -6   9  -6   90.99   11.60
  -9  -6  -6   46.10   13.30
   9  -6   6   64.39    8.50
   9   6  -6   34.10    8.00
   6  -9  -6   58.29    9.10
  -6   9  -6   50.89    9.30
   9  -6   6   35.70    9.10
  -9  -6  -6   49.80   12.70
   9   6  -6   48.40   11.80
   6   9   6   43.70    7.50
  -6  -9   6   56.89   10.20
   6   9   6   33.60   12.50
  -6  -9   6   45.70    8.20
   6  -9  -6   61.39   10.60
   6  -9  -6   56.29    9.90
   9   7   6   53.19   16.10
   9   7   6   34.30    7.90
  -9   7  -6   50.89    9.80
   7  -9   6   60.19   10.70
  -9  -7   6   57.49    9.60
  -9  -7   6   41.80    8.80
   7  -9   6   27.90    9.50
  -9   7  -6   28.40    9.00
  -7   9   6   38.20    8.10
  -7  -9  -6   27.20   10.60
   9  -7  -6   36.50   10.30
   7   9  -6   30.30   10.80
  -9  -7   6   33.10    9.60
  -9   7  -6   45.00   19.10
   7   9  -6   49.40    7.70
  -9  -7  -6   46.00   12.60
   9  -7   6   41.20    9.20
  -7   9  -6   41.80   10.20
  -7  -9   6   48.30   10.30
   7   9   6   39.50    7.80
   9   7  -6   60.39   12.60
  -9   7   6   27.70    8.60
   7  -9  -6   65.49   11.10
   7   9   6   56.59   18.80
  -7  -9   6   40.60    8.40
   9   7  -6   32.90    7.90
  -7  -9   6   49.99    8.90
  -7   9  -6   41.90    8.90
   7  -9  -6   43.60   10.70
   8  -9   6   34.00   10.60
  -9   8  -6   -6.10   32.20
  -9  -8   6   30.40    8.60
   8   9  -6   11.50   11.50
  -9  -8   6   24.40   10.10
   8   9  -6   22.10    7.20
  -8   9   6   18.50    8.10
  -9   8  -6    5.90    8.70
  -9   8  -6   22.00    9.30
  -8  -9  -6   27.90   10.60
   9  -8  -6   46.30   11.40
   9   8   6   36.60    8.30
  -9  -8   6   26.10    8.80
  -9  -8  -6   26.30   11.80
   9   8  -6   23.50    7.60
   9  -8   6   30.80    9.30
  -8  -9   6   31.70    8.80
  -9   8   6   14.80    8.20
   8  -9  -6   36.40   11.00
  -8  -9   6   22.20    8.70
   8   9   6   26.70    7.90
  -8   9  -6   30.90   15.30
   9   8  -6   34.70   12.80
  -8  -9   6   15.30    9.10
   9   9  -6   13.40    7.80
  -9  -9  -6   20.80   10.70
  -9  -9   6   21.70    9.10
  -9  -9   6   29.10    9.40
  -9   9   6   28.50    8.80
   9  -9  -6   26.70   10.70
  -9  -9   6   13.30   10.20
  -9   9  -6   15.60    8.80
   9   9  -6   -2.30   12.80
   9  -9   6    7.60    9.30
   9   9   6   11.40    7.60
  10   0  -6   22.80    9.20
   0 -10   6   12.70    7.00
  10   0   6   25.30   10.70
   0  10  -6   17.80    9.00
   0 -10   6    9.00    6.30
 -10   0   6   24.90    8.10
 -10   0  -6   16.10    6.80
   0 -10  -6   13.10    7.60
   0  10   6   12.60    5.70
   0 -10  -6   12.30    7.30
   0  10   6    8.10    5.30
   0  10   6   12.80   10.40
   0  10  -6   16.60    6.60
  10   0   6   16.40    6.70
 -10   0  -6  -12.10   13.10
  -1 -10  -6   18.90    8.10
  -1  10   6   23.00   10.80
 -10   1  -6    7.70   13.70
  -1  10   6   21.40    5.90
 -10  -1   6   27.90    4.90
   1  10  -6   10.00    6.80
 -10   1  -6   10.60    9.90
  -1  10   6   18.80    6.10
  10  -1  -6   30.20    9.50
 -10   1  -6   32.70    8.60
   1 -10   6   20.40    7.30
  10   1   6   14.70   14.20
  10   1   6   20.70    6.90
   1 -10   6   10.00    6.40
   1  10  -6   14.30    9.60
  -1 -10  -6    0.50    7.60
 -10  -1   6   23.90    8.90
  -1  10  -6   12.70    8.30
   1  10   6   20.10    5.80
   1 -10  -6   41.80    7.90
   1 -10  -6   22.20    7.20
 -10  -1  -6   32.50    7.00
  -1  10  -6   17.90    7.20
  10   1  -6   22.30    8.80
  10   1  -6   16.30    7.30
  10  -1   6   12.80    9.50
  10  -1   6   12.20    6.80
 -10  -1  -6   28.60   13.90
 -10   1   6   14.10    8.20
   1  10   6    6.90   10.60
   1  10   6   23.20    6.60
  -1 -10   6   26.80    6.90
  -1 -10   6   18.50    6.50
  -2  10   6   54.79    7.70
  10   2   6   42.40    8.00
 -10   2  -6   38.20    8.40
   2  10  -6   58.09   12.60
  -2 -10  -6   44.10    9.60
 -10   2  -6   56.79   16.20
   2 -10   6   42.80    7.60
   2  10  -6   37.40    7.80
  -2  10   6   40.30    7.10
  10   2   6   53.89   15.80
   2 -10   6   35.50    7.90
  -2  10   6   57.79   12.40
 -10  -2   6   51.29    9.80
 -10   2  -6   25.80   10.40
  -2 -10  -6   53.59   10.10
 -10  -2   6   52.29    8.90
  10  -2  -6   46.00   10.30
   2  10   6   41.50    6.80
   2  10   6   67.39   13.70
  -2  10  -6   50.59    8.60
  10  -2   6   37.50    9.00
  -2  10  -6   35.10    9.00
   2  10   6   59.39    8.40
  10   2  -6   46.10    9.90
  10  -2   6   32.50    7.40
   2 -10  -6   60.59    8.50
 -10   2   6   36.80    8.80
  10   2  -6   45.20    9.70
  -2 -10   6   49.80    8.40
 -10  -2  -6   42.70   13.40
   2 -10  -6   42.40    7.80
  -2 -10   6   42.30    8.10
 -10  -2  -6   25.50   14.30
 -10  -3   6   39.20    7.20
  10   3   6   55.99   16.60
  -3  10   6   66.19    9.30
 -10  -3   6   35.30    8.80
  10   3   6   39.70    8.00
   3  10  -6   36.40    7.70
   3 -10   6   31.40    7.10
 -10   3  -6   45.00   16.20
  -3 -10  -6   69.19   10.50
  -3  10   6   39.60    7.50
  10  -3  -6   45.70   10.20
  -3 -10  -6   48.80   11.40
  -3  10   6   65.49   12.30
   3 -10   6   35.10    8.30
   3  10  -6   41.00   11.10
 -10   3  -6   44.10    9.80
 -10   3  -6   58.89    9.60
   3 -10  -6   58.89    8.20
  -3  10  -6   54.29    9.80
   3  10   6   55.49   13.80
  -3 -10   6   55.49   10.10
 -10   3   6   33.50    9.00
   3  10   6   60.89    8.60
 -10  -3  -6   28.00   13.50
  10  -3   6   78.79   13.30
  10   3  -6   53.39    9.40
   3  10   6   50.79    8.00
   3 -10  -6   52.79    8.00
 -10  -3  -6   31.20   15.20
  -3 -10   6   48.40    7.90
  10  -3   6   50.59    7.90
  10   3  -6   39.00   10.80
  -3  10  -6   39.70    7.70
 -10   4  -6  106.39   12.50
 -10   4  -6   87.69   14.70
   4  10  -6   80.29   12.90
  10   4   6   72.59   10.10
  10  -4  -6   88.19   13.20
   4 -10   6   87.29   12.80
  -4  10   6   75.89   10.90
 -10   4  -6   64.69   18.40
  -4 -10  -6  103.89   14.40
  -4  10   6   89.49   12.80
  -4  10   6   72.09   10.20
 -10  -4   6   83.79   11.30
  -4 -10  -6   87.19   12.70
  10   4   6  100.09   17.30
   4 -10   6   87.29   11.30
 -10  -4   6  105.49   13.50
 -10  -4  -6   78.49   15.80
  10   4  -6   89.49   11.80
 -10   4   6   72.69   11.60
  -4  10  -6  100.59   11.50
   4 -10  -6   74.49    9.40
   4  10   6   98.09   10.40
  -4 -10   6   72.39   10.20
 -10  -4  -6  109.29   17.40
   4 -10  -6   90.39   10.90
  10   4  -6  100.69   16.80
  -4  10  -6   63.29   10.10
  10  -4   6   78.39   10.70
  -4 -10   6   66.39   10.90
  10  -4   6   82.99   13.30
   4  10   6   88.79   16.00
 -10  -5   6   55.19   10.50
  10  -5  -6   67.59   11.80
 -10  -5   6   73.99   12.00
   5  10  -6   63.79   10.90
  -5 -10  -6   88.89   12.20
 -10  -5   6   73.69   12.50
 -10   5  -6   51.89   10.20
  -5  10   6   83.49   10.50
  -5 -10  -6  113.79   18.30
   5  10  -6   62.29    9.10
  10   5   6   91.29   10.80
   5 -10   6   70.59   10.70
   5 -10   6   75.29   11.90
 -10   5  -6   68.09   10.60
  10   5   6   58.19   15.90
 -10   5  -6   81.19   19.10
  10   5  -6   65.99   19.00
  10  -5   6   82.79   11.10
  -5  10  -6   61.19    9.80
 -10  -5  -6   53.09   14.40
   5 -10  -6   85.19    9.70
 -10   5   6   69.49   10.90
   5  10   6   64.79    9.90
   5  10   6   61.19   15.00
 -10  -5  -6   55.99   12.70
  10   5  -6   74.79   10.30
  -5  10  -6   69.99   11.70
  10  -5   6   78.89   11.60
  -5 -10   6   80.49   10.40
   5 -10  -6   80.09   10.90
  -5 -10   6   64.69   11.20
 -10   6  -6  101.49   15.40
  -6 -10  -6   53.29   17.80
 -10  -6   6   84.19   13.30
   6  10  -6   99.69   12.50
 -10   6  -6   92.99   20.30
   6 -10   6  108.09   13.10
  10  -6  -6  113.99   14.90
  -6  10   6   99.19   17.90
  -6  10   6  119.19   12.20
   6  10  -6   90.99   12.50
 -10   6  -6  134.29   14.10
  10   6   6   75.89   10.90
 -10  -6   6  116.99   13.80
 -10  -6   6  110.69   13.40
 -10   6   6   91.29   14.70
   6 -10  -6  105.89   14.80
  10   6  -6  100.79   11.50
  10   6  -6  138.29   19.70
  -6 -10   6   94.79   14.70
   6 -10  -6  109.79   11.00
  10  -6   6  110.89   14.50
  -6  10  -6  119.59   12.90
  -6 -10   6  104.89   12.60
  -6 -10   6  101.59   11.70
  10  -6   6  108.09   12.20
   6  10   6  101.69   11.30
   7  10  -6   79.19   11.00
 -10   7  -6   49.50   30.70
  -7  10   6   89.69   12.10
 -10  -7   6   96.89   14.10
  10  -7  -6   85.09   14.70
  10   7   6   62.69    9.60
   7  10  -6   70.69   12.80
 -10   7  -6   64.99   11.90
   7 -10   6   90.69   16.40
 -10  -7   6   74.19   11.80
 -10  -7   6  110.59   14.20
  -7 -10  -6   74.19   13.00
 -10   7  -6   87.39   14.00
 -10   7   6   78.09   12.00
  -7 -10   6   76.09   12.20
  -7 -10   6   83.69   12.80
  10   7  -6   79.69   15.10
  10   7  -6   67.99    9.60
  10  -7   6   88.99   12.90
  -7 -10   6   96.49   14.00
   7  10   6   69.99   10.80
   7 -10  -6  101.69   14.90
  10  -7   6   91.49   15.30
  -7  10  -6   98.09   14.10
 -10  -7  -6   78.79   14.20
   7 -10  -6   86.69   14.70
  -8 -10  -6   29.00   10.70
   8 -10   6   55.19   11.10
 -10  -8   6   50.99   11.20
   8  10  -6   32.50    8.60
 -10  -8   6   57.19   11.30
  10   8   6   43.60    8.30
 -10  -8   6   41.90   10.60
   8  10  -6   37.50   13.40
 -10   8  -6   37.20   11.00
  -8  10   6   38.30    9.10
  10  -8  -6   51.09   11.50
  10   8  -6   18.60   15.00
 -10   8   6   60.69   10.10
  -8 -10   6   46.40   18.10
  -8 -10   6   52.19    9.70
   8  10   6   48.90    8.70
  10   8  -6   49.80    9.60
  -8  10  -6   53.19    9.70
  10  -8   6   48.30   11.10
 -10  -8  -6   39.80   11.20
  10  -9  -6   41.50   11.80
  -9 -10  -6   59.09   12.80
 -10  -9   6   51.19   14.30
   9 -10   6   54.49   11.70
 -10   9  -6   32.90   10.00
  -9  10   6   36.80    8.40
  10   9   6   54.59    9.40
 -10  -9   6   44.70   12.50
 -10  -9   6   49.10   11.40
   9  10  -6   33.80    9.40
  -9 -10   6   43.20   13.00
   9 -10  -6   63.69   13.00
   9  10   6   37.80    8.50
  10   9  -6   80.79   12.30
 -10   9   6   54.39    9.80
  10   9  -6    2.20   16.00
  -9 -10   6   60.39   13.40
  -9  10  -6   47.60    9.40
  10  -9   6   28.30   10.30
 -10  -9  -6   52.49   11.30
  10 -10   6   52.19   11.30
 -10  10  -6   98.09   15.10
 -10 -10   6  138.89   17.30
 -10  10   6   98.29   13.40
 -10 -10  -6   65.09   13.10
  10 -10  -6   89.59   13.90
  10  10  -6   89.09   11.70
 -10 -10   6   80.39   14.80
  10  10   6   98.99   12.50
   0  11  -6   13.00    9.30
  11   0   6   13.70    7.00
   0  11   6    5.30    5.60
   0 -11   6    3.50    7.10
   0  11  -6    6.20    6.50
   0 -11  -6    1.40    7.10
 -11   0  -6   10.10    8.10
   0 -11   6    3.10    6.00
 -11   0  -6    4.30   15.30
 -11   0   6   -5.00    7.80
   0  11   6    5.10    5.70
 -11   0  -6    2.00   10.70
   0  11   6   -9.90   10.90
  11   0  -6   18.50    9.20
   0 -11  -6    3.50    7.10
  -1  11   6   12.20    6.10
 -11  -1   6   -3.50    7.80
   1  11  -6    5.90    8.80
 -11   1  -6    1.60   15.30
  -1 -11  -6   -3.50    7.80
 -11   1  -6    3.50    7.50
   1 -11   6   -3.60    5.90
  -1  11   6   -1.70    5.10
 -11   1  -6   -0.90    9.50
   1 -11   6   -0.80    7.90
   1  11  -6   -0.20    6.50
  -1  11   6    4.10   10.90
 -11  -1   6    3.50    4.90
  -1 -11  -6  -10.30    7.40
  11   1   6   11.30    7.00
  11  -1  -6    7.60    9.40
  11   1   6   11.60   14.30
  -1  11  -6   -3.80    8.20
   1  11   6   -2.20   10.80
 -11  -1  -6  -16.30   14.00
 -11   1   6   -4.00    7.60
  11  -1   6    3.10   10.30
  11   1  -6   14.00    9.10
   1 -11  -6   -2.50    6.70
  -1  11  -6    0.10    5.90
   1 -11  -6    3.00    6.80
   1  11   6    0.70    5.60
 -11  -1  -6    2.20   12.90
  -1 -11   6    3.10    6.60
   1  11   6    0.60    5.20
  -1 -11   6    4.30    6.10
  11  -1   6  -10.10    6.70
   2  11  -6    5.20   10.00
 -11   2  -6   28.50    9.00
  -2  11   6   33.70    7.40
   2 -11   6   27.60    7.50
 -11   2  -6    9.90    9.90
 -11   2  -6   11.00   16.70
  -2  11   6   34.50   11.70
  -2 -11  -6    9.70    8.50
  -2  11   6   20.20    6.70
 -11  -2   6   16.50    8.60
 -11  -2   6   13.30    6.80
  11  -2  -6   31.70   10.10
   2  11  -6   23.90    8.20
  11   2   6   14.50   16.40
  -2 -11  -6   19.60    9.70
  11   2   6   19.30    7.20
   2  11   6   11.10   12.10
   2 -11  -6   18.50    7.50
 -11  -2  -6   18.70   13.00
   2  11   6   18.60    6.60
 -11   2   6   19.30    9.00
  11   2  -6   18.80    9.20
  -2  11  -6   25.20    9.60
  11   2  -6   30.60   10.80
  -2 -11   6   20.60    7.40
  -2  11  -6    5.70    6.60
  11  -2   6   13.20   11.00
 -11  -2  -6   25.80   15.60
  -2 -11   6   24.90    8.10
   2 -11  -6   18.30    7.10
   2  11   6   27.60    6.90
  11  -2   6   30.00    7.90
  -3 -11  -6   69.29   10.80
  11  -3  -6   68.49   11.30
  11   3   6   72.49   10.60
 -11   3  -6   64.79   11.70
 -11  -3   6  109.09   13.60
   3  11  -6   70.89   10.40
 -11   3  -6   85.39   19.20
 -11   3  -6   75.89   12.50
  11   3   6   23.10   17.50
  -3  11   6   73.89   10.20
  -3  11   6   94.49   13.90
  -3 -11  -6   74.19   11.30
   3 -11   6   73.29   11.10
 -11  -3   6   51.09    8.30
   3  11  -6   58.59   12.50
 -11  -3   6   54.19   10.50
  -3  11   6   51.69    8.80
  -3  11  -6   50.39    9.30
 -11   3   6   52.89   10.30
  -3 -11   6   43.00   11.30
  11   3  -6   33.50   12.00
   3 -11  -6   65.19   10.40
  11   3  -6   68.49   10.20
   3  11   6   65.49    9.80
 -11  -3  -6   57.59   15.60
   3 -11  -6   73.39   10.70
 -11  -3  -6  151.78   24.50
  -3  11  -6   55.79   11.40
  11  -3   6   65.79    9.50
  -3 -11   6   58.29    8.50
   3  11   6   57.99    8.20
   3  11   6   84.09   15.50
  11  -3   6   56.79   11.30
  11   4   6   96.79   12.80
  -4 -11  -6   82.89   12.70
  11  -4  -6   69.89   17.20
   4  11  -6   54.49   10.10
 -11  -4   6   64.39   11.20
 -11   4  -6   77.99   19.30
 -11   4  -6  100.79   16.40
   4  11  -6   79.09   14.60
  11   4   6   83.59   18.50
  -4  11   6   80.89   13.70
 -11  -4   6   61.49    9.80
  -4  11   6   77.99   11.50
  -4  11   6   89.99   10.60
 -11   4  -6   74.99   11.40
  11  -4   6   86.09   12.10
  11   4  -6   59.59   10.10
  -4  11  -6   69.79   11.10
   4  11   6   74.99    9.40
  -4 -11   6   85.59   11.30
   4  11   6   97.79   21.30
   4 -11  -6   83.39   12.20
 -11   4   6   56.99   17.00
 -11  -4  -6   73.99   14.80
  11   4  -6   64.49   14.00
   4 -11  -6   90.79   10.60
  11  -4   6   89.59   14.80
   5 -11   6  119.89   13.40
  -5  11   6  100.29   12.20
 -11  -5   6  110.29   14.10
 -11   5  -6   85.89   21.50
 -11  -5   6  113.09   14.90
  11   5   6   92.59   11.70
   5  11  -6   78.29   14.00
  11  -5  -6  111.79   15.50
 -11   5  -6   89.59   14.20
  -5 -11  -6  117.29   14.90
  -5  11   6  111.39   15.10
 -11  -5   6  122.49   15.30
 -11   5  -6  114.99   16.40
  11  -5   6  100.89   13.30
   5 -11  -6  127.99   11.70
  -5 -11   6   91.49   14.30
  -5  11  -6  118.59   13.70
 -11   5   6   91.39   13.40
  11   5  -6  110.79   12.70
  11  -5   6  107.89   15.40
 -11  -5  -6   83.09   15.60
   5 -11  -6  112.49   12.80
  11   5  -6   78.29   15.60
   5  11   6  127.19   12.10
  11  -6  -6  157.28   16.40
 -11  -6   6  135.59   15.50
 -11   6  -6  102.99   14.00
  -6  11   6  135.39   12.90
 -11  -6   6  166.38   16.00
   6 -11   6  150.78   15.10
 -11   6  -6  186.78   26.40
  11   6   6  127.09   12.90
  -6 -11  -6  132.79   16.90
 -11  -6   6  131.09   15.80
  11   6  -6  179.58   24.80
  11  -6   6  163.68   14.60
 -11  -6  -6  143.79   19.10
  -6 -11   6  129.89   13.10
   6  11   6  127.39   12.10
  11   6  -6  126.79   12.90
   6 -11  -6  150.08   16.20
   6 -11  -6  155.58   14.80
   6 -11  -6  138.49   13.40
  11  -6   6  156.98   17.50
  -6  11  -6  148.99   15.10
 -11   6   6  134.99   13.80
  11   7   6  138.39   12.80
 -11  -7   6  132.09   16.60
  -7 -11  -6  102.09   16.20
  -7  11   6  106.49   12.70
  11  -7  -6  149.69   16.40
 -11  -7   6  109.89   16.10
   7 -11   6  123.09   15.60
  11   7  -6  139.49   19.40
  -7  11  -6  155.98   15.30
  11  -7   6  122.69   16.10
 -11  -7  -6  134.89   18.70
   7 -11  -6  140.09   17.40
   7  11   6  114.59   12.30
  11   7  -6  111.49   18.40
  11  -7   6   84.49   13.00
 -11   7   6  127.39   13.90
  -7 -11   6  132.89   13.80
 -11  -8   6   99.79   17.40
  11  -8  -6  108.99   15.80
  -8  11   6   83.29   12.00
  -8 -11  -6   80.79   12.90
   8 -11   6   82.49   12.10
 -11   8  -6   91.69   13.30
 -11  -8   6  106.29   14.90
 -11  -8   6  143.19   17.50
  11   8   6   67.69   10.10
  -8 -11   6  106.49   14.00
  11   8  -6   88.89   13.50
 -11  -8  -6  123.19   18.30
 -11   8   6   88.99   12.80
  -8  11  -6   89.19   14.00
   8 -11  -6   82.89   13.70
  11  -8   6  114.79   16.10
  11   8  -6   73.59   20.00
  -9 -11  -6  118.59   17.00
 -11  -9   6  102.79   15.00
  -9  11   6   88.99   12.90
   9 -11   6   98.79   16.80
  11   9   6   87.29   12.40
 -11   9  -6   97.09   15.10
  11  -9  -6   92.09   14.00
  11  -9   6   76.19   13.30
  -9 -11   6   81.89   14.80
   9 -11  -6  110.39   16.60
   9  11   6   94.69   13.10
  -9 -11   6  133.09   14.90
  11   9  -6  107.09   14.70
 -11  -9  -6   75.89   13.70
  -9  11  -6   95.09   14.40
 -10 -11  -6  135.69   17.90
 -10  11   6  126.59   14.40
 -11  10  -6  127.79   16.20
 -11 -10   6  158.98   18.50
 -11 -10   6   95.19   15.50
  10  11  -6  143.89   16.40
  11 -10  -6  127.59   17.30
  10 -11   6  144.89   18.20
  11  10   6  126.19   13.90
 -10  11  -6  126.69   15.40
 -11  10   6  111.99   14.40
  11 -10   6  153.08   18.30
  10 -11  -6  134.29   17.80
 -10 -11   6  142.09   16.90
 -10 -11   6  114.79   17.10
  10  11   6  110.19   14.00
  11  10  -6  103.09   13.30
   0 -12  -6    7.10    8.20
  12   0   6   -4.50    7.20
 -12   0  -6   16.60   12.50
   0 -12  -6   22.40    8.40
 -12   0   6   -7.70    8.30
 -12   0  -6  -13.60   18.10
   0 -12   6    6.40    6.60
   0  12  -6    8.70   10.00
   0  12   6   11.20    5.70
   0  12   6    4.80    6.40
   0  12   6    7.00   12.10
  12   0  -6    4.50    9.90
  -1  12   6   29.50    7.70
 -12  -1   6   11.50    9.70
  -1  12   6   25.90   13.70
  -1  12   6    8.00    6.30
 -12   1  -6    5.50   10.80
   1 -12   6    7.30    7.10
   1  12  -6    5.00    9.80
  12  -1  -6   26.10   10.10
  -1 -12  -6    2.10    7.90
  -1 -12  -6   15.40    8.80
 -12   1  -6    3.50   16.90
   1 -12  -6   15.50    8.50
  12  -1   6   10.60   12.10
  -1  12  -6   11.70    8.80
   1  12   6   14.60    6.80
   1 -12  -6   -0.80    7.10
   1  12   6    8.40   13.90
   1  12   6   14.00    6.50
 -12  -1  -6   24.20   15.50
  12  -1   6   -1.60    7.90
  -1 -12   6   12.70    7.00
  12   1  -6   11.10    9.40
   2  12  -6   14.90   10.20
  -2  12   6   21.50   13.80
  12   2   6    2.50    7.40
   2 -12   6   15.70    7.50
  12   2   6   37.30   22.50
 -12  -2   6   27.80   10.30
  -2  12   6   29.10    7.50
 -12   2  -6   34.30   19.30
 -12   2  -6    8.90    9.40
  12  -2  -6   20.80   10.10
  -2 -12  -6   24.60   10.80
  -2  12   6   18.00    6.80
 -12   2  -6   39.00   12.00
   2 -12  -6   20.80    8.00
   2  12   6   32.80    7.70
 -12   2   6   12.00    9.30
  -2  12  -6   22.60    9.30
  12  -2   6   16.40    8.20
  -2 -12   6   21.90    7.00
   2 -12  -6   26.50    7.90
  12  -2   6   22.10   12.10
 -12  -2  -6   11.00   15.30
   2  12   6   27.90    6.80
  12   2  -6   11.40    9.00
  -3  12   6   67.59    9.70
 -12   3  -6   37.60   27.20
  -3 -12  -6   49.90   11.40
  -3  12   6   74.99   10.90
  12  -3  -6   46.80   11.30
 -12   3  -6   68.89   12.80
  -3  12   6   85.89   15.30
 -12  -3   6   51.99   10.80
  12   3   6   55.19    9.00
   3  12  -6   19.10   11.00
   3 -12   6   66.49   10.10
  -3  12  -6   56.09   11.00
   3  12   6   59.19    9.30
   3 -12  -6   76.39   10.90
 -12   3   6   56.69   11.20
   3 -12  -6   84.19   12.80
  12   3  -6   56.49   11.00
 -12  -3  -6   42.80   16.70
  -3 -12   6   75.19   11.00
  12  -3   6   66.29   13.50
  12  -3   6   51.39   10.20
  -4 -12  -6  119.39   15.90
  -4  12   6  105.39   16.10
 -12  -4   6  100.29   14.20
 -12   4  -6  106.99   14.20
  -4  12   6  101.79   12.80
  12  -4  -6   93.09   13.20
   4  12  -6  147.19   18.50
   4 -12   6  107.89   13.30
  -4  12   6  129.99   12.70
  12   4   6  125.19   12.70
   4 -12  -6  122.09   14.00
  12   4  -6   96.29   13.90
   4 -12  -6  131.59   12.10
  12  -4   6   92.69   15.30
   4  12   6   99.19   11.70
 -12  -4  -6  125.59   20.40
 -12   4   6  112.39   14.10
  -4 -12   6  109.19   12.00
  12  -4   6  136.99   14.40
  -4  12  -6   97.99   13.70
  12  -5  -6  164.78   17.00
  -5 -12  -6  162.58   16.60
  -5  12   6  170.68   14.00
   5  12  -6  169.08   20.10
   5 -12   6  132.39   14.30
 -12   5  -6  139.79   16.10
  12   5   6  156.28   13.70
   5 -12  -6  181.58   14.20
  12  -5   6  165.98   23.00
  -5 -12   6  170.98   13.70
  12  -5   6  172.08   16.00
  12   5  -6  158.18   14.00
   5  12   6  147.09   13.40
  -5  12  -6  165.58   15.30
   5 -12  -6  155.98   15.60
 -12   5   6  146.69   15.50
 -12  -5  -6  139.79   20.70
  -6 -12  -6  186.78   18.00
  12  -6  -6  152.78   16.50
  -6  12   6  159.48   13.50
  12   6   6  155.88   13.80
   6  12  -6  149.99   20.90
 -12  -6   6  153.18   17.60
   6 -12   6  173.18   15.60
 -12   6  -6  122.89   16.40
  12   6  -6  134.69   14.30
  12  -6   6  137.89   17.70
  -6  12  -6  145.99   15.20
  -6 -12   6  163.48   13.60
 -12   6   6  129.89   14.30
 -12  -6  -6  141.29   20.40
  12  -6   6  145.69   16.40
   6  12   6  129.19   13.10
 -12   7  -6  111.19   16.00
   7 -12   6  146.29   15.90
  12  -7  -6  109.49   16.10
 -12  -7   6   74.79   13.40
  12   7   6   97.09   12.10
  -7  12   6  122.89   13.30
  -7 -12  -6   99.19   16.70
   7  12  -6  115.19   18.00
  -7 -12   6  104.69   13.30
 -12   7   6  107.09   14.00
   7  12   6  108.39   12.40
  12   7  -6  107.29   13.80
  12  -7   6  115.19   16.80
 -12  -7  -6  101.39   16.30
  -7  12  -6  127.09   14.30
   7 -12  -6  129.19   17.40
 -12  -8   6  144.39   23.70
  12   8   6  106.89   13.40
   8 -12   6  102.49   16.80
  -8  12   6  111.29   13.60
  -8 -12  -6  114.79   16.60
 -12  -8   6   56.69   13.10
 -12   8  -6  134.29   16.10
  12  -8  -6   93.19   14.00
  12   8  -6   90.29   12.80
 -12  -8  -6  133.19   19.90
   8 -12  -6  119.09   17.80
  -8  12  -6  109.79   14.50
  -8 -12   6  112.99   14.70
  12  -8   6  111.09   18.00
 -12   8   6   92.89   13.40
 -13   0   6   17.70   10.70
  13   0  -6   31.00   10.10
  13   0   6   21.80    8.70
   0 -13   6   28.30    8.30
 -13   0  -6    7.80   17.20
   0  13   6   33.60    8.20
   0  13   6   31.20    8.10
   0  13  -6   27.10   10.40
  -1 -13  -6  -13.30    8.30
   1  13  -6    8.50    9.60
  -1  13   6   11.10    7.00
  13  -1  -6   11.70    9.80
  -1  13   6   15.80    7.10
 -13  -1   6   28.60   10.80
  -1  13   6  -19.90   14.30
   1 -13   6    6.20    7.40
  13   1   6    1.60    7.60
  13  -1   6    2.00    8.30
  -1 -13   6   -0.40    6.10
   1 -13  -6   13.00    8.00
 -13  -1  -6   -2.80   15.80
   1  13   6    7.90    7.30
 -13   1   6   -1.30    9.50
   1  13   6   10.80    6.90
  13   1  -6    2.50    8.70
  -1  13  -6   11.20    9.20
 -13  -2   6   10.70   11.00
  -2  13   6   28.50    8.10
  13   2   6   23.90    8.50
  -2  13   6   22.20   14.80
   2 -13   6   24.80    8.10
  13  -2  -6    6.00   10.10
  -2  13   6   21.30    7.90
   2  13  -6   12.30   10.10
  -2 -13  -6   21.30    9.50
   2 -13  -6   18.40    8.00
 -13  -2  -6   16.10   16.10
  -2 -13   6   15.70    7.00
  -2  13  -6   16.70    9.30
  13   2  -6   20.90    9.80
 -13   2   6   14.10   10.30
   2  13   6   15.30    7.00
  13  -2   6   15.40    9.30
  13  -2   6   11.00   13.60
   2 -13  -6   20.10    8.50
 -13  -3   6   15.20   11.00
  -3 -13  -6   26.80   10.00
  -3  13   6   29.50    8.90
   3  13  -6   35.20   11.70
  13  -3  -6   25.80   10.20
  13   3   6   26.40    8.10
   3 -13   6   33.80    9.20
  13   3  -6   31.30    9.60
  -3  13  -6   34.20   10.50
   3 -13  -6   49.99    9.40
   3 -13  -6   42.70   10.20
 -13  -3  -6   55.49   16.20
 -13   3   6   27.80   10.40
  13  -3   6   37.10   14.70
  13  -3   6   50.69   11.50
   3  13   6   36.70    8.80
  -3 -13   6   35.20    8.40
  -4  13   6   64.09   10.20
 -13  -4   6   74.79   14.10
  13  -4  -6   60.89   11.90
  -4  13   6   65.59   21.50
   4 -13   6   82.09   13.10
  -4  13   6   67.79   12.50
  -4 -13  -6   94.09   13.00
   4  13  -6   74.09   14.60
  13   4   6   55.09    9.70
  13  -4   6  100.49   20.50
  13   4  -6   52.19    9.90
 -13  -4  -6   67.99   15.70
  -4 -13   6   68.49   11.30
  -4  13  -6   65.49   11.70
   4 -13  -6   85.39   12.00
   4 -13  -6   71.89   11.10
   4  13   6   68.39   10.60
  13  -4   6   62.89   15.00
 -13   4   6   53.09   11.00
 -13  -5   6   82.09   14.20
  13  -5  -6   66.19   12.50
  -5  13   6   97.89   12.90
   5  13  -6   97.89   16.80
 -13   5  -6   88.09   13.40
  13   5   6   87.09   12.10
  -5 -13  -6   78.09   12.60
   5 -13   6   91.39   13.30
   5 -13  -6  102.89   13.90
  13  -5   6   87.99   14.40
  -5 -13   6  104.49   12.70
  13   5  -6   71.09   11.20
 -13  -5  -6   78.39   16.50
  13  -5   6   94.69   12.90
  -5  13  -6  101.79   14.10
 -13   5   6   89.59   14.30
   5  13   6  109.09   12.50
  13  -6  -6   81.99   13.10
 -13   6  -6   72.69   13.50
 -13  -6   6   63.59   13.80
   6 -13   6   98.49   15.20
  -6 -13  -6  107.29   16.30
   6  13  -6   91.89   16.60
  13   6   6   78.49   11.90
  -6  13   6   96.49   12.70
  -6 -13   6   72.69   12.10
 -13  -6  -6   70.09   15.40
  13   6  -6   48.70   10.30
  13  -6   6  109.19   17.80
   6  13   6   89.29   12.80
  13  -6   6   89.19   13.40
  -6  13  -6   61.79   11.00
   6 -13  -6  123.59   15.70
 -13  -7   6   64.39   13.70
  13   7   6   84.69   12.90
 -13   7  -6   69.79   13.60
  -7  13   6   82.69   13.10
   7  13  -6   90.99   17.90
  13  -7  -6   77.09   13.40
   7 -13   6   88.59   13.30
  -7 -13  -6  107.19   16.80
  13  -7   6   83.89   14.60
 -13  -7  -6   74.99   15.70
  -7  13  -6   81.39   13.50
   7 -13  -6   79.79   14.10
  -7 -13   6   87.89   13.40
   7  13   6   96.39   13.00
  13   7  -6   57.59   11.10
 -13   7   6   54.19   11.20
   0 -14  -6    4.90    8.10
   0  14  -6   13.30   10.40
  14   0  -6   -3.90    9.30
   0 -14   6    8.00    6.90
 -14   0  -6   41.40   18.20
 -14   0   6   -7.90   10.40
   0  14   6   17.20    8.20
  14   0   6   19.80    9.10
   0  14   6   15.10    8.10
 -14  -1   6    2.90   10.00
  -1  14   6    1.00    7.50
  14  -1  -6    4.60    9.50
  -1 -14  -6    2.80    8.20
   1  14  -6   -7.60    8.70
  -1  14   6   15.60    8.80
   1 -14   6    7.20    7.20
  14   1   6   -1.40    8.00
 -14   1  -6   17.30   18.10
  14  -1   6   19.90    9.50
   1 -14  -6    0.70    8.00
  -1  14  -6   10.20    9.30
  -1 -14   6   -7.40    6.20
 -14   1   6   19.30   10.60
  14   1  -6    5.50    9.30
   1  14   6    4.50    6.80
 -14  -1  -6    4.20   17.00
  14   2   6    9.10    8.30
   2  14  -6   -8.30   10.20
  14  -2  -6    2.90    9.80
 -14  -2   6   21.80   11.70
  -2 -14  -6    1.50    8.90
  -2  14   6    1.80    8.50
  -2  14   6    5.50    8.00
   2 -14   6   10.20    7.40
 -14  -2  -6  -13.80   16.10
  -2  14  -6   10.60    8.30
  -2 -14   6   13.40    7.40
  14   2  -6    5.70    9.30
 -14   2   6    1.90   10.10
  14  -2   6    9.40    9.20
   2 -14  -6   18.20    8.40
   2  14   6   12.40    7.80
  -3  14   6   12.00    9.40
 -14  -3   6   28.30   12.20
  14  -3  -6   22.90   10.50
   3  14  -6   21.60   12.10
  14   3   6   28.10    8.90
  -3 -14  -6   14.00    9.10
   3 -14   6   -3.00    7.40
  -3  14   6   36.90    8.80
  -3 -14   6   24.00    8.30
 -14   3   6    5.70   10.00
  -3  14  -6   22.30    9.00
  14  -3   6   20.70   15.20
 -14  -3  -6    0.20   16.40
   3  14   6   14.70    7.90
   3 -14  -6   21.90    8.70
  14  -3   6   24.70   10.20
  14   3  -6   20.10    9.40
 -14  -4   6    9.30   12.00
  14  -4  -6   32.10   11.20
   4  14  -6   15.00   11.80
 -14   4  -6   41.60   18.90
  -4 -14  -6   24.40    9.80
   4 -14   6   35.90    8.80
  14   4   6   53.29    9.70
  -4  14   6   34.20    8.50
 -14   4   6   16.80   10.30
   4  14   6   37.90    9.20
 -14  -4  -6   46.10   17.00
  14  -4   6   45.00   11.50
  14  -4   6   16.50   14.40
  -4 -14   6   40.00    9.60
  -4  14  -6   29.30    9.80
  14   4  -6   36.40    9.90
   5 -14   6   46.10    9.60
  14   5   6   48.90    9.90
 -14  -5   6   40.10   13.40
 -14   5  -6   21.00   13.60
   5  14  -6   36.70   14.10
  -5  14   6   25.50    8.80
  14  -5  -6   34.70   11.50
  -5 -14  -6   57.89   11.60
   5  14   6   27.10    8.90
  14  -5   6   37.90   15.60
   5 -14  -6   75.89   11.90
  14  -5   6   53.29   12.80
  -5 -14   6   39.00    8.30
   5 -14  -6   28.90   13.90
 -14  -5  -6   39.30   16.20
 -14   5   6   24.00   10.70
  -5  14  -6   50.69   10.80
  14   5  -6   37.40   10.70
   0   0   7    1.60    4.90
   0   0  -7   -7.40    7.60
   0   0   7   -6.70    4.10
   0   0   7   -0.30    4.70
   0   0  -7    0.20    4.40
   0  -1   7   43.40    5.90
   0  -1  -7   39.50    9.30
  -1   0  -7   40.60    9.50
   0   1   7   44.80    6.00
   1   0   7   47.90    6.70
   0   1  -7   45.60    9.70
   0  -1   7   41.90    5.30
   1   0  -7   45.60    9.30
  -1   0   7   46.40    7.50
   1   0  -7   38.80    6.80
  -1   0   7   42.90    5.80
  -1   0  -7   38.70    6.30
   0   1   7   47.40    6.50
   0  -1   7   36.50    5.70
   0   1  -7   33.20    5.60
   0   1   7   40.60    5.50
   1   0   7   34.10    5.30
   1   0   7   40.00    5.30
  -1   0   7   43.80    5.70
   1  -1   7    4.50    4.10
   1   1   7   -4.60    4.90
   1   1  -7    6.60    4.30
  -1   1   7    1.30    4.60
   1  -1   7    4.10    3.70
  -1  -1   7    3.90    4.30
   1  -1  -7   19.50    7.70
   1   1   7   -6.00    3.60
  -1   1   7    0.90    4.00
  -1  -1   7    7.30    4.50
   1  -1   7   -0.90    4.50
   1   1   7   -2.30    3.80
  -1   1  -7   -6.60    4.60
  -1  -1  -7    7.60    8.40
  -1   1   7   -0.40    4.40
   1  -1  -7    2.70    4.40
  -1   1  -7   -7.60    8.70
   1   1  -7    2.40    8.10
   0   2   7   16.00    6.20
   0   2  -7   -1.50    4.10
   0   2   7    9.50    4.20
   2   0   7   13.60    5.70
   2   0  -7   16.70    4.10
   0   2   7   15.10    4.80
   0   2   7   11.30    8.30
   0  -2   7   14.00    4.30
   2   0   7   11.00    4.30
  -2   0   7   13.80    5.20
   0  -2   7    9.80    4.90
   0  -2   7   14.20    5.00
   0  -2   7   17.40    5.40
  -2   0   7    5.50    4.90
   0  -2  -7    8.60    7.30
  -2   0   7   17.70    4.50
  -2   0  -7    1.90    9.50
   2   0   7   11.20    4.40
   2   0  -7    9.00    7.50
   1  -2   7   12.10    4.90
  -2  -1   7   14.80    4.20
  -1   2   7   11.30    4.90
   1  -2   7    8.60    4.10
   1  -2   7   10.50    4.80
  -1   2   7   15.40    7.80
   1   2  -7    6.10    4.20
  -2  -1   7   15.50    5.50
   2   1   7   11.70    4.60
  -1  -2  -7   10.30    8.10
  -2  -1   7   11.30    5.50
  -2   1  -7   17.90    9.40
  -2   1  -7    9.40    5.80
  -1   2   7   14.80    5.60
   2   1   7    7.10    5.90
   2  -1  -7   13.30    7.10
   2   1   7   10.30    3.90
  -1   2   7   11.50    5.60
   2  -1  -7    8.90    4.10
  -2   1   7    7.50    4.80
  -2   1   7   12.30    5.20
   1   2   7    5.70    4.20
   1   2   7    9.60    4.30
   1  -2  -7   15.30    7.50
   2  -1   7   13.30    5.10
  -1  -2   7    4.00    4.70
  -2   1   7   19.10    4.60
  -1  -2   7    8.80    5.10
   2  -1   7    7.50    4.60
   1   2   7   15.80    8.60
   2   1  -7   10.70    4.00
  -1  -2   7    5.20    4.70
  -1  -2   7    6.40    4.70
   1   2   7   16.50    6.60
  -2  -1  -7    2.40    9.00
   2  -1   7   10.70    5.10
  -2   2  -7   19.30   11.00
   2  -2  -7   12.40    6.30
   2   2  -7   -1.60    3.80
   2   2   7   12.20   10.70
  -2   2   7   11.50    5.00
  -2  -2   7    5.00    5.20
  -2  -2   7    9.50    4.60
  -2   2  -7    9.00    5.50
   2   2   7   13.90    4.10
   2  -2   7   10.30    4.90
  -2  -2  -7   11.10    8.80
  -2   2   7   13.50    5.00
   2  -2   7   15.20    4.10
  -2  -2   7    6.60    4.70
   2   2   7    9.50    6.70
  -3   0  -7   37.60   10.50
   0   3   7   46.00    6.00
   0   3   7   50.09    7.00
   3   0   7   52.49    8.40
   0  -3   7   41.30    6.30
   0  -3  -7   35.80    7.90
   0  -3  -7   43.60    7.40
   3   0   7   40.00    6.40
   3   0   7   43.10    5.60
  -3   0   7   42.50    6.70
   0   3   7   39.70    9.20
  -3   0   7   61.49    7.80
   3   0  -7   39.50    5.60
   3   0  -7   51.79    8.40
   0  -3   7   43.20    6.20
  -3   0  -7   49.50    7.90
   0  -3   7   55.89    6.10
  -3   0   7   46.40    6.50
   3   1   7  138.59   10.70
   3  -1  -7  115.29    6.80
   3   1   7  130.79   16.50
  -1  -3  -7  139.79   12.90
  -3  -1   7  115.59    7.60
  -1   3   7  108.39    8.50
  -3  -1   7  122.69    9.60
   1  -3   7  111.99    9.10
  -1   3   7  121.59    8.10
   1  -3   7  112.39    7.10
  -3   1  -7  115.09   16.40
  -3   1  -7  136.39   11.00
   1  -3   7  127.19    9.90
   1   3  -7  111.79    8.30
  -1  -3  -7  109.49   11.40
  -1   3   7  131.09   13.30
   3   1   7  127.99    8.40
   3   1   7  120.39    7.40
   3  -1  -7  125.29   10.50
   3   1  -7  127.09    7.30
   1   3   7  117.79   14.00
   1   3   7  111.29    8.20
   3  -1   7  116.79    9.80
  -1  -3   7  124.19    9.20
  -1  -3   7  133.59    8.90
  -3   1   7  127.59   11.70
   1   3   7  124.39    7.40
  -3   1   7  120.09    9.40
   3  -1   7  123.09    7.90
  -1   3  -7  119.89    9.50
  -3   1   7  121.19    7.50
  -1  -3   7  109.69    9.60
   1  -3  -7  140.89   10.20
   1  -3  -7  112.39   11.10
  -3  -1  -7  111.79   14.70
  -3  -2   7  233.88   12.30
  -3   2  -7  221.28   13.00
   3  -2  -7  220.98   11.30
   2  -3   7  236.38    9.60
   2   3  -7  218.68   10.80
  -3  -2   7  216.18   10.90
  -2   3   7  241.88   14.50
   3   2   7  224.78    9.10
  -2   3   7  238.58   11.60
   3   2   7  260.97   18.30
   2  -3   7  229.28   12.00
  -2   3   7  236.08   11.40
   3   2   7  232.38   11.10
   2   3  -7  213.28   11.10
  -2  -3  -7  254.07   16.30
   3   2   7  226.88   13.50
  -3  -2   7  232.68   10.40
   3  -2  -7  237.28    9.50
   2  -3   7  235.58   12.50
   2   3   7  228.08   17.20
   3   2  -7  227.58   10.10
   3  -2   7  232.58   12.30
   2   3   7  253.07    9.70
  -3   2   7  238.28   11.70
  -2  -3   7  235.38   11.00
  -2  -3   7  218.68   11.70
  -2   3  -7  236.18   12.60
  -2  -3   7  236.28   12.10
   3  -2   7  249.18   10.10
   3   2  -7  226.28   11.80
   2   3   7  249.48   11.20
   2  -3  -7  230.48   11.60
  -3   2   7  253.57   12.30
   2  -3  -7  247.18   12.60
  -3  -2  -7  245.78   17.80
  -3   3  -7  273.17   19.50
  -3   3  -7  266.47   15.20
   3  -3   7  279.77   10.80
   3   3  -7  263.47   12.00
  -3  -3   7  272.07   12.50
   3   3   7  272.07   12.30
  -3  -3   7  279.57   11.70
   3  -3   7  276.67   13.60
  -3  -3   7  282.07   13.60
   3  -3  -7  252.47   10.90
   3   3   7  267.77   18.60
   3   3   7  277.37    9.60
   3  -3  -7  283.87   11.80
  -3   3  -7  291.17   13.40
  -3   3   7  251.37   12.60
  -3   3   7  276.27   12.50
   3   3  -7  266.27   11.50
   4   0  -7    8.40    6.70
   4   0  -7    8.10    3.20
   4   0   7    4.90    5.50
   0  -4   7    7.40    5.70
   0   4   7    8.90    4.50
   0  -4   7    9.00    5.10
   0  -4  -7    6.90    6.70
   4   0  -7    8.30    6.70
  -4   0  -7   -4.70   10.60
   0   4  -7    3.20    4.60
  -4   0   7    8.70    4.10
   4   0   7    7.20    4.30
   0   4   7   12.70    4.40
   0  -4   7   15.40    5.70
  -4   0  -7   11.70    5.90
  -4   0   7    0.20    4.90
   0  -4  -7   14.20    6.80
   0   4   7    7.10    8.10
   4  -1  -7   38.20    4.30
   4   1   7   24.70   10.80
   1   4  -7   41.00    7.10
  -4  -1   7   42.30    7.20
  -4  -1   7   36.10    5.00
  -1   4   7   35.10    6.10
   1   4  -7   55.89    6.50
  -1  -4  -7   38.10    8.50
  -4   1  -7   27.80    7.60
  -4   1  -7   25.50   11.00
  -4  -1   7   35.90    5.10
  -1   4   7   47.70    6.60
   4  -1  -7   45.00    7.80
  -4   1  -7   37.50    7.40
   1  -4   7   37.40    5.70
   1  -4   7   45.60    6.90
   4   1   7   52.19    8.80
   4   1   7   41.30    6.00
  -1   4   7   55.69    9.20
   1  -4   7   46.70    7.10
  -1  -4  -7   56.29    9.30
   1  -4  -7   33.20    7.10
  -4  -1  -7   65.89    8.40
   1   4   7   34.20    5.70
  -1  -4   7   43.30    7.70
  -4  -1  -7   53.39   11.20
   1  -4  -7   46.10   11.60
   1   4   7   45.00   11.80
   4   1  -7   42.80    5.30
   4   1  -7   43.80    8.70
   4  -1   7   38.80    5.50
  -4   1   7   36.30    6.20
  -4   1   7   49.99    7.20
   4  -1   7   28.40    6.20
  -1  -4   7   39.10    6.60
  -1   4  -7   36.60    6.20
   1   4   7   48.10    6.40
  -2   4   7   82.79    8.00
  -2   4   7   77.99    8.10
   4  -2  -7   90.29    5.10
  -4   2  -7  114.29   17.40
   2  -4   7   84.39    6.30
  -2  -4  -7   95.89   12.00
   2   4  -7  109.49    8.20
   2  -4   7   84.69   10.00
   4  -2  -7   78.09    6.60
  -2   4   7   83.49   12.20
   2   4  -7   68.79    7.50
   4   2   7   84.49    8.20
  -4  -2   7   92.09    8.00
   4   2   7   96.69   15.20
  -4   2  -7   75.99   10.40
   4   2   7   75.79   11.30
  -4  -2   7   86.39    7.50
  -2  -4  -7   88.29   13.20
   2  -4   7   92.29    9.50
   4  -2  -7   91.79    6.90
  -4  -2   7   80.79    9.30
   2   4   7   83.49   11.80
  -4  -2  -7   83.69   15.10
   2  -4  -7   61.99    9.00
  -2  -4   7   84.49    9.30
  -4   2   7   88.69    8.80
  -2  -4   7   85.59    7.90
  -2   4  -7  102.89    9.40
   4   2  -7   73.79    6.90
   4  -2   7   94.59    7.50
   2   4   7   89.49    8.50
   2   4   7   97.09    6.60
   4   2  -7   66.79    8.70
   4  -2   7   90.79   10.10
  -4   2   7   95.59   10.00
  -2  -4   7   88.29    8.50
   2  -4  -7   67.59    8.00
   4   3   7  190.28   11.00
   4   3   7  247.28   19.60
  -4  -3   7  186.38   11.20
   4  -3  -7  189.08    8.70
  -3  -4  -7  216.68   16.70
   3  -4   7  209.58    8.90
  -3   4   7  207.58   11.40
  -4   3  -7  206.38   13.00
   3  -4   7  207.88   12.40
  -4  -3   7  197.68   10.80
  -3   4   7  237.88   13.70
   3  -4   7  201.98   13.00
   4  -3  -7  209.88    8.00
   4  -3  -7  190.88    8.20
  -3  -4  -7  211.18   15.20
  -4   3  -7  213.08   20.70
  -3   4   7  212.48   11.30
  -4   3  -7  204.68   13.00
  -4  -3   7  215.48   12.50
  -4   3   7  206.08   12.40
   3  -4  -7  192.88   10.50
  -4  -3  -7  223.78   18.00
  -3  -4   7  207.98   11.00
   4  -3   7  206.68   12.50
   4  -3   7  204.38    9.70
  -4   3   7  228.48   11.80
  -3  -4   7  225.68   12.30
  -3   4  -7  205.48   13.90
   3   4   7  208.08   11.40
  -3   4  -7  217.28   12.50
   4   3  -7  203.88   11.60
  -3  -4   7  202.58   10.50
   3   4   7  195.48   19.80
   4   3  -7  205.08   11.20
  -4  -3  -7  208.68   15.90
   3  -4  -7  176.88    9.70
   3   4   7  217.18    8.20
   4  -4  -7  151.38    7.30
  -4   4   7  164.78   11.60
  -4  -4   7  162.28    9.50
  -4  -4   7  169.48   11.60
  -4  -4  -7  160.18   14.80
   4  -4  -7  156.88    7.90
  -4   4  -7  181.58   13.00
   4   4  -7  157.48   10.40
   4   4  -7  168.98   10.80
  -4   4   7  151.28   10.70
   4  -4   7  168.18   11.70
   4   4   7  161.88   10.00
   4  -4   7  162.78    8.50
  -4  -4  -7  172.68   16.40
  -4   4  -7  134.89   10.80
  -4  -4   7  168.28   10.20
  -4   4   7  150.88   11.10
   4   4   7  157.88   17.10
   5   0  -7   26.60    6.60
  -5   0  -7   14.00    5.70
   0   5  -7   36.40    5.40
   5   0  -7   12.00    6.60
   5   0   7   16.00    5.10
  -5   0  -7   19.00   11.60
   0  -5   7   24.20    5.70
   0  -5   7   23.10    5.50
   0   5  -7   23.30    5.80
   0  -5  -7   25.30    6.40
  -5   0   7   20.00    6.60
   0   5   7   24.40    5.40
  -5   0   7   26.30    4.30
   0   5   7   16.00    5.30
   0  -5   7   23.70    6.40
   0  -5  -7   25.30    7.50
   5   0   7   33.70    8.20
   5   0  -7   13.60    3.10
  -5  -1   7   77.99    6.60
  -1   5   7   67.79   10.00
  -5  -1   7   73.29    6.90
   1  -5   7   76.99    9.00
   5   1   7   87.49    8.00
  -1   5   7   82.59    7.50
   1  -5   7   85.69    8.90
   1   5  -7   84.89    8.90
   5   1   7   78.49   11.30
  -5   1  -7   50.99   12.00
   5   1   7   83.09   13.50
   1   5  -7   69.59    6.50
  -1   5   7   74.69    8.60
   5  -1  -7   84.59   10.70
  -5   1  -7   82.29   11.10
  -5  -1   7   74.69    9.80
  -5   1  -7   71.29    9.10
  -1  -5  -7   75.29   10.30
  -1  -5  -7   69.89   11.80
   5  -1  -7   63.69    5.50
  -5  -1  -7   94.39   13.90
  -1  -5   7   61.49    9.60
   1   5   7   78.69    8.00
   5  -1   7   71.69    7.30
   1   5   7   75.49   13.60
  -5   1   7   81.19    9.30
  -5  -1  -7   62.59    7.30
   5   1  -7   57.79    5.80
  -1   5  -7   78.29    9.20
   5  -1   7   81.09   10.30
   1  -5  -7   87.09    9.00
   5   1  -7   65.79    8.60
   1   5   7   77.19    6.60
  -1  -5   7   72.59    8.30
   1  -5  -7   78.79   10.40
  -1  -5   7   85.19    9.60
  -5  -2   7   93.99    7.80
   5   2   7   89.59   12.40
   2  -5   7   77.39    9.10
   2   5  -7   86.99    8.80
   2  -5   7   80.69    9.70
  -5   2  -7   52.89   12.00
  -2   5   7   78.99    8.60
   5   2   7   83.09   13.20
  -2   5   7   91.89    8.20
  -5   2  -7   88.79   10.40
  -2  -5  -7  101.99   12.00
  -5   2  -7   64.89    9.90
  -2  -5  -7   96.09   12.80
  -5  -2   7   86.19    7.60
   2  -5   7   79.29    6.00
  -5  -2   7   99.89   10.60
   2   5  -7   68.59    7.20
   5   2   7   90.19    8.50
   5  -2  -7   94.09   11.30
  -2   5   7  102.19   12.80
  -2  -5   7   81.19    8.10
   5   2  -7   77.59    7.20
  -5   2   7   86.09    9.10
  -2   5  -7   92.99   11.50
  -2   5  -7   98.49    9.70
   2   5   7   95.99    6.30
   2   5   7   84.39   14.50
   2  -5  -7   87.09    8.30
   2  -5  -7   84.19    9.80
   5   2  -7   84.49    9.40
  -5  -2  -7   96.49   13.00
   5  -2   7   89.29   10.30
  -5  -2  -7   71.69    6.10
  -2  -5   7   75.59    9.10
   2   5   7  100.99    8.90
   5  -2   7   83.19    7.50
   3  -5   7  112.99   10.30
  -5   3  -7  134.09   19.70
  -3   5   7  123.89    9.40
  -3   5   7  133.89   12.50
  -3  -5  -7  128.89   13.90
   5   3   7  121.39    9.20
  -3   5   7  122.69    9.60
  -3  -5  -7  141.79   14.70
   3  -5   7  130.89   11.20
   3   5  -7  125.69    8.60
  -5  -3   7  126.59    9.00
   3  -5   7  121.19    6.90
   5   3   7  133.39   17.60
  -5   3  -7  129.29   11.70
  -5  -3   7  139.09   11.20
   3   5  -7  136.29    9.90
   5   3  -7  131.19   10.40
  -3  -5   7  119.29    9.10
   5  -3   7  124.39   10.90
   3   5   7  107.19   16.00
  -5   3   7  117.79   10.20
   5  -3   7  120.69    8.20
  -3   5  -7   99.89   12.40
  -5  -3  -7  125.49   15.50
   3   5   7  126.69    6.90
  -3   5  -7  121.59   10.70
  -3  -5   7  124.09   10.40
   3  -5  -7  114.79    8.20
   3  -5  -7  139.49    9.20
   5   3  -7  118.99    8.80
   3   5   7  107.99    9.50
  -3  -5   7  135.79    9.60
  -5  -3  -7  139.39   15.40
  -5   4  -7  261.37   15.50
  -4  -5  -7  240.78   16.80
  -4  -5  -7  260.37   17.50
   5   4   7  271.87   20.30
  -4   5   7  258.77   14.30
  -4   5   7  275.07   13.10
  -5   4  -7  264.57   13.90
   4  -5   7  258.57   10.50
  -5  -4   7  273.47   12.10
  -5  -4   7  267.07   12.70
   4   5  -7  258.07   12.80
  -5  -4   7  254.17   14.20
   4  -5   7  257.47   14.20
   4  -5   7  261.67   14.40
  -4   5   7  277.27   13.90
  -5   4  -7  294.17   24.00
   4   5  -7  257.67   12.00
   5   4   7  243.58   12.70
  -5   4   7  246.38   13.30
  -5  -4  -7  276.07   19.50
   5  -4   7  260.27   14.30
   5   4  -7  238.78   12.50
  -5  -4  -7  266.97   17.60
  -4   5  -7  276.97   15.70
   4   5   7  259.97   19.90
   4  -5  -7  236.38    9.70
   4  -5  -7  260.47   10.40
  -4  -5   7  260.97   14.10
   5  -4   7  278.97   14.60
   4   5   7  251.67   12.80
  -4  -5   7  269.67   12.70
  -4  -5   7  273.87   12.40
  -4   5  -7  247.88   14.00
   5   4  -7  246.98   12.90
  -5  -5   7  143.09    9.80
  -5  -5  -7  153.28   15.30
  -5   5  -7  139.69   13.20
   5   5  -7  115.09   11.70
   5  -5   7  139.89    8.30
  -5  -5   7  120.89   11.10
  -5   5   7  151.48   10.70
   5   5   7  131.29   10.20
  -5  -5  -7  148.09   17.10
   5  -5   7  134.19   12.20
   5  -5  -7  130.99    6.40
   5   5   7  109.39   17.50
  -5   5  -7  129.69   11.00
  -5   5   7  130.99   10.60
   5   5  -7  136.69   11.10
  -5  -5   7  139.49   10.30
   5  -5  -7  137.79    6.40
   0  -6   7   53.59    7.70
   6   0  -7   46.70    8.50
  -6   0  -7   46.90   12.30
   0  -6   7   49.70    8.00
   0   6   7   48.10    7.30
   0  -6  -7   60.79   11.10
   0   6  -7   42.40    7.10
  -6   0  -7   39.40    6.40
   6   0  -7   41.10    5.60
   0  -6  -7   43.10    7.50
   6   0   7   48.60    6.80
   6   0  -7   48.10    4.80
   0   6   7   45.10   10.00
  -6   0   7   45.40    8.30
   6   0   7   32.40    7.50
   0   6   7   46.00    6.40
   0   6  -7   32.60    3.60
   6   1   7   42.70    9.00
  -6   1  -7   46.70    8.80
  -1   6   7   40.30    6.70
  -6   1  -7   55.99   10.30
   1   6  -7   40.80    5.50
  -6   1  -7   38.10   12.10
  -1   6   7   42.60    6.70
  -1  -6  -7   64.39   10.60
   6   1   7   44.10    7.00
  -6  -1   7   39.40    6.40
   1   6  -7   49.60    8.00
  -1   6   7   48.70   15.40
   6  -1  -7   56.99    8.80
   1  -6   7   56.29    8.00
  -1  -6  -7   55.29    9.70
  -6  -1   7   54.49    6.50
  -6  -1   7   39.30    7.20
   6   1   7   33.00   11.90
   1  -6   7   54.79    8.00
   6   1  -7   52.19    8.20
  -1  -6   7   48.00    8.00
   1  -6  -7   71.19   10.80
   1   6   7   43.70   10.20
  -1  -6   7   57.69    8.40
   1   6   7   55.79    6.60
   6  -1   7   64.09   10.60
  -6   1   7   39.20    6.90
  -1  -6   7   47.70    7.90
  -6  -1  -7   57.69   12.90
  -1   6  -7   55.59    8.60
  -6  -1  -7   48.00    6.70
   1   6   7   50.59    6.80
   6   1  -7   42.20    6.40
   1  -6  -7   64.39    9.10
   6  -1   7   42.20    6.30
  -1   6  -7   49.00    9.80
  -2   6   7  114.79    9.40
  -2  -6  -7  138.09   12.80
  -6   2  -7  118.79   19.70
   6   2   7  144.09   14.20
   2  -6   7  138.29   11.60
  -6  -2   7  135.59    8.20
   6  -2  -7  135.19   12.70
  -2  -6  -7  135.69   13.70
  -6   2  -7  112.09   11.20
  -2   6   7  116.99    8.90
   2  -6   7  125.49   10.30
  -6  -2   7  124.29   11.20
  -6   2  -7  127.09   10.70
  -2   6   7  149.99   13.90
   6   2   7  127.89    9.30
   2   6  -7  127.19   10.40
   2   6  -7  116.49    7.60
  -6  -2   7  127.79    8.60
   6   2   7  139.59   19.80
   2   6   7  132.99    9.80
   6   2  -7  133.39   11.30
  -2  -6   7  142.79    9.80
  -6  -2  -7  134.59   18.10
   6   2  -7  122.79    8.90
  -2  -6   7  136.39   10.90
  -2   6  -7  137.89   13.40
  -2  -6   7  138.99   10.30
   6  -2   7  105.69    8.70
  -2   6  -7  122.49   10.50
  -6   2   7  117.99   11.00
   6  -2   7  116.79   11.50
   2  -6  -7  152.28   11.00
   2   6   7  134.49    7.60
   2   6   7  102.09   15.80
   2  -6  -7  121.99    9.50
  -3   6   7  222.08   11.80
  -3   6   7  221.38   12.40
  -6  -3   7  205.78   13.50
   6   3   7  189.48   11.00
   3  -6   7  242.98   14.10
  -6   3  -7  199.28   13.40
  -3  -6  -7  217.18   16.60
  -3  -6  -7  202.28   14.60
  -6   3  -7  222.38   21.00
   6  -3  -7  195.48   13.30
  -6   3  -7  224.28   14.00
   3   6  -7  203.88   10.10
  -6  -3   7  206.98   11.00
   6   3   7  209.88   20.40
   3   6  -7  231.28   12.30
  -6  -3   7  202.38   12.50
  -3   6   7  238.88   15.60
   3  -6   7  204.78   12.70
  -3  -6   7  230.38   12.10
  -3   6  -7  219.88   13.00
   3   6   7  207.58   11.50
   3   6   7  208.48    8.80
   3  -6  -7  172.28   10.90
  -6  -3  -7  247.88   19.50
   6  -3   7  222.68   10.70
  -3  -6   7  206.38   12.40
   6  -3   7  212.88   13.50
  -6   3   7  208.68   12.90
   6   3  -7  218.48   11.60
   3   6   7  191.08   18.20
  -3  -6   7  208.38   12.80
  -3   6  -7  223.28   15.00
   3  -6  -7  210.88   11.30
  -6  -3  -7  207.08   17.70
   6   3  -7  220.78   12.80
  -4  -6  -7  220.78   16.40
  -6   4  -7  241.88   23.00
  -6   4  -7  217.08   14.40
   4  -6   7  232.48   14.10
   6  -4  -7  235.48   14.40
  -6  -4   7  244.68   12.00
   4   6  -7  232.28   13.30
   4  -6   7  237.38   14.50
  -6   4  -7  227.48   14.70
   4   6  -7  206.38   10.90
  -6  -4   7  233.18   13.90
  -4   6   7  228.68   13.00
  -4   6   7  216.08   12.30
  -4   6   7  241.38   15.00
  -4  -6  -7  248.68   17.50
   6   4   7  226.78   20.70
  -6  -4   7  239.68   11.50
   6   4   7  231.58   12.40
  -4  -6   7  198.18   13.40
   6   4  -7  211.48   12.80
  -6  -4  -7  241.98   19.30
  -4   6  -7  223.68   15.50
  -4  -6   7  227.68   12.70
  -4   6  -7  232.88   13.80
   6  -4   7  223.18   11.10
  -6  -4  -7  255.17   18.20
  -4  -6   7  219.48   12.10
   4   6   7  214.98   12.10
  -6   4   7  213.28   13.20
   6  -4   7  216.58   13.80
   4  -6  -7  214.48    9.70
   4   6   7  233.18   19.90
   4  -6  -7  231.68   10.50
   6   4  -7  216.48   13.30
  -5  -6  -7   94.89   14.60
  -6   5  -7  117.99   12.30
   6   5   7  104.39   10.00
  -6   5  -7   85.29   11.30
   5   6  -7   99.89   10.60
   5   6  -7   99.59   12.10
   5  -6   7   75.99    7.40
   5  -6   7   69.99   11.90
  -5   6   7   93.19   11.10
  -5   6   7   89.19    9.90
  -6  -5   7   90.19   10.80
   6  -5  -7   79.59   11.90
   6   5   7   80.39   14.10
  -6   5  -7  114.29   17.20
  -5   6   7  108.49   11.90
  -6  -5   7   96.59   10.40
   5  -6   7   98.29   11.50
  -6  -5   7  113.09    9.40
  -5  -6  -7  104.19   16.20
  -5  -6   7  107.39   10.00
   6  -5   7   74.39   11.40
  -6  -5  -7   98.79   17.00
  -6  -5  -7   86.99   15.00
   6   5  -7   92.89   10.20
   6  -5   7   83.89   10.70
   5   6   7   82.59   13.10
   5  -6  -7   88.69    6.30
   6   5  -7  102.59   11.00
  -5  -6   7   86.29    9.90
   5  -6  -7  100.69    7.10
  -5   6  -7  101.89   12.70
  -5  -6   7   91.99   11.10
  -6   5   7   98.29   10.40
  -5   6  -7  102.19   11.70
   5   6   7   99.99    9.40
  -6   6   7  102.89   10.90
   6  -6  -7  109.09   12.60
   6  -6   7  106.49   12.30
  -6   6   7  136.39   11.10
  -6   6  -7  119.19   13.10
   6   6   7  118.79   19.30
  -6  -6  -7  111.29   15.80
   6  -6  -7   94.79    6.10
   6   6  -7  119.49    9.80
  -6  -6   7   99.79   10.10
  -6  -6   7  109.99   10.70
  -6  -6  -7  104.39   16.50
   6   6  -7  107.09   11.80
   6  -6   7  107.99    8.60
  -6   6  -7  104.59   12.00
  -6  -6   7  113.39   11.80
   6   6   7  121.89   10.60
  -7   0  -7  106.49   19.40
   7   0  -7  115.69   12.20
   0  -7   7  113.79   10.80
  -7   0  -7  103.69    8.80
   0  -7  -7  144.89   11.80
  -7   0   7   98.99   10.70
   0  -7   7  112.09    9.80
   0   7  -7  116.39   10.10
   0   7   7  144.09   19.20
   0  -7  -7  127.99   13.10
   0   7   7  118.39    9.70
   7   0   7  113.69    9.40
   7   0   7  115.79   13.10
   0   7   7  111.79    8.10
   7   1   7  111.49   13.80
  -1   7   7  115.69    9.40
  -7   1  -7  125.39   10.20
   7   1   7  105.79    9.30
  -1  -7  -7  108.59   12.20
  -1  -7  -7  117.39   13.60
   7   1   7  116.89   17.20
   1  -7   7  106.69   10.80
   1   7  -7   97.89   10.00
  -7   1  -7  122.19   13.40
  -1   7   7  113.19    8.40
   1  -7   7  108.49   10.20
  -7  -1   7  109.89   11.20
  -7  -1   7  109.19    7.30
  -7   1  -7  107.99   17.20
  -1   7   7  150.08   16.00
   7  -1  -7  116.69   12.70
  -1  -7   7  113.69    9.70
   7  -1   7  117.89    9.20
  -7  -1  -7  114.79    8.00
  -1   7  -7  110.89   10.40
  -1   7  -7  121.59   13.80
   1  -7  -7  123.09   11.70
   1   7   7  154.28   17.50
  -1  -7   7  102.49   10.40
   1   7   7  104.49    7.70
  -7   1   7  106.79   10.70
  -7  -1  -7  118.59   19.00
   7   1  -7  109.59   11.80
   1  -7  -7  119.49   10.50
   1   7   7  121.09    9.80
   7  -1   7  113.69   12.40
   7   1  -7  104.99    8.30
  -1  -7   7  110.39   11.40
  -2  -7  -7  211.78   14.30
  -7   2  -7  220.18   13.10
  -2   7   7  210.78   11.30
   2  -7   7  219.78   13.70
  -2   7   7  228.38   17.40
   7   2   7  220.88   11.60
  -7  -2   7  196.18   13.50
  -2  -7  -7  202.68   15.50
   2  -7   7  206.28   12.30
   7  -2  -7  199.58   13.80
  -2   7   7  224.38   12.00
  -7  -2   7  211.48   10.00
  -7  -2   7  204.68   10.30
   2   7  -7  210.38   12.50
  -7   2  -7  196.88   21.60
  -7   2  -7  212.98   14.80
   2   7  -7  191.48    8.20
   7   2   7  243.78   23.00
   7   2  -7  201.78   11.40
  -2  -7   7  201.78   13.60
   7  -2   7  204.78   10.90
   2   7   7  219.18    9.80
  -2   7  -7  216.28   12.90
  -2  -7   7  206.18   12.60
   2  -7  -7  222.18   13.00
   7  -2   7  202.18   13.70
   2   7   7  220.58   18.70
  -2   7  -7  202.28   15.20
  -7  -2  -7  196.88   19.60
   2  -7  -7  198.08   11.50
   2   7   7  186.68   11.40
  -2  -7   7  202.78   11.80
  -7   2   7  206.38   13.40
   7   2  -7  210.38   13.60
  -3   7   7  239.98   16.90
  -3   7   7  231.68   12.70
   7   3   7  208.98   21.90
   7  -3  -7  210.38   14.90
   3   7  -7  205.28    9.50
  -3  -7  -7  218.28   16.30
  -7   3  -7  225.08   14.10
  -3   7   7  213.78   12.10
  -7   3  -7  216.78   22.80
  -7  -3   7  244.88   12.90
   3  -7   7  215.68   13.50
   3  -7   7  229.78   14.30
  -7   3  -7  236.58   15.20
  -7  -3   7  209.28   14.30
  -3  -7  -7  202.88   15.20
  -7  -3   7  238.98   11.60
   7   3   7  191.38   12.10
   3   7  -7  241.98   13.50
  -7  -3  -7  219.88   18.90
  -7   3   7  221.78   13.80
  -3   7  -7  231.78   13.40
   3  -7  -7  220.48   11.30
  -3  -7   7  222.18   12.80
   3   7   7  234.88   12.40
   3  -7  -7  224.88   11.90
   7  -3   7  227.08   11.30
   7   3  -7  227.98   13.70
   7  -3   7  230.88   14.40
  -3   7  -7  228.98   15.60
  -7  -3  -7  214.98   18.20
   3   7   7  226.88   19.50
  -3  -7   7  241.88   13.70
   7   3  -7  202.68   13.20
   3   7   7  220.88    9.40
  -3  -7   7  229.98   12.50
  -4   7   7  203.58   16.50
  -7  -4   7  183.18   11.40
  -7  -4   7  198.78   13.50
   7  -4  -7  206.58   15.00
  -4   7   7  190.78   12.80
   7   4   7  191.38   11.80
   4   7  -7  188.78   10.00
   4  -7   7  205.18   13.60
  -7   4  -7  164.58   21.30
  -7   4  -7  196.08   14.40
   7   4   7  203.78   19.90
   4   7  -7  205.48   13.00
  -7  -4   7  197.18   11.50
  -7   4  -7  186.58   14.60
  -4  -7  -7  189.48   16.20
   4  -7   7  190.18   14.10
  -4   7   7  196.68   12.00
   7   4  -7  197.38   12.90
  -4  -7   7  189.98   12.50
  -7  -4  -7  188.88   18.00
   7   4  -7  188.38   16.70
   4   7   7  179.08   11.60
  -4   7  -7  202.28   15.40
  -7  -4  -7  195.08   20.00
   4  -7  -7  206.78   10.80
   4   7   7  218.18   20.30
  -4  -7   7  196.48   13.40
   7  -4   7  169.68   16.10
  -7   4   7  184.28   13.10
  -4  -7   7  212.58   12.10
   7  -4   7  191.68   14.20
  -4   7  -7  214.18   13.10
  -7   5  -7  120.09   20.70
  -5   7   7  157.68   13.00
   5  -7   7  131.19   13.70
  -7   5  -7  125.19   12.80
  -7  -5   7  148.39   11.00
   7  -5  -7  129.89   13.90
   7   5   7  139.69   18.60
  -5   7   7  147.89   14.80
  -7   5  -7  140.29   13.60
   7   5   7  127.29   10.90
   5   7  -7  156.18    9.90
  -7  -5   7  145.59   12.90
   5   7  -7  149.39   13.00
   5  -7   7  143.79   12.90
  -5  -7  -7  148.09   16.00
  -5   7   7  151.78   11.30
  -7   5   7  133.79   11.80
   5   7   7  147.89   11.10
  -5  -7   7  139.79   12.40
  -5   7  -7  129.39   11.50
   7  -5   7  141.29   13.00
   5   7   7  127.89   17.70
   5  -7  -7  142.49    8.40
   7   5  -7  164.78   14.30
   7  -5   7  149.19   10.40
   7   5  -7  141.99   11.50
  -7  -5  -7  127.49   17.30
  -5   7  -7  144.89   14.40
  -5  -7   7  160.08   11.50
   5  -7  -7  160.38    9.20
  -7  -5  -7  119.29   16.70
  -5  -7   7  161.78   12.30
   6   7  -7  123.59   10.00
  -6  -7  -7  135.79   18.10
   7  -6  -7  101.29   13.40
   7   6   7  123.39   17.20
  -7   6  -7  121.89   20.10
   6  -7   7  112.09   12.80
   7   6   7  123.29   11.20
  -7  -6   7  122.09   11.40
  -7   6  -7  120.69   13.60
  -7   6  -7  116.09   13.40
  -7  -6   7  132.09   11.10
  -6   7   7  110.09   11.20
  -7  -6   7  103.89   11.90
   6  -7   7  106.29   13.80
   6   7  -7  107.09   13.00
  -6  -7  -7  135.39   15.90
   7   6  -7  122.29   14.10
   6  -7  -7  107.39   13.40
  -7   6   7  100.29   11.50
   6   7   7   87.29   10.50
  -6   7  -7  114.69   12.40
  -7  -6  -7  124.29   17.30
  -7  -6  -7  122.39   18.30
   6   7   7  143.69   20.30
  -6  -7   7  112.39   10.80
   7  -6   7  118.59   12.80
  -6   7  -7  108.39   13.30
   7   6  -7  120.49   10.80
   7  -6   7  121.29    9.80
   6  -7  -7  118.89    8.30
  -6  -7   7  110.89   12.50
  -6  -7   7  121.49   11.40
   7  -7   7   63.19   10.20
   7  -7  -7   73.29   11.00
  -7  -7  -7   51.69   11.20
  -7   7   7   45.80    8.40
   7   7   7   77.39   15.20
  -7   7  -7   77.59   12.70
  -7  -7   7   49.40    9.40
   7   7   7   48.00    8.10
  -7  -7  -7   44.80   12.10
   7   7  -7   86.09   13.50
   7   7  -7   63.29    9.40
   7  -7   7   79.69    9.80
  -7  -7   7   66.39   11.00
  -7  -7   7   77.19   11.40
  -7   7  -7   75.09   11.00
   0   8  -7  178.68   12.60
   0  -8  -7  204.08   14.60
   8   0   7  187.98   11.80
   0   8  -7  214.98   16.60
   0   8   7  188.98   10.80
   0   8   7  211.58   12.10
   0  -8  -7  208.78   13.90
   0  -8   7  193.58   12.00
   0   8   7  188.08   18.70
  -8   0   7  178.68   13.40
  -8   0  -7  195.48   11.00
   8   0   7  205.98   16.00
   8   0  -7  188.18   14.40
   0  -8   7  196.88   12.90
  -8   0  -7  175.88   20.50
   8   1   7  171.18   22.60
  -8  -1   7   96.59   11.50
   8   1   7   89.39    9.70
   1  -8   7   84.49   10.70
  -1   8   7  106.49    9.00
   8  -1  -7   91.99   12.70
  -1  -8  -7  108.59   12.90
  -8   1  -7   88.69   10.00
   1  -8   7   95.09   10.30
   1   8  -7   93.79   10.80
  -8  -1   7   99.99    7.00
   8   1   7   87.89   14.30
  -1   8   7  119.89   15.80
  -8   1  -7  117.09   20.70
  -8   1  -7  120.49   14.20
  -1   8   7  107.89    9.70
  -1  -8  -7  120.29   19.80
   8   1  -7   85.99   12.00
  -1  -8   7   94.19   10.20
  -1  -8   7  104.09   10.20
  -8  -1  -7   94.59   11.70
   1  -8  -7  104.29   10.50
   1   8   7   98.09    8.20
   1  -8  -7  108.39   12.30
   1   8   7   93.89    9.30
  -1   8  -7   95.39   10.20
   1   8   7  103.69   17.80
  -1   8  -7   97.89   14.30
   8  -1   7  106.19   12.70
  -8   1   7   85.09   11.20
  -8  -1  -7  100.89   16.00
   8   1  -7   89.59    9.10
   8  -1   7   99.89    9.40
  -8  -2   7  162.98    9.60
   8   2   7  181.58   11.50
  -2   8   7  164.28   17.50
   8   2   7  167.98   23.30
   2  -8   7  169.78   12.90
   2  -8   7  172.78   12.20
  -2   8   7  169.58   10.90
  -2  -8  -7  167.48   16.10
  -8   2  -7  141.09   14.50
  -8  -2   7  163.18   13.10
  -2   8   7  175.18   11.50
  -2  -8  -7  169.78   14.60
  -8   2  -7  157.08   22.40
   8  -2  -7  161.78   14.20
  -8  -2   7  171.98    9.70
   2   8  -7  171.48   12.10
  -2  -8   7  156.78   11.60
  -8   2   7  169.88   13.40
  -2  -8   7  160.88   11.80
   2   8   7  192.58   19.80
   2   8   7  173.18   11.30
  -8  -2  -7  173.88   20.40
   8   2  -7  163.08   12.00
   8  -2   7  174.88   10.80
  -2   8  -7  158.58   12.20
   2   8   7  152.78    9.70
   8  -2   7  169.38   14.10
  -2   8  -7  179.98   14.60
   2  -8  -7  174.98   11.40
   8   2  -7  176.18   13.40
  -8  -3   7  196.68   14.50
  -8   3  -7  242.38   24.10
   3   8  -7  213.18    9.60
  -8  -3   7  239.78   17.50
   3  -8   7  210.98   14.50
   8   3   7  228.68   12.60
  -3   8   7  224.98   12.70
   8  -3  -7  217.28   15.80
  -8   3  -7  220.58   15.60
  -3  -8  -7  275.07   16.70
   3  -8   7  227.38   14.00
   3   8  -7  221.78   13.80
  -8  -3   7  230.88   12.10
  -8   3  -7  234.88   14.30
   8   3   7  219.38   24.20
  -3  -8  -7  231.98   17.40
  -3   8   7  257.07   18.40
  -3   8   7  224.58   13.10
   3   8   7  229.48   12.60
   3   8   7  227.48   10.30
   8   3  -7  211.48   14.10
  -3   8  -7  235.68   16.50
   8   3  -7  217.18   14.30
  -3  -8   7  206.48   14.60
  -8  -3  -7  226.88   19.70
  -3  -8   7  237.88   13.50
   3  -8  -7  227.18   12.50
   3   8   7  242.88   20.50
   3  -8  -7  204.58   14.70
   8  -3   7  223.48   15.20
  -3  -8   7  227.98   13.10
  -3   8  -7  225.18   13.60
  -8  -3  -7  235.28   21.20
  -8   3   7  208.38   14.20
   8  -3   7  228.68   12.40
  -4  -8  -7  251.47   17.10
   4  -8   7  234.78   14.90
  -4   8   7  220.78   14.00
   8  -4  -7  234.78   16.10
  -4   8   7  228.18   13.30
  -8   4  -7  216.88   16.00
  -8  -4   7  224.88   12.90
   8   4   7  235.38   23.50
  -8   4  -7  183.08   24.30
  -8  -4   7  257.37   12.90
  -4   8   7  208.58   24.40
  -4  -8  -7  223.48   17.80
  -8   4  -7  245.18   15.10
   4  -8   7  215.98   14.40
   8   4   7  236.48   13.30
  -8  -4   7  194.48   14.60
   4   8  -7  231.08   14.50
   4  -8  -7  251.17   11.70
  -4   8  -7  242.28   13.40
  -4   8  -7  223.58   16.10
   8  -4   7  233.08   15.00
  -8  -4  -7  230.68   22.50
  -4  -8   7  220.08   14.80
  -4  -8   7  223.18   13.70
   4   8   7  246.08   21.90
   4  -8  -7  227.18   12.50
   8  -4   7  242.78   12.40
  -8  -4  -7  232.68   20.10
  -4  -8   7  233.48   13.50
   8   4  -7  212.18   14.50
   4   8   7  215.58   13.00
  -8   4   7  230.38   15.00
  -5  -8  -7  172.38   16.40
   8   5   7  144.69   11.50
  -8   5  -7  145.89   14.00
  -5   8   7  147.79   17.00
  -5  -8  -7  136.89   16.50
  -8  -5   7  145.49   12.20
  -5   8   7  136.69   11.80
  -8  -5   7  134.89   13.30
   5  -8   7  121.69   13.60
  -8  -5   7  108.29   13.50
   8  -5  -7  162.18   14.70
   5  -8   7  147.09   13.40
   5   8  -7  141.69    9.70
  -8   5  -7  143.89   14.40
   5   8  -7  130.79   13.90
  -8   5  -7  130.59   20.00
   8   5   7  120.09   21.60
  -5   8   7  140.99   13.00
   8   5  -7  133.89   12.20
  -8  -5  -7  140.99   17.70
  -5  -8   7  169.48   12.40
  -8  -5  -7  159.68   20.00
  -8   5   7  142.29   12.70
  -5  -8   7  141.19   12.70
  -5  -8   7  162.08   12.00
  -5   8  -7  130.69   12.30
   8   5  -7  126.69   14.90
   8  -5   7  145.49   13.80
   5   8   7  139.59   11.40
   5  -8  -7  122.99    9.00
   5   8   7  179.88   21.20
  -5   8  -7  146.39   14.00
   8  -5   7  163.38   10.70
   5  -8  -7  149.39   10.30
  -8   6  -7   76.59   18.60
   6  -8   7   57.69    9.80
   8   6   7   62.99    9.00
   6   8  -7   54.09   10.30
  -6   8   7   64.29   11.40
  -8  -6   7   49.60    9.10
  -6  -8  -7   42.70   11.50
   8  -6  -7   59.69   10.70
   6   8  -7   81.59    9.20
  -8   6  -7   81.19   13.70
  -8  -6   7   70.29    9.30
   6  -8   7   69.19   11.10
  -8   6  -7   52.89   10.20
  -6   8   7   72.39   11.10
  -6  -8  -7   54.29   11.10
   8   6   7   76.39   16.60
  -8  -6   7   62.39   11.10
   8   6  -7   61.09    8.90
   6  -8  -7   69.49   11.30
  -6   8  -7   48.00   10.90
  -6  -8   7   58.19    9.60
   6   8   7   44.50   14.40
  -8  -6  -7   70.69   14.10
   8  -6   7   80.19   12.60
  -8  -6  -7   45.90   14.00
  -6  -8   7   65.09    9.00
  -8   6   7   61.89    9.30
   8   6  -7   40.00   10.60
  -6  -8   7   53.19    8.40
   6   8   7   62.59    9.20
  -6   8  -7   71.79   11.80
   6  -8  -7   65.69    8.80
   8  -6   7   65.49   12.40
  -8   7  -7   33.60    9.10
   7   8  -7   30.20   10.30
  -8  -7   7   29.00    8.50
  -8  -7   7   15.00    8.10
   7  -8   7   38.70    9.80
  -7   8   7   11.30    6.90
  -7  -8  -7   26.20   11.00
   8   7   7   32.80    7.80
   8   7   7   40.50   15.30
  -8   7  -7   30.70    9.60
  -8   7  -7   -2.60   18.80
   7   8  -7   31.70    7.20
  -8  -7   7   29.90    8.20
   8  -7  -7   19.10    9.80
  -7   8  -7   34.00   12.60
   7  -8  -7   25.00    6.00
   8   7  -7   36.40    8.10
  -7   8  -7   17.90    8.40
   8  -7   7   46.40    8.10
  -8   7   7   19.70    8.40
  -8  -7  -7   20.70   11.30
   8   7  -7    7.40   10.20
   8  -7   7   26.30    9.10
   7   8   7   37.40    8.90
  -7  -8   7   39.30    8.10
   7   8   7   47.00   15.20
  -7  -8   7   30.20    8.30
  -7  -8   7   23.90    8.70
   7  -8  -7   32.10    9.70
  -8  -8  -7   21.10   11.90
  -8  -8   7   16.10    8.40
  -8   8   7   12.80   10.90
  -8  -8   7    7.10    9.20
   8  -8  -7   21.30   10.10
  -8   8  -7    6.60    8.90
   8   8   7   10.60    7.30
  -8   8  -7   26.50   15.40
   8  -8   7   12.80    9.50
  -8  -8   7   34.50   19.20
   8   8  -7    9.10    7.00
   8   8  -7    3.70   10.80
   9   0   7   26.50    6.70
  -9   0   7   21.10    7.70
   0   9   7   24.10    7.10
   9   0  -7   33.40    9.50
   0  -9  -7   36.90    8.90
   0  -9   7   21.90    6.50
  -9   0  -7   25.40   14.40
   0   9  -7   30.50    7.70
   0  -9   7   26.60    7.10
   0  -9  -7   17.70    8.30
   0   9  -7   30.80   10.00
   0   9   7   25.50    6.00
   9   0   7   27.70   10.90
  -9   0  -7   33.90    7.10
   0   9   7   32.70   12.10
  -9  -1   7   29.20    8.20
   9   1   7   21.90   13.90
  -1  -9  -7   36.40    9.20
  -9   1  -7   16.10   14.50
   9  -1  -7   13.50    9.50
   9   1   7   21.80   11.60
   1  -9   7   30.00    7.60
  -1   9   7   48.90   11.90
  -1   9   7   28.70    6.60
   9   1   7   31.40    7.10
  -9   1  -7   12.30    9.10
  -1   9   7   33.10    6.20
  -1  -9  -7   24.30    8.90
   1  -9   7   30.90    8.20
   1   9  -7   30.30   10.80
  -9   1  -7   23.80    7.50
   1   9  -7   23.00    6.40
   9  -1   7   20.30    6.60
   9   1  -7   27.90    8.60
   9   1  -7   23.60    6.00
  -1   9  -7   13.40    8.50
   1   9   7   11.10   11.50
  -9   1   7   47.20    9.40
   1   9   7   30.70    6.70
   1  -9  -7   20.20    8.00
  -1  -9   7   18.70    6.20
  -9  -1  -7   -3.30   13.70
  -1  -9   7   21.40    6.60
   1  -9  -7   28.90    7.60
   9  -1   7   21.60   10.00
  -1   9  -7   30.90    7.30
  -2   9   7    5.80    5.40
  -9  -2   7    2.50    5.60
  -9   2  -7    4.30    7.20
  -9   2  -7    3.00   16.00
   2  -9   7    2.20    5.90
  -2  -9  -7   11.60    8.80
  -9   2  -7    2.60    9.00
  -2   9   7   -9.80   10.20
   2   9  -7    7.30    6.40
  -9  -2   7   11.80    7.90
   9   2   7   -8.20   14.80
   9   2   7   10.40    6.30
  -2   9   7   12.40    5.80
  -2  -9  -7    2.30    8.90
   9  -2  -7   10.00    9.10
   2  -9   7   -5.30    6.30
  -2  -9   7    3.30    7.80
  -2   9  -7    6.80    6.50
   2   9   7   12.60    5.90
   9  -2   7    5.10    7.80
  -9  -2  -7    2.30   12.30
   2   9   7    4.40    5.10
  -2   9  -7    3.30    8.20
  -9  -2  -7    2.00   13.10
   9  -2   7    5.30    6.10
   2  -9  -7    7.60    6.80
  -2  -9   7    4.80    5.60
   2   9   7  -10.20   11.20
   2  -9  -7    5.40    6.20
   9   2  -7   -2.60    7.90
   9   2  -7   10.10    7.90
  -9   2   7   -0.60    7.30
  -3  -9  -7   20.60    9.70
   3  -9   7   19.40    8.10
  -3   9   7   12.60    6.20
   9   3   7   11.00    6.50
   3  -9   7   11.60    7.30
  -3   9   7   15.10   20.00
  -3   9   7    5.70    5.90
  -9  -3   7    8.60    8.00
  -9  -3   7   24.30    6.30
   9   3   7   27.80   14.90
  -3  -9  -7   19.00    8.70
  -9   3  -7   24.70    8.50
  -9   3  -7    8.50    8.20
   9  -3  -7   14.50    9.30
  -9   3  -7    0.40   15.80
   3   9  -7   15.60    7.10
   3   9   7   18.20    5.40
  -3  -9   7   19.20    6.80
   9  -3   7   19.00    6.50
   9   3  -7   19.40    9.80
   3  -9  -7   26.10    6.90
  -9  -3  -7    1.60   11.60
  -9  -3  -7   31.40   14.20
   9  -3   7   18.60    9.20
   3   9   7   10.10    6.20
  -3  -9   7   15.00    7.10
   3  -9  -7   25.90    6.80
   3   9   7   23.20   12.20
  -3   9  -7   11.90    6.10
  -9   3   7   18.70    8.20
   9   3  -7   24.60    8.50
  -3   9  -7    8.10    8.70
  -4   9   7   40.10   11.80
  -4  -9  -7   35.70   10.70
   4   9  -7   26.90    7.90
   9  -4  -7   23.90   10.00
   9   4   7   28.40    7.70
   4  -9   7   22.10    7.10
   4  -9   7   24.90    7.80
  -9  -4   7   36.60    7.20
  -9   4  -7   43.50   10.20
  -9  -4   7   19.30    8.40
  -9  -4   7   25.80    7.40
  -4   9   7   24.80    6.80
  -9   4  -7   63.39   17.60
   9   4   7    2.80   14.00
  -4  -9  -7   31.30    9.60
  -9   4  -7   25.50    9.20
  -4   9   7   37.50    8.00
   4   9   7   46.90   13.50
  -4   9  -7   18.50    8.80
  -4   9  -7   29.30    7.80
   4   9   7   23.90    6.60
  -4  -9   7   28.30    7.10
   9  -4   7   39.70    7.70
   9  -4   7   35.40    9.40
  -4  -9   7   34.70    9.30
   4  -9  -7   21.30    7.40
  -9  -4  -7   11.30   13.30
   4  -9  -7   35.80    6.50
  -9   4   7   27.10    8.70
   9   4  -7   40.10    8.50
  -9  -4  -7   15.50   14.80
   9   4  -7   19.60   14.60
  -4  -9   7   33.80    7.50
  -9  -5   7   17.50    7.80
   5  -9   7   15.30    8.60
  -9   5  -7   15.80    8.40
  -9   5  -7   35.00   17.50
   9   5   7   29.90   14.90
   5   9  -7   18.90    6.00
  -9  -5   7   18.90    7.30
  -5  -9  -7    3.20   10.80
  -5   9   7    4.80    6.40
   9   5   7   12.20    6.80
   9  -5  -7    0.80    9.00
  -9   5  -7   17.70    8.50
   5  -9   7   16.70    7.30
   5   9  -7   12.70    8.40
  -9  -5   7   17.40    9.30
  -5   9   7   21.20   11.30
  -5   9   7   -0.60    7.00
  -5  -9  -7   25.20    9.80
   5   9   7   19.20    6.90
  -9  -5  -7    2.20   13.30
   9  -5   7   18.30    8.80
   9  -5   7   10.00    7.00
   9   5  -7   12.50    7.90
  -5   9  -7   22.50    8.40
   5  -9  -7   19.30    8.20
   5   9   7   20.40   13.40
  -5  -9   7   16.50    7.00
   9   5  -7   11.10   10.80
  -9  -5  -7    0.20   11.60
  -5  -9   7   17.20    8.70
  -5  -9   7   17.70    7.40
  -9   5   7   13.60    8.10
   5  -9  -7   10.20    6.40
  -5   9  -7   14.70    7.40
   6   9  -7    7.60    9.10
  -9  -6   7   17.70    8.50
   9   6   7   37.70   16.70
  -6  -9  -7    8.40    9.70
  -9   6  -7   15.80    9.10
   9  -6  -7   15.70   10.00
  -9   6  -7    6.00   16.20
  -6   9   7    4.90    6.50
  -9  -6   7    7.70    7.30
  -9   6  -7   12.80    8.90
  -9  -6   7   10.50    8.20
   6   9  -7   16.70    6.70
   6  -9   7   14.10    8.80
   9   6   7   16.10    7.50
  -6  -9   7    2.30    7.10
  -6   9  -7    4.20    7.20
   9  -6   7   10.70    8.40
   9   6  -7   15.80   11.20
   9  -6   7    9.20    7.10
   6  -9  -7    8.20    9.00
  -6   9  -7   -4.80    8.00
   6   9   7   10.90    6.50
  -9  -6  -7    6.30   11.40
  -6  -9   7   -0.20    7.30
   9   6  -7    6.10    7.40
   6  -9  -7   10.20    6.60
   6   9   7   16.60   14.30
  -6  -9   7    6.60    8.20
   6  -9  -7    4.60    7.10
  -9   6   7    1.80    7.20
   7   9  -7    3.00   10.20
  -7  -9  -7    6.10    9.90
  -9  -7   7   22.60    9.10
   7   9  -7   16.30    7.30
  -9  -7   7    8.70    9.10
   9   7   7   16.90    7.80
  -9   7  -7   18.70    8.40
  -9  -7   7   17.10    8.50
  -9   7  -7   14.30   10.00
   7   9   7   12.50    7.90
  -7  -9   7   11.70    7.90
   9   7  -7    3.00   11.80
  -9  -7  -7   27.60   12.80
   9  -7   7   12.80    8.30
  -7  -9   7   16.20    8.90
   9   7  -7    3.60    7.10
  -7  -9   7   20.60    8.20
   7  -9  -7   20.50   10.00
  -9   7   7   20.70    8.60
  -7   9  -7   10.60    8.70
   8   9  -7    7.50    7.50
   8   9  -7   -2.40   11.70
   9  -8  -7    9.80   10.20
  -8  -9  -7   -1.00    9.60
   9   8   7    3.10    7.00
  -9  -8   7    1.20    8.60
  -9   8  -7   10.30   11.30
  -8   9   7   12.50    7.90
  -9  -8   7   19.50    9.30
   8  -9   7   19.30   10.00
   8  -9  -7    1.70   10.50
  -9  -8  -7   13.00   10.90
   9   8  -7   19.90    8.00
   8   9   7    2.60    7.10
   9   8  -7   20.70   13.00
   9  -8   7   10.40    9.50
  -8   9  -7   13.50    9.00
  -8  -9   7   15.10    8.60
  -9   8   7    9.40    7.90
  -8  -9   7   14.50    8.80
  -9   9  -7   -1.20    8.90
  -9  -9   7    4.10    9.70
  -9  -9   7  -13.20    9.60
   9  -9  -7    5.70   11.00
  -9   9   7   -2.20    7.00
   9   9  -7    0.70   14.00
  -9  -9  -7   -7.60    9.10
   9  -9   7   -7.40    9.30
   9   9   7    0.80    7.80
  -9  -9   7   10.70    9.70
   9   9  -7   -7.90    7.80
   0  10   7  167.38   11.30
   0  10  -7  174.18   16.00
 -10   0  -7  156.98   23.50
 -10   0  -7  141.99   13.60
   0 -10  -7  187.28   14.50
   0  10   7  166.98   12.10
   0  10  -7  164.58   12.80
   0 -10   7  145.89   12.20
  10   0   7  149.39   17.80
   0 -10   7  184.78   13.90
  10   0  -7  174.38   15.20
 -10   0   7  148.39   14.10
   0  10   7  149.29   19.90
   0 -10  -7  145.09   15.00
  10   0   7  139.59   12.00
 -10   0  -7  122.99   16.70
   1 -10   7  165.18   12.50
  10   1   7  165.18   24.30
 -10  -1   7  127.89   13.80
 -10   1  -7  181.78   17.10
  -1  10   7  159.58   11.70
  10  -1  -7  178.78   15.20
   1  10  -7  170.18   13.30
   1 -10   7  159.18   13.90
  10   1   7  164.98   12.30
   1  10  -7  131.09   16.60
  -1  10   7  171.88   20.70
  -1  10   7  174.98   11.90
 -10   1  -7  196.88   24.70
  -1 -10  -7  175.18   15.20
 -10   1  -7  149.88   16.30
  -1 -10  -7  205.28   26.30
   1 -10  -7  163.28   13.30
   1  10   7  176.68   12.20
  -1 -10   7  174.08   12.40
  -1  10  -7  177.18   16.10
   1 -10  -7  189.88   13.50
  -1 -10   7  161.88   13.60
   1  10   7  167.08   11.20
  10   1  -7  193.48   15.00
  10  -1   7  165.08   16.60
   1  10   7  146.49   20.60
  -1  10  -7  162.98   13.50
 -10  -1  -7  197.98   23.40
  10  -1   7  167.08   12.40
 -10   1   7  162.18   14.30
   2 -10   7  276.37   16.80
  -2 -10  -7  291.47   18.00
   2  10  -7  305.87   16.40
  -2 -10  -7  273.17   19.00
   2  10  -7  313.07   20.90
 -10  -2   7  310.77   13.60
  10  -2  -7  301.17   18.30
  10   2   7  286.97   15.30
  -2  10   7  309.27   22.90
 -10   2  -7  264.97   26.90
 -10   2  -7  308.27   15.80
  -2  10   7  309.07   15.00
  -2  10   7  286.17   15.10
 -10   2  -7  313.47   18.70
 -10  -2   7  280.67   17.50
   2 -10   7  285.97   15.90
  10  -2   7  305.47   18.80
   2  10   7  291.37   15.10
  10  -2   7  322.47   15.50
   2  10   7  273.67   13.80
 -10   2   7  261.67   16.90
   2 -10  -7  271.17   15.50
  -2  10  -7  294.77   16.10
 -10  -2  -7  314.97   25.90
  -2 -10   7  276.07   16.00
 -10  -2  -7  308.47   22.50
   2 -10  -7  308.47   15.80
  -2 -10   7  301.17   15.60
  10   2  -7  287.07   16.90
  -2  10  -7  268.77   19.00
   2  10   7  262.77   23.50
  10   2  -7  249.97   16.90
 -10  -3   7  253.97   14.30
  10   3   7  242.18   14.30
 -10   3  -7  258.17   18.30
  -3  10   7  252.07   14.00
   3 -10   7  257.97   15.60
  -3 -10  -7  253.87   19.20
   3  10  -7  242.18   19.60
  -3 -10  -7  289.67   17.50
 -10  -3   7  231.78   16.20
  10  -3  -7  241.88   17.70
  -3  10   7  232.48   14.00
 -10   3  -7  238.88   15.50
  10   3   7  201.48   27.00
  -3  10   7  270.27   22.40
   3  10  -7  259.67   16.10
 -10   3  -7  253.17   27.80
  -3  10  -7  245.28   17.60
   3 -10  -7  262.57   14.90
   3  10   7  229.68   12.50
  10  -3   7  235.88   14.10
   3  10   7  255.17   14.00
 -10   3   7  234.68   16.10
   3  10   7  226.38   23.20
  -3 -10   7  237.58   15.00
   3 -10  -7  252.77   14.80
 -10  -3  -7  249.18   21.90
  -3 -10   7  249.18   14.40
  10   3  -7  215.68   18.80
  10   3  -7  267.37   15.90
 -10  -3  -7  198.18   24.10
  10  -3   7  258.37   17.80
  -4  10   7  195.88   14.40
  10  -4  -7  196.08   16.50
 -10   4  -7  203.68   29.30
 -10  -4   7  217.88   14.50
   4 -10   7  214.58   14.90
  10   4   7  191.48   27.00
 -10   4  -7  210.18   15.80
  10   4   7  204.98   13.50
 -10  -4   7  202.18   15.70
  -4  10   7  254.97   22.20
  -4 -10  -7  240.78   17.60
  -4  10   7  207.78   13.40
 -10   4  -7  192.58   17.60
  -4 -10  -7  169.48   18.40
   4  10  -7  227.18   16.50
  -4  10  -7  194.28   16.50
   4 -10  -7  236.78   13.70
  -4 -10   7  205.38   15.10
   4  10   7  229.58   23.00
  10   4  -7  210.58   14.70
 -10   4   7  179.28   15.40
  10  -4   7  212.78   14.00
  10  -4   7  199.98   16.70
   4  10   7  229.38   13.50
   4 -10  -7  223.18   13.10
  -4  10  -7  225.58   14.40
  10   4  -7  244.08   19.70
 -10  -4  -7  212.58   22.60
  -4 -10   7  209.38   14.30
 -10  -5   7  173.38   14.50
   5  10  -7  192.48   16.20
  -5  10   7  189.48   13.20
  10   5   7  163.68   13.50
 -10  -5   7  232.18   17.50
 -10  -5   7  135.79   15.70
 -10   5  -7  168.08   15.60
  -5  10   7  169.28   14.50
  -5  10   7  180.88   29.30
 -10   5  -7  175.68   17.00
 -10   5  -7  271.87   30.60
  -5 -10   7  188.18   14.90
  10  -5   7  188.58   16.60
  10   5  -7  192.88   14.40
   5 -10  -7  186.28   13.30
 -10   5   7  158.98   15.60
   5  10   7  175.98   12.90
   5 -10  -7  210.48   12.50
  -5 -10   7  219.18   14.60
  10  -5   7  188.68   14.10
  10   6   7   88.49   11.60
 -10  -6   7   88.69   13.40
 -10  -6   7  137.19   14.80
  -6 -10  -7   64.79   12.20
 -10   6  -7  105.89   14.80
 -10  -6   7   62.99   10.80
   6  10  -7   69.89   12.00
   6 -10   7   57.69   10.10
  10  -6  -7   90.69   13.00
  -6  10   7   83.09   12.30
 -10  -6  -7   66.19   14.40
  -6 -10   7   85.59   13.40
   6 -10  -7   80.29   12.10
  -6  10  -7   61.69   10.50
  10  -6   7  108.69   18.00
  10  -6   7   98.79   11.40
  -6 -10   7  105.49   19.60
  10   6  -7   84.79   12.20
   6 -10  -7  101.79   13.00
 -10   6   7   82.09   12.80
  -6 -10   7   78.39   12.30
   6  10   7   85.99   11.40
  10   6  -7   95.29   15.20
 -10   7  -7   36.10   11.20
   7  10  -7   16.60   12.00
  -7  10   7   37.30    9.00
   7 -10   7   49.10   10.30
  10  -7  -7   35.90   11.30
  -7 -10  -7   45.50   11.90
  10   7   7   26.80    7.70
   7  10  -7   15.60    8.10
 -10  -7   7   44.70   10.40
 -10  -7   7   50.49   11.20
 -10  -7   7    6.10   15.80
  -7 -10   7   46.30    9.90
 -10   7   7   31.60    8.90
   7  10   7   44.20    9.30
  10   7  -7   34.10   14.20
  -7 -10   7   38.20   12.00
  10  -7   7   28.30    9.80
  -7  10  -7   44.00   10.20
   7 -10  -7   49.60   13.40
 -10  -7  -7   37.70   12.80
  10   7  -7   28.50    8.30
 -10  -8   7   44.80   11.10
 -10   8  -7    7.80   10.30
  10  -8  -7   34.00   10.90
 -10  -8   7   53.29   12.40
   8  10  -7    7.80    8.40
   8 -10   7   22.60   10.00
  -8  10   7   25.30    8.50
  -8 -10  -7   16.70    9.90
  10   8   7   22.30    8.10
 -10  -8   7   24.30   10.70
   8  10   7   14.50    7.40
  10  -8   7   28.50   11.60
  10   8  -7   25.10    8.80
  10   8  -7    7.40   15.20
   8 -10  -7   12.80   10.70
 -10  -8  -7   19.00   11.40
 -10   8   7   17.50    8.80
  -8  10  -7    6.30    8.10
  -8 -10   7   16.30   11.10
 -10   9  -7   17.40   10.10
  10  -9  -7   29.00   11.30
  10   9   7   12.90    7.60
 -10  -9   7   21.40   12.00
   9  10  -7   18.30    9.90
  -9  10   7   24.50    9.10
  -9 -10  -7   16.80   10.10
 -10  -9   7    8.70   10.60
   9 -10   7   16.50   10.80
  -9 -10   7   20.80   10.80
  -9 -10   7   16.80   11.30
  -9  10  -7    5.40    8.70
  10  -9   7   23.70   10.60
   9 -10  -7    9.80   11.00
 -10  -9  -7   22.20   11.50
 -10   9   7   20.00    8.70
   9  10   7   27.50    8.40
  10   9  -7   12.20    9.70
  10   9  -7   14.70   16.60
 -10 -10   7    5.00   11.40
 -10  10  -7    9.90   10.00
  10  10  -7   21.10   10.30
 -10  10   7   28.20    9.90
 -10 -10  -7   21.10   10.60
  10 -10   7   30.10   11.60
 -10 -10   7   24.40   12.90
  10  10   7   14.30    8.20
  10 -10  -7   30.80   12.00
  11   0  -7   61.89   14.10
 -11   0   7   89.59   13.90
   0  11  -7   78.19   18.60
   0  11   7   77.39   10.30
 -11   0  -7   60.39   13.00
   0 -11  -7   77.59   12.80
   0 -11  -7   74.19   12.70
  11   0   7   85.59   11.30
 -11   0  -7   48.70   17.40
   0  11   7   82.49   10.70
   0  11   7   59.99   14.40
 -11   1  -7   46.70   11.20
  -1  11   7   77.29   15.20
   1  11  -7   78.79   18.90
  -1  11   7   53.49    8.00
  11   1   7   60.19    9.20
 -11  -1   7   39.50    9.60
  -1 -11  -7   71.99   11.10
  -1 -11  -7   46.40   10.30
 -11   1  -7   11.00   17.80
  -1  11   7   48.00    7.90
   1  11   7   61.19   14.30
  11   1  -7   61.89   10.90
  11  -1   7  107.79   16.70
   1 -11  -7   71.39   12.10
  11  -1   7   57.69    9.20
 -11  -1  -7   61.19   26.20
   1  11   7   60.69    8.40
 -11   1   7   67.39   11.30
   1 -11  -7   70.39   10.10
   1  11   7   39.40    7.80
  -2 -11  -7  130.09   15.90
  11   2   7  185.68   29.00
 -11   2  -7  108.09   21.20
   2 -11   7  144.09   14.90
  11  -2  -7  137.29   15.90
 -11  -2   7  128.69   14.80
 -11   2  -7  127.99   14.30
  -2  11   7  142.99   12.20
  -2  11   7  145.59   22.40
  -2 -11  -7  121.39   15.60
  -2  11   7  126.99   11.60
 -11   2  -7  125.29   17.10
  11   2   7  144.59   12.70
   2  11   7  147.09   12.00
  11   2  -7  146.29   14.70
  -2  11  -7  148.79   16.00
  11  -2   7  166.68   18.20
   2 -11  -7  140.69   13.10
 -11  -2  -7  123.59   18.20
   2  11   7  144.79   19.00
  11  -2   7  132.39   13.00
  -2 -11   7  110.49   15.10
   2 -11  -7  134.99   13.70
  -3 -11  -7  148.59   16.00
  11   3   7  124.59   13.10
  11  -3  -7  133.89   15.70
 -11  -3   7  129.09   14.70
  -3  11   7  147.69   22.30
 -11   3  -7  100.39   16.70
  -3  11   7  131.39   12.40
   3 -11   7  149.79   13.50
  -3  11   7  143.99   12.20
   3  11   7  136.59   23.40
 -11   3   7  127.99   14.60
   3 -11  -7  132.69   12.80
   3  11   7  147.89   16.80
  11  -3   7  153.68   13.00
   3 -11  -7  144.29   13.70
  -3  11  -7  103.09   15.30
  11   3  -7  142.69   13.90
   3  11   7  166.08   12.60
  11  -3   7  108.19   16.30
   4 -11   7  166.48   14.40
 -11  -4   7  170.48   17.30
  11   4   7  146.89   12.90
  -4 -11  -7  184.78   17.90
  11  -4  -7  173.98   15.90
  -4  11   7  178.78   23.60
   4  11  -7  168.48   19.20
  -4  11   7  171.28   13.10
 -11   4  -7  152.48   15.60
  -4  11   7  195.68   14.70
  -4 -11   7  124.59   17.80
   4 -11  -7  180.98   13.00
  -4  11  -7  197.78   16.50
   4  11   7  177.48   14.20
 -11  -4  -7  175.98   21.10
  11  -4   7  174.68   14.00
  11  -4   7  136.19   20.70
  11   4  -7  190.08   31.40
  11   4  -7  163.98   15.10
 -11   4   7  144.39   15.30
   4 -11  -7  197.88   14.60
 -11  -5   7  143.59   23.90
  11   5   7  155.38   13.00
 -11   5  -7  182.78   16.50
   5 -11   7  161.08   15.40
  -5 -11  -7  161.88   16.90
  11  -5  -7  184.38   17.20
  -5  11   7  190.18   17.20
  11  -5   7  178.08   14.70
  -5  11  -7  177.18   15.60
  -5 -11   7  179.58   14.10
   5  11   7  173.68   13.70
  11  -5   7  185.88   20.00
   5 -11  -7  190.88   13.60
 -11  -5  -7  177.48   20.60
   5 -11  -7  187.58   15.30
  11   5  -7  167.78   20.40
 -11   5   7  163.28   15.20
  -6  11   7   68.09   10.20
 -11   6  -7   68.09   12.00
  11   6   7   46.30    9.30
  11  -6  -7   51.59   12.30
  -6 -11  -7   52.69   12.10
 -11  -6   7   30.40   11.00
   6 -11   7   69.79   10.80
 -11   6   7   45.50   10.10
   6  11   7   85.19   12.00
 -11  -6  -7   53.99   13.90
  11   6  -7   54.09   14.40
  11  -6   7   64.19   11.80
  -6 -11   7   75.59   12.90
   6 -11  -7   76.49   13.80
  -6  11  -7   59.49   11.00
  11  -6   7   64.19   11.50
  -7 -11  -7   35.90   11.80
  11   7   7   34.50    9.00
   7 -11   7   39.00   11.00
 -11   7  -7   39.50   11.80
  -7  11   7   45.50    9.40
  11  -7  -7   42.50   11.70
 -11  -7   7   49.70   11.90
  -7 -11   7   45.80    9.90
 -11  -7  -7   22.30   12.20
   7  11   7   26.50    7.80
  11   7  -7   12.70    9.70
  11  -7   7   16.90   10.00
 -11   7   7   28.30    9.80
  -7  11  -7   30.50    9.30
   7 -11  -7   42.80   11.80
 -11  -8   7   27.30   11.30
  11   8   7   14.90    7.60
 -11  -8   7   57.29   14.70
  -8  11   7   19.30    8.60
  11  -8  -7   36.20   11.80
 -11   8  -7   31.20   11.70
  -8 -11  -7   17.80   10.30
   8 -11   7   22.30   10.20
  -8 -11   7   32.30   10.10
  11   8  -7   18.50    9.60
  11  -8   7   14.50   11.00
   8  11   7   31.10    8.90
  -8  11  -7   20.10    8.90
 -11  -8  -7   28.40   12.20
 -11   8   7   19.70    9.30
   8 -11  -7   30.00   11.90
  -8 -11   7   13.90   12.00
  -9 -11  -7   -0.90    9.90
  -9  11   7   10.40    8.30
 -11   9  -7   19.30   10.90
  11  -9  -7   11.30   11.10
 -11  -9   7    0.00   11.00
   9 -11   7    4.20   10.10
  11   9   7    6.50    8.30
  -9  11  -7    3.60    9.10
 -11  -9  -7   33.60   13.30
  11   9  -7    6.50   10.00
  11  -9   7   -3.10   10.60
   9  11   7   26.30    8.50
 -11   9   7   13.90    9.50
   9 -11  -7    8.60   11.00
  -9 -11   7   -0.20   12.50
  -9 -11   7   16.20   10.30
 -12   0   7  165.18   16.70
   0 -12  -7  209.88   15.80
   0 -12   7  197.98   14.60
   0 -12  -7  173.38   15.70
  12   0   7  149.49   16.80
   0  12  -7  166.48   17.30
  12   0  -7  210.18   16.80
   0  12   7  192.48   25.30
   0  12   7  186.08   13.30
   0  12   7  192.58   13.70
  -1 -12  -7  140.59   15.50
 -12  -1   7  124.89   15.40
  12  -1  -7  122.19   14.60
  -1  12   7  121.89   12.30
  -1  12   7  136.09   12.30
  -1  12   7  136.29   24.40
   1 -12   7  144.49   12.90
   1  12  -7  135.19   17.00
  12   1   7  126.39   13.50
  12   1  -7  122.99   14.30
   1  12   7  127.99   12.30
  12  -1   7  143.29   19.90
   1 -12  -7  151.58   15.50
   1  12   7  146.09   23.80
   1  12   7  154.58   12.80
  12  -1   7  151.48   13.60
  -1  12  -7  133.09   16.40
 -12  -1  -7  148.79   22.50
 -12   1   7  124.39   14.50
  -1 -12   7  140.29   12.70
   1 -12  -7  150.68   14.20
 -12  -2   7  135.09   16.60
  -2  12   7  184.88   13.90
  12   2   7  173.98   13.80
   2  12  -7  156.08   17.50
  -2  12   7  180.88   13.50
  -2 -12  -7  163.98   18.20
  12  -2  -7  201.78   16.00
   2 -12   7  173.78   13.80
  -2  12   7  155.28   24.60
   2 -12  -7  181.88   15.90
 -12   2   7  154.68   16.40
  12  -2   7  186.98   14.60
  12   2  -7  194.38   15.90
 -12  -2  -7  202.98   23.10
   2 -12  -7  182.78   14.90
  -2 -12   7  172.58   14.10
  -2  12  -7  176.08   17.00
  12  -2   7  182.58   20.40
   3 -12   7  229.58   15.50
 -12  -3   7  216.48   17.90
  -3  12   7  182.58   14.80
  12  -3  -7  204.28   17.40
 -12   3  -7  178.48   16.90
   3  12  -7  191.58   19.00
  -3  12   7  188.68   25.90
  12   3   7  197.98   15.00
  -3  12   7  206.88   14.30
  -3 -12  -7  192.28   17.90
 -12   3   7  193.28   16.90
   3 -12  -7  214.68   15.10
 -12  -3  -7  209.28   24.40
  12  -3   7  218.88   21.10
  12  -3   7  219.78   15.60
  12   3  -7  192.38   16.00
  -3  12  -7  205.68   16.70
   3 -12  -7  254.67   15.90
   3  12   7  202.38   14.50
  -3 -12   7  224.08   14.70
   4 -12   7  206.48   15.70
 -12  -4   7  183.58   17.30
  -4  12   7  207.08   24.10
   4  12  -7  193.98   20.30
  12   4   7  166.08   14.00
  -4 -12  -7  208.48   18.50
  12  -4  -7  200.98   17.40
 -12  -4  -7  182.38   22.30
  12  -4   7  185.88   15.30
  -4  12  -7  171.48   16.20
  12   4  -7  175.58   15.40
   4  12   7  183.58   14.00
   4 -12  -7  202.78   14.30
  12  -4   7  207.68   19.80
   4 -12  -7  233.18   16.40
  -4 -12   7  192.28   14.70
 -12   4   7  153.98   15.80
  -5 -12  -7  146.09   16.40
  12   5   7  126.89   12.80
   5  12  -7   88.89   15.30
  -5  12   7  131.29   13.40
   5 -12   7  126.89   14.40
  12  -5  -7  141.49   16.60
 -12   5  -7  104.69   16.10
  12   5  -7  110.49   14.10
  12  -5   7  133.19   15.30
  -5  12  -7  118.79   14.30
 -12   5   7  112.59   14.80
  12  -5   7  134.39   17.80
  -5 -12   7  136.09   13.80
 -12  -5  -7   97.79   15.90
   5  12   7  123.19   12.80
   5 -12  -7  155.58   23.30
   6 -12   7   50.79   10.40
  -6 -12  -7   33.30   10.90
 -12  -6   7   21.70   10.40
  12  -6  -7   54.59   12.10
  12   6   7   38.20    9.10
   6  12  -7   18.90   13.20
  -6  12   7   40.40    9.50
  12  -6   7   50.69   11.80
   6 -12  -7   64.29   13.60
   6  12   7   40.80    9.40
 -12  -6  -7   54.49   14.10
  12   6  -7   23.90    9.00
  12  -6   7   37.20   11.60
  -6  12  -7   36.30    8.90
  -6 -12   7   46.00   10.00
 -12   6   7   45.00   11.00
 -12  -7   7    7.20   10.60
  -7  12   7    6.80    7.80
  12  -7  -7   12.40   11.20
 -12   7  -7   22.90   12.30
  12   7   7   13.40    8.10
   7 -12   7   21.80   10.60
  -7 -12  -7   20.50   11.10
  -7  12  -7    5.80    8.70
  12  -7   7    2.20   10.30
  12   7  -7   10.20    9.00
   7 -12  -7   20.60   11.50
  -7 -12   7   31.70    9.40
 -12  -7  -7   -5.50   12.70
 -12   7   7   10.00    9.60
   7  12   7   19.50    8.00
   8 -12   7   -7.80    9.00
 -12   8  -7   12.40   11.50
  -8 -12  -7   12.90   10.60
  12  -8  -7   -6.70   10.90
  12   8   7   11.40    7.60
  -8  12   7    6.90    8.70
 -12  -8   7    6.40   11.70
   8 -12  -7    2.50   11.30
   8  12   7   -2.60    7.70
 -12   8   7   -2.70    8.80
  -8 -12   7    2.50    9.30
  12   8  -7    8.80    9.70
 -12  -8  -7    1.60   12.70
  12  -8   7    1.60   11.40
  -8  12  -7   14.20    8.50
   0 -13   7   35.40    8.00
   0  13  -7   34.50   10.30
  13   0   7   16.50    8.90
   0  13   7   25.40    8.20
 -13   0   7   35.40   11.60
   0  13   7   41.80    8.60
  13   0  -7   26.90    9.90
 -13   0  -7   53.89   17.20
   0 -13  -7   52.29   10.70
   1  13  -7   26.70   10.30
  -1  13   7   53.79   10.20
  13   1   7   16.50    8.20
  13  -1  -7   19.90   10.70
  -1 -13  -7   43.00   10.70
   1 -13   7   42.30    9.00
 -13  -1   7   27.50   11.10
  -1  13   7   36.00    8.60
  13  -1   7   35.80    9.90
  -1 -13   7   39.70    8.90
  -1  13  -7   33.70   10.90
 -13  -1  -7   31.80   16.00
  13   1  -7   26.60   10.30
 -13   1   7   53.39   11.60
   1  13   7   27.70    8.00
  13   2   7   60.89    9.90
  13  -2  -7   41.00   11.40
  -2  13   7   80.69   11.40
  -2  13   7   70.29   21.30
  -2  13   7   45.60    9.30
   2  13  -7   69.99   13.50
   2 -13   7   71.39   10.90
 -13  -2   7   44.10   12.20
  -2 -13  -7   53.49   10.80
   2  13   7   41.90    8.80
   2 -13  -7   51.09   11.70
  13  -2   7   49.00   10.60
 -13   2   7   33.40   10.20
  13   2  -7   45.70   10.80
  -2  13  -7   52.79   12.00
   2 -13  -7   75.69   10.60
 -13  -2  -7   70.99   17.20
  13  -2   7   70.59   15.50
  -2 -13   7   49.50    8.90
  -3  13   7   85.59   25.20
  -3  13   7   94.79   12.50
  13   3   7   81.99   12.20
  -3 -13  -7   96.79   15.50
   3 -13   7   78.89   12.50
   3  13  -7   68.89   12.90
 -13  -3   7   68.09   12.30
  13  -3  -7   71.59   12.00
  -3  13   7   65.89   10.80
  13  -3   7   62.19   14.30
  13   3  -7   74.79   11.50
  -3 -13   7   91.79   11.90
  -3  13  -7   90.19   12.70
 -13  -3  -7   68.79   16.90
   3  13   7   79.59   11.80
   3 -13  -7   88.19   13.20
   3 -13  -7   66.69   11.50
 -13   3   7   47.80   11.30
  13  -3   7   76.99   12.00
  13   4   7   94.59   12.90
  -4 -13  -7   87.89   13.20
 -13  -4   7   95.69   13.80
  13  -4  -7   82.69   13.10
   4 -13   7   84.99   12.90
  -4  13   7   82.29   12.40
  -4  13   7   79.39   12.60
   4  13  -7   73.29   14.60
 -13  -4  -7   68.79   17.00
   4 -13  -7  112.09   13.60
  13  -4   7   90.19   15.50
 -13   4   7   64.89   11.40
  13   4  -7   54.79   10.90
  -4  13  -7   59.29   10.50
  -4 -13   7  114.19   12.70
  13  -4   7   99.79   13.60
   4  13   7   60.19    9.40
  -5 -13  -7   34.40   11.30
  13   5   7   39.60    9.00
   5 -13   7   53.09   10.20
 -13   5  -7   60.09   13.00
  -5  13   7   77.29   12.30
   5  13  -7   49.00   13.90
  13  -5  -7   46.00   12.00
 -13  -5   7   50.19   13.30
  -5  13  -7   41.40   10.20
 -13  -5  -7   45.70   16.80
  13   5  -7   55.39   10.90
 -13   5   7   59.39   12.20
  13  -5   7   67.09   14.20
  -5 -13   7   55.69   10.30
   5  13   7   69.19   11.00
  -6 -13  -7   23.70   11.20
  13   6   7   27.40    8.60
 -13   6  -7   43.60   13.60
   6 -13   7   36.40   10.00
  -6  13   7   35.70    9.60
  13  -6  -7   25.70   11.50
 -13  -6   7   38.30   11.90
   6  13  -7   35.80   14.40
  -6 -13   7   37.90    9.50
   6  13   7   47.60   10.30
   6 -13  -7   21.60   12.20
  13  -6   7   48.80   13.30
 -13  -6  -7   16.90   15.00
  13   6  -7   13.60   10.00
  -6  13  -7   36.40   10.90
 -13   6   7   33.60   10.80
  13  -6   7   29.50   12.80
   0 -14  -7   11.30    9.40
 -14   0   7   31.20   11.60
 -14   0  -7    2.10   18.00
  14   0   7   -7.50    8.60
   0 -14   7   14.60    8.50
   0  14  -7   16.20   10.10
  14   0  -7    2.80    9.50
   0  14   7   22.00    7.70
 -14  -1   7   11.10   11.10
  14   1   7   13.10    8.60
  14  -1  -7   -1.90    9.50
  -1  14   7    7.10    8.50
  -1  14   7    7.60    8.50
  -1 -14  -7   20.50   10.20
   1 -14   7   12.50    7.10
   1  14  -7   11.10    9.80
   1  14   7    2.60    7.10
   1 -14  -7   23.60    9.80
  -1 -14   7   -2.70    6.50
 -14  -1  -7    1.90   17.40
  -1  14  -7   22.60   10.30
  14  -1   7   20.60    9.90
  14   1  -7   29.40   10.70
 -14   1   7   15.80   10.70
   2 -14   7   44.60   10.00
  -2 -14  -7   25.60   10.30
  14  -2  -7   18.40   10.80
  14   2   7   31.80    9.30
   2  14  -7   13.70   11.00
  -2  14   7   48.50   10.20
  -2  14   7   40.90    9.70
 -14  -2   7   31.10   12.20
  -2 -14   7   34.50    8.50
  14  -2   7   28.90   10.80
  14   2  -7   21.30    9.90
  -2  14  -7   11.20    9.00
   2 -14  -7   30.70    9.80
 -14   2   7   44.20   11.90
 -14  -2  -7   51.59   18.40
   2  14   7   27.30    8.80
   3  14  -7   55.59   14.00
  -3  14   7   53.79   10.00
  -3  14   7   34.00    9.50
  -3 -14  -7   44.00   11.50
  14  -3  -7   31.60   11.50
   3 -14   7   53.69   11.10
  14   3   7   51.69   11.80
 -14  -3   7   41.00   12.80
 -14   3   7   45.20   12.40
  14  -3   7   39.20   11.10
  14  -3   7   43.40   16.60
  -3  14  -7   19.60    8.90
  14   3  -7   21.20   10.00
 -14  -3  -7   43.30   17.00
   3 -14  -7   64.59   11.60
   3  14   7   47.40   10.10
  -3 -14   7   28.70    8.10
  14  -4  -7   33.90   11.30
   4 -14   7   59.89   11.30
  -4  14   7   36.60    9.90
 -14  -4   7   38.20   12.40
  -4 -14  -7   52.39   11.80
  14   4   7   46.30    9.50
  -4  14   7   59.39   11.60
   4  14  -7   47.50   14.40
  -4  14  -7   39.50    9.60
  14  -4   7   28.90   12.00
 -14   4   7   32.00   11.40
  14  -4   7   33.80   14.70
  -4 -14   7   35.10    8.80
   4  14   7   46.60    9.50
 -14  -4  -7   45.70   17.40
  14   4  -7   63.99   11.40
   0   0   8  178.68   10.30
   0   0   8  196.18   11.20
   0   0  -8  198.38   11.30
   0   0  -8  223.18   16.30
   0   0   8  190.18   10.20
   1   0   8  117.99    8.50
  -1   0   8  102.49   11.10
   1   0  -8  131.79   15.30
   0  -1  -8  148.59   14.90
   0   1  -8  112.39    9.00
   0   1   8  138.49    9.20
   1   0   8  115.99    9.80
   1   0  -8  130.59    8.90
  -1   0  -8  137.79   10.80
   0  -1   8  139.39    9.60
  -1   0  -8  119.29   14.80
   0  -1   8  127.59    9.00
   0   1   8  127.89    9.80
   0  -1   8  138.59    8.90
  -1   0   8  120.79    8.80
   0   1   8  125.49    9.10
   0  -1  -8  135.39    9.70
   0   1  -8  151.78   15.60
  -1   0   8  117.29    9.10
   1   0   8  109.49    8.30
  -1  -1   8  216.78   10.80
   1  -1  -8  241.78   11.70
  -1  -1  -8  208.28   16.60
  -1   1   8  238.68   11.60
   1   1   8  212.48   11.00
   1   1  -8  225.08   11.20
  -1  -1   8  254.17   12.40
   1  -1   8  229.88   11.00
   1   1  -8  226.78   18.30
   1   1   8  218.18   12.20
   1  -1   8  236.48   10.80
  -1   1  -8  230.88   17.50
   1  -1  -8  224.48   16.00
  -1  -1   8  235.78   11.40
  -1   1  -8  208.88   11.90
  -1   1   8  233.28   12.60
  -1   1   8  232.68   11.20
  -2   0   8   85.29    9.50
   2   0  -8   78.69   13.30
   2   0  -8   94.19    7.80
   2   0   8   91.79    9.40
  -2   0  -8  101.49   15.40
   0   2   8   82.19   14.30
   0   2   8  105.69   10.30
   0   2   8   91.49    8.20
   0  -2   8  100.49    8.80
   2   0   8   90.29    8.20
   0  -2   8   97.99    7.70
   2   0   8   80.89   12.60
   0   2   8   94.49    8.70
   0   2  -8   85.39    8.50
   0  -2  -8   87.39   13.00
  -2   0  -8   99.69   10.20
  -2   0   8   90.79    9.10
   0  -2   8   88.29    9.00
  -2   0   8   92.69    8.40
   2  -1  -8  355.36   13.60
  -2   1  -8  351.56   15.90
  -1  -2  -8  343.07   18.60
   1  -2   8  356.36   16.30
   1   2  -8  340.57   14.10
   2   1   8  358.76   15.50
  -2  -1   8  357.56   15.00
  -1   2   8  353.26   14.20
   2   1   8  358.66   13.20
  -1   2   8  348.07   16.10
   2  -1  -8  359.46   17.50
   2   1   8  355.96   13.90
  -1   2   8  347.57   14.10
  -2  -1   8  350.26   14.50
   1  -2   8  358.06   15.00
  -2   1   8  345.77   14.70
   1   2   8  374.26   21.20
   2   1  -8  300.97   19.70
   1   2   8  367.56   15.90
   2  -1   8  355.66   15.20
  -1  -2   8  369.86   13.90
  -1  -2   8  351.76   14.70
   2  -1   8  357.36   13.60
   2  -1   8  347.97   13.90
   2   1  -8  373.06   13.60
  -2   1   8  349.17   14.10
  -1  -2   8  342.47   14.10
   1  -2  -8  374.16   18.00
  -2   1   8  353.56   13.80
  -1   2  -8  364.96   22.00
  -2  -1  -8  335.97   19.50
   1   2   8  363.96   13.30
  -1   2  -8  349.96   15.10
   1   2   8  349.77   14.30
   2  -2   8  554.14   19.90
   2   2  -8  544.75   18.50
  -2   2  -8  577.94   27.10
   2   2   8  557.54   19.20
   2  -2  -8  571.54   18.70
   2  -2   8  537.65   19.10
  -2   2   8  568.94   19.80
  -2  -2   8  584.54   20.40
  -2  -2   8  557.94   18.80
   2   2   8  563.54   26.00
   2  -2  -8  548.15   20.90
  -2   2  -8  544.35   20.40
   2  -2   8  566.24   18.10
  -2  -2   8  566.64   19.70
   2   2   8  570.14   20.80
   2   2   8  557.24   17.80
  -2  -2  -8  566.04   24.30
  -2   2   8  544.55   19.50
   0  -3   8  778.12   25.80
   0  -3   8  785.02   25.30
  -3   0   8  787.72   25.70
   0  -3  -8  780.92   27.50
  -3   0  -8  784.52   30.60
   3   0   8  787.82   26.10
  -3   0  -8  820.72   26.60
  -3   0   8  811.62   23.80
   0   3  -8  784.92   25.20
   3   0  -8  850.11   30.90
   0  -3   8  787.82   25.60
   0   3   8  802.92   25.20
   0   3   8  784.42   24.30
   0  -3  -8  799.42   27.00
   3   0  -8  787.72   23.40
  -3   0   8  822.72   26.20
   3   0   8  780.32   24.10
   0  -3   8  779.72   23.50
   0   3   8  816.22   30.00
   3   1   8 1002.80   30.00
   1  -3   8  996.50   30.90
   1  -3   8  962.30   33.60
  -3   1  -8  998.30   36.10
  -1   3   8  981.80   30.30
   1   3  -8 1027.50   30.10
   1  -3   8 1018.80   28.60
   1  -3   8 1015.80   30.60
   3  -1  -8 1000.90   31.10
  -3  -1   8 1047.70   31.50
   3  -1  -8 1025.60   28.50
  -1   3   8 1016.60   34.00
   3   1   8 1008.60   28.70
  -3  -1   8 1004.20   29.10
  -1   3   8  998.90   29.90
  -1  -3  -8 1046.20   33.90
   3   1   8  986.00   31.20
  -3   1   8  997.40   30.80
   1   3   8 1054.89   35.40
   3   1  -8 1023.00   28.90
   1   3   8  986.40   30.30
   3  -1   8 1010.90   31.30
  -1   3  -8 1027.30   31.00
  -3   1   8 1013.10   30.90
  -3   1   8 1003.90   28.60
   1  -3  -8  986.90   31.40
   1  -3  -8 1005.80   32.00
  -1  -3   8 1016.20   30.90
   1   3   8 1066.19   29.40
   3  -1   8 1013.90   29.90
  -3  -1  -8 1012.40   35.60
  -1  -3   8  995.10   30.80
  -1  -3   8 1044.10   30.00
   3  -1   8  984.70   29.30
  -2   3   8  976.20   32.00
   2   3  -8  966.10   29.20
   3  -2  -8  987.50   27.60
   2  -3   8  975.40   27.70
  -3   2  -8  988.30   31.10
   2  -3   8  999.60   30.40
   3   2   8  980.60   27.30
   3  -2  -8  984.00   29.60
  -3  -2   8  952.50   29.10
  -3   2  -8  993.90   36.90
  -3  -2   8  971.00   30.40
   2  -3   8  972.10   29.90
  -2   3   8  967.00   29.30
  -2   3   8  943.11   29.50
   3   2   8  997.10   31.10
   3   2   8  944.61   29.20
  -2  -3   8  964.30   29.90
   2   3   8  997.90   27.70
   3  -2   8  988.30   30.50
   3  -2   8  976.60   28.30
   2  -3  -8  940.31   29.80
   2   3   8  964.10   29.50
  -2  -3   8  978.90   30.30
   2   3   8  978.10   35.70
  -3  -2  -8  970.60   34.50
   3   2  -8  987.50   29.80
  -3   2   8  961.30   29.80
  -2  -3   8  958.30   29.10
   3   2  -8 1013.50   28.50
   2  -3  -8  994.00   29.50
  -3   2   8  943.51   29.70
   3  -3  -8 1220.38   35.30
  -3   3  -8 1280.17   39.50
   3   3   8 1245.88   36.70
  -3  -3   8 1266.97   36.00
  -3   3  -8 1258.77   44.30
   3   3  -8 1301.77   36.00
   3   3   8 1290.97   34.20
  -3  -3   8 1317.77   38.00
  -3   3   8 1249.97   36.90
  -3  -3   8 1260.47   36.80
   3   3   8 1266.37   43.60
  -3   3  -8 1292.97   38.10
  -3   3   8 1277.87   37.30
   3  -3   8 1294.87   35.20
   3  -3  -8 1237.18   35.90
   3   3  -8 1253.87   36.30
   3  -3   8 1267.47   37.70
   0  -4   8  203.98   10.90
  -4   0  -8  235.08   18.60
   0  -4  -8  214.58   15.10
   0  -4   8  220.08   12.60
   0   4   8  242.18   20.70
   4   0  -8  240.28   13.30
   0   4  -8  231.48   12.10
   0   4   8  231.88   10.90
  -4   0  -8  266.37   13.60
  -4   0   8  245.88   13.10
  -4   0   8  248.48   10.80
  -4   0  -8  225.58   14.50
   0   4   8  223.08   12.00
   0  -4   8  242.08   12.80
   4   0   8  205.98   11.00
   4   0   8  225.18   13.60
   4   0  -8  238.28    9.40
   0  -4   8  208.28   12.80
   4   0  -8  250.57   15.00
   0  -4  -8  237.08   14.50
  -1   4   8  274.77   13.10
  -4  -1   8  282.97   11.90
   1  -4   8  286.97   11.40
  -1  -4  -8  297.97   16.20
   4   1   8  292.37   15.50
  -1   4   8  311.07   18.30
  -4   1  -8  272.17   14.90
   1   4  -8  287.97   12.50
  -1  -4  -8  299.07   17.30
   4  -1  -8  277.37   10.20
  -4  -1   8  297.67   14.60
   1  -4   8  289.07   14.10
   4  -1  -8  292.97   13.90
   1  -4   8  301.17   14.10
   4   1   8  278.07   12.80
   4   1   8  295.87   21.00
  -4   1  -8  313.87   21.80
   1   4  -8  294.47   13.40
  -4   1  -8  293.07   15.50
   1  -4   8  280.87   14.70
  -1   4   8  284.67   12.50
  -4   1   8  277.57   13.80
   1   4   8  303.77   12.00
   4  -1   8  314.37   14.80
  -4   1   8  285.47   11.90
   4   1  -8  275.97   14.10
  -1  -4   8  282.77   13.60
   1   4   8  264.67   12.90
   4  -1   8  281.17   14.40
   4   1  -8  293.17   11.20
   1  -4  -8  272.47   15.40
  -4  -1  -8  273.27   20.20
  -1  -4   8  295.77   14.00
   1  -4  -8  255.97   14.00
  -1   4  -8  306.17   14.10
   1   4   8  316.27   19.50
  -4  -2   8  401.16   15.50
   4  -2  -8  394.36   14.80
  -4   2  -8  397.36   18.00
  -2  -4  -8  413.46   20.30
   4   2   8  388.66   24.10
   2  -4   8  387.86   17.00
  -2   4   8  425.46   20.20
  -2   4   8  407.46   16.10
  -4   2  -8  433.86   18.40
  -2   4   8  402.76   16.30
   4   2   8  387.36   15.70
   2  -4   8  400.16   13.90
  -4  -2   8  403.46   16.90
   2  -4   8  402.96   17.40
   2   4  -8  405.86   16.00
   4  -2  -8  386.26   14.30
   4   2   8  410.16   18.60
  -4   2  -8  395.16   24.30
   4  -2  -8  405.36   12.90
  -4  -2   8  413.66   15.10
  -2  -4  -8  393.36   19.40
  -4   2   8  393.06   16.40
  -4  -2  -8  431.76   23.30
   4  -2   8  391.56   17.00
   4  -2   8  416.66   14.90
   2  -4  -8  333.87   15.60
  -4   2   8  381.66   17.10
   2   4   8  414.36   14.10
  -2   4  -8  423.56   17.30
   2  -4  -8  376.26   16.50
   4   2  -8  407.16   14.50
  -2  -4   8  404.86   16.50
  -2  -4   8  395.46   15.70
  -2  -4   8  401.06   16.80
   2   4   8  363.76   25.70
   4   2  -8  412.36   16.50
   2   4   8  388.46   15.80
  -3   4   8  758.52   24.90
   4   3   8  777.72   32.40
  -3   4   8  758.02   24.70
  -4   3  -8  771.32   27.00
  -4  -3   8  756.92   25.90
  -4  -3   8  755.52   24.40
  -4  -3   8  750.82   23.70
   3   4  -8  776.32   24.30
   3  -4   8  778.22   25.80
   4  -3  -8  755.92   22.60
   3   4  -8  733.03   23.80
  -3  -4  -8  780.12   29.40
  -4   3  -8  762.92   32.60
  -3   4   8  772.82   27.10
  -3  -4  -8  760.12   28.00
   4  -3  -8  739.63   21.60
   3  -4   8  794.32   22.60
  -4   3  -8  786.82   26.00
   4   3   8  733.63   24.40
   4  -3  -8  700.83   21.80
  -4   3   8  756.72   25.70
  -4  -3  -8  791.52   30.70
  -4   3   8  757.12   25.20
   4  -3   8  749.13   25.80
   3   4   8  746.03   24.60
   3   4   8  766.92   21.80
   3  -4  -8  727.13   23.10
  -3  -4   8  760.02   24.50
   4   3  -8  776.62   23.80
   3   4   8  757.72   31.00
   4   3  -8  732.03   24.50
   4  -3   8  767.62   23.10
   3  -4  -8  718.93   23.70
  -3   4  -8  772.72   28.00
  -3   4  -8  750.22   25.70
  -3  -4   8  761.62   25.00
  -4   4   8  338.57   16.10
  -4   4   8  330.77   15.30
  -4  -4   8  324.87   15.90
  -4  -4  -8  383.36   21.30
   4  -4   8  324.87   16.30
   4   4   8  364.76   23.10
   4   4   8  349.37   14.80
   4   4  -8  380.86   16.50
  -4   4  -8  320.87   24.50
   4  -4  -8  312.27   12.30
  -4  -4  -8  331.17   19.40
   4  -4  -8  340.07   12.90
  -4  -4   8  343.07   15.10
  -4   4  -8  329.97   15.70
  -4   4  -8  356.66   17.70
   4  -4   8  350.06   13.20
   4   4  -8  342.47   14.50
   0   5   8  123.69    8.80
   5   0   8  134.79   12.20
   0   5  -8  131.29   10.10
  -5   0   8  117.39    8.30
  -5   0  -8  144.89   19.00
   0   5   8  136.99   10.10
   0  -5   8  115.09   10.80
   5   0  -8  113.89   11.50
   5   0   8  119.59    9.30
   0  -5  -8  127.39   11.70
  -5   0   8  136.79   11.10
  -5   0  -8  114.19   10.20
  -5   0  -8  128.89   11.80
   5   0  -8  118.39   12.00
   0   5   8  138.59   15.90
   5   0  -8  127.09    6.80
   0  -5   8  135.19   10.80
   0  -5   8  110.69   10.20
   0   5  -8  124.99    8.60
   0  -5  -8  121.99   13.40
   1   5  -8  152.78    9.20
   5   1   8  159.28   10.60
  -1   5   8  162.98   11.00
  -5  -1   8  159.68    9.20
  -1  -5  -8  174.58   14.30
  -5   1  -8  166.58   12.40
   5   1   8  162.58   13.60
   5   1   8  159.38   19.20
  -1   5   8  175.78   20.20
   5  -1  -8  163.18    6.70
   1  -5   8  173.98   11.90
   5  -1  -8  151.88    9.40
   5  -1  -8  155.38   12.40
   1  -5   8  179.58   12.60
   1   5  -8  164.38   10.70
  -1   5   8  191.98   13.50
  -5   1  -8  170.08   12.00
  -1  -5  -8  137.79   13.00
  -5  -1   8  152.78   11.80
  -5   1  -8  191.58   20.30
   5  -1   8  173.78    9.90
   5   1  -8  145.29    8.30
   1  -5  -8  180.48   11.50
   5  -1   8  156.78   12.40
   1  -5  -8  160.68   13.00
   5   1  -8  169.98   12.10
  -1  -5   8  170.88   11.60
   1   5   8  174.98   10.80
  -5  -1  -8  178.78   19.70
   1   5   8  174.68   10.10
  -1   5  -8  169.48   10.80
   1   5   8  164.68   17.60
  -5  -1  -8  150.88   10.20
  -5   1   8  148.39   11.40
  -1  -5   8  156.68   11.20
  -1  -5   8  163.28   10.90
  -5  -2   8  298.97   13.10
   2  -5   8  300.47   14.70
   5   2   8  305.27   14.80
   5   2   8  291.47   23.20
  -5   2  -8  326.17   23.60
   5  -2  -8  292.97   15.70
   2  -5   8  287.07   15.50
   2   5  -8  295.17   12.60
  -2  -5  -8  301.57   17.50
  -5   2  -8  304.97   15.60
  -5  -2   8  296.47   12.90
   2  -5   8  297.27   11.40
  -2   5   8  306.07   13.70
  -2   5   8  287.07   13.80
  -5  -2   8  289.57   15.40
   5  -2  -8  254.17    8.50
  -5   2  -8  337.87   16.50
  -2   5   8  284.27   18.50
   5   2   8  296.77   17.10
  -2  -5  -8  328.77   18.40
   2   5   8  311.27   14.30
   2  -5  -8  306.67   13.70
  -5  -2  -8  302.27   21.70
  -2   5  -8  315.57   18.10
  -5  -2  -8  302.47   12.00
  -5   2   8  284.77   14.50
  -2  -5   8  277.27   13.90
   2  -5  -8  301.87   14.90
   2   5   8  305.27   20.20
  -2  -5   8  299.27   14.90
   5  -2   8  332.77   15.80
  -2  -5   8  298.17   14.80
   2   5   8  307.97   12.00
  -2   5  -8  321.87   15.10
   5   2  -8  314.47   15.10
   3   5  -8  586.94   19.90
  -5   3  -8  603.34   30.00
  -5  -3   8  586.54   20.10
  -5  -3   8  607.64   20.60
  -5   3  -8  615.64   23.10
  -3   5   8  582.14   21.20
   3  -5   8  598.24   22.10
   5   3   8  580.34   21.00
  -3  -5  -8  605.44   24.80
   3   5  -8  599.44   22.30
  -3   5   8  614.64   21.50
  -5  -3   8  553.94   21.90
   3  -5   8  627.44   18.40
   5   3   8  585.94   28.00
   3  -5   8  613.34   23.40
  -3  -5  -8  623.14   25.60
  -5   3  -8  592.34   23.00
  -3   5   8  610.84   24.60
   5   3  -8  596.84   20.10
   3   5   8  584.64   21.10
  -3  -5   8  592.84   22.10
   3  -5  -8  589.04   20.40
   3   5   8  613.54   18.20
  -3   5  -8  626.94   22.20
   5   3  -8  609.14   21.70
   3  -5  -8  574.34   19.70
  -5  -3  -8  608.74   26.70
  -3  -5   8  547.95   20.50
   5  -3   8  627.34   19.90
  -3  -5   8  598.34   21.70
   3   5   8  633.34   28.00
  -5   3   8  602.64   22.20
   5  -3   8  592.54   22.70
  -3   5  -8  591.14   24.30
  -4  -5  -8  228.38   18.70
   4   5  -8  266.67   13.40
   5  -4  -8  231.58    7.90
   4   5  -8  237.18   12.30
  -5   4  -8  239.18   14.70
  -5   4  -8  250.37   16.40
  -4  -5  -8  269.77   18.00
  -5  -4   8  232.98   13.00
  -5  -4   8  236.58   12.80
  -5  -4   8  227.78   14.40
   5   4   8  258.67   21.70
  -5   4  -8  284.77   24.40
   5  -4  -8  241.98    8.10
  -4   5   8  263.27   14.10
   4  -5   8  265.07   14.80
  -4   5   8  247.98   15.70
  -4   5   8  238.88   13.50
   4  -5   8  271.57   11.00
   5   4   8  244.98   13.00
  -5   4   8  269.67   14.10
  -4  -5   8  235.58   14.20
   4  -5  -8  248.48   11.20
  -5  -4  -8  245.18   20.10
  -4  -5   8  244.78   12.60
  -4   5  -8  249.28   16.00
   5  -4   8  242.18   14.40
   5   4  -8  238.28   13.40
   5  -4   8  266.37   11.70
   4  -5  -8  234.38   10.40
   4   5   8  237.48   12.90
   5   4  -8  230.48   12.40
   4   5   8  244.78   20.60
  -4   5  -8  265.47   15.00
  -5  -4  -8  272.27   18.10
  -4  -5   8  237.28   13.40
  -5  -5  -8  168.48   18.30
   5  -5  -8  175.58    7.80
  -5   5   8  177.78   13.50
  -5   5   8  186.88   12.80
   5   5  -8  187.98   11.70
  -5  -5   8  177.08   12.00
  -5  -5  -8  195.08   17.90
   5   5  -8  189.28   12.40
   5   5   8  195.08   11.90
  -5   5  -8  162.58   22.90
  -5  -5   8  186.88   12.10
   5  -5   8  159.08   13.30
  -5   5  -8  202.18   15.40
   5   5   8  183.78   19.10
  -5   5  -8  181.18   13.80
  -5  -5   8  195.48   13.00
   5  -5   8  195.48   10.40
  -6   0  -8  304.97   17.40
   0  -6   8  283.77   15.20
   0   6  -8  320.87   14.40
  -6   0   8  287.97   14.90
   0  -6  -8  337.87   16.00
   0   6   8  306.67   20.20
   0   6  -8  289.17   10.80
   6   0  -8  306.57   15.80
  -6   0  -8  290.77   22.90
   6   0   8  314.17   16.30
   0  -6   8  310.37   15.40
   0  -6   8  295.17   14.20
   6   0  -8  289.87   13.10
   0   6   8  294.87   14.30
   6   0  -8  269.47   10.30
   0   6   8  305.17   13.00
   0  -6  -8  273.07   19.10
   6   0   8  297.77   13.50
  -6   0  -8  280.17   13.60
  -1   6   8  181.58   17.10
  -6  -1   8  135.99   12.30
  -6   1  -8  152.68   20.70
   1   6  -8  119.89    8.20
   6   1   8  133.69   20.30
   6  -1  -8  138.49   13.00
  -6   1  -8  139.99   13.70
   6   1   8  142.59   10.20
  -1   6   8  148.19   10.70
  -6   1  -8  134.79   11.10
   1  -6   8  148.39   12.30
  -1  -6  -8  148.29   14.20
  -6  -1   8  175.28    8.90
  -1   6   8  140.49    9.90
  -1  -6  -8  154.28   13.50
   1  -6   8  157.88   11.30
   1   6  -8  160.08   10.90
   6   1   8  158.98   14.90
   6   1  -8  145.79   12.70
   1  -6  -8  148.39   13.70
  -1   6  -8  154.58   11.40
  -6  -1  -8  125.79    9.50
   6  -1   8  135.59   13.10
  -6   1   8  132.59   11.10
  -6  -1  -8  169.68   19.80
  -1  -6   8  158.68   12.20
  -1   6  -8  171.58   10.20
  -1  -6   8  151.88   11.20
   1   6   8  149.49   18.00
   6   1  -8  136.09    8.40
   1   6   8  152.08   10.50
  -1  -6   8  162.88   12.20
   1   6   8  117.69   10.00
   1  -6  -8  169.08   14.30
   6  -1   8  152.48   10.00
  -6   2  -8  164.38   21.30
  -2   6   8  179.88   17.40
  -6   2  -8  152.88   14.20
   6   2   8  186.28   22.30
  -2   6   8  165.18   11.30
  -6  -2   8  151.18   12.90
  -6  -2   8  163.18   10.70
  -6  -2   8  173.98   10.20
  -2   6   8  181.28   11.20
  -6   2  -8  186.98   13.10
   2  -6   8  159.08   12.10
   6   2   8  167.18   10.90
   2  -6   8  176.28   13.10
   6  -2  -8  183.78   13.20
   2   6  -8  156.98    9.20
  -2  -6  -8  209.98   16.70
   2   6  -8  171.48   11.90
   6   2   8  177.28   15.80
  -2  -6  -8  175.28   14.90
   2   6   8  154.58   10.90
   6   2  -8  156.58   10.00
  -2   6  -8  158.38   11.90
  -2   6  -8  164.88   15.40
  -6   2   8  161.78   12.10
  -2  -6   8  155.78   12.10
  -2  -6   8  164.88   11.80
   6   2  -8  160.48   12.80
   2   6   8  154.38   18.20
   2  -6  -8  172.08   13.00
   6  -2   8  179.68   10.20
  -6  -2  -8  134.69   17.50
   2   6   8  170.78    9.20
   6  -2   8  158.68   13.10
   2  -6  -8  170.98   11.60
  -2  -6   8  153.38   11.20
  -6   3  -8  427.36   18.50
   6   3   8  403.16   17.10
   6  -3  -8  415.46   19.20
  -3  -6  -8  427.56   21.70
   3  -6   8  408.26   18.10
   6   3   8  427.36   26.90
  -6  -3   8  423.46   16.50
  -6   3  -8  416.76   19.20
  -3   6   8  392.26   17.30
   3  -6   8  404.36   18.90
   3   6  -8  436.56   21.70
   3   6  -8  437.86   17.40
  -6   3  -8  443.76   27.10
  -3   6   8  454.75   21.20
  -6  -3   8  433.56   16.30
  -6  -3   8  420.86   18.40
  -3  -6  -8  402.26   20.20
  -3   6   8  413.56   17.00
  -3  -6   8  399.86   17.00
  -3  -6   8  409.66   18.20
  -6  -3  -8  422.66   23.00
   6   3  -8  423.66   18.10
   6  -3   8  420.26   15.90
   3  -6  -8  434.46   16.90
   3   6   8  408.56   17.20
  -3   6  -8  440.26   20.80
   6   3  -8  403.26   16.40
  -3   6  -8  395.16   17.80
   3   6   8  444.06   24.40
  -6   3   8  421.56   18.50
   3   6   8  415.76   14.40
   6  -3   8  418.86   18.90
  -3  -6   8  417.26   18.00
   3  -6  -8  396.26   16.00
  -6  -3  -8  371.66   22.90
  -6   4  -8  203.88   23.70
  -4   6   8  177.88   16.30
  -4   6   8  198.28   13.20
   6  -4  -8  166.68   14.10
  -6   4  -8  207.08   15.10
  -6  -4   8  188.18   12.00
  -6   4  -8  200.68   14.70
   6   4   8  155.58   21.70
  -4  -6  -8  198.78   18.20
  -4   6   8  205.18   12.50
   4  -6   8  190.78   14.90
   4   6  -8  188.58   11.30
  -4  -6  -8  198.78   16.30
   4  -6   8  190.08   13.60
  -6  -4   8  188.18   11.80
  -6  -4   8  183.78   13.50
   6   4   8  206.58   12.10
   4   6  -8  189.48   12.50
  -4  -6   8  195.48   12.30
  -6  -4  -8  200.98   20.20
   4   6   8  211.88   20.80
   6   4  -8  199.38   12.30
   6  -4   8  185.78   13.90
  -6   4   8  177.48   13.00
   4  -6  -8  200.58   10.50
   4   6   8  192.78   12.00
   6   4  -8  184.28   12.80
   4  -6  -8  189.78    9.80
  -6  -4  -8  192.68   17.90
   6  -4   8  200.68   11.10
  -4   6  -8  194.58   13.50
  -4  -6   8  210.88   13.10
  -4   6  -8  192.48   15.30
  -4  -6   8  189.28   13.50
   6   5   8  126.29   11.00
   5   6  -8  118.89   12.20
   5  -6   8  118.99    9.00
  -5   6   8  140.09   14.00
  -6  -5   8  118.29   11.20
   5  -6   8  101.19   12.40
  -6   5  -8   90.39   17.20
   5   6  -8  102.19   10.50
  -6  -5   8  119.49   10.90
  -6   5  -8  101.89   13.60
  -5   6   8  122.09   12.70
  -6   5  -8  124.79   12.70
   6  -5  -8  125.29   13.70
  -5   6   8  123.09   11.10
  -5  -6  -8  120.29   16.00
  -5  -6  -8   96.49   17.40
   6   5   8   77.99   15.00
  -6  -5   8   93.89   11.50
  -6   5   8  118.29   11.50
   6   5  -8  111.09   11.60
   6   5  -8  114.69   11.30
  -5   6  -8  106.99   12.30
   5   6   8  123.29   10.80
  -6  -5  -8  113.39   16.60
   5  -6  -8  126.59    7.40
  -5  -6   8  126.29   11.60
   6  -5   8  115.59   12.60
  -5   6  -8  106.19   13.80
   5  -6  -8  117.99    7.60
   6  -5   8  131.89   10.30
  -6  -5  -8  148.09   18.80
   5   6   8  110.89   16.00
  -5  -6   8   99.59   11.70
  -5  -6   8  117.69   11.50
   6   6   8  116.39   10.80
   6   6  -8   97.09   11.50
  -6  -6   8  136.49   12.10
  -6   6  -8  147.89   24.80
  -6  -6  -8  133.89   16.60
   6  -6   8  128.69   13.20
   6   6   8  142.39   21.10
  -6   6  -8  125.59   14.00
   6   6  -8  116.89   13.00
   6  -6   8  132.49   10.00
  -6  -6   8   97.79   12.60
  -6   6   8  123.89   11.70
  -6   6  -8  121.79   13.20
  -6  -6  -8  115.29   15.50
  -6  -6   8  118.29   12.10
   0   7  -8  264.37   14.00
   0   7   8  269.97   20.80
   7   0   8  261.67   13.10
   0  -7   8  236.18   13.60
   7   0  -8  235.48   15.40
   0  -7   8  257.97   14.70
  -7   0  -8  264.97   17.30
  -7   0  -8  241.88   12.70
  -7   0   8  245.68   14.70
   0   7   8  246.78   15.30
   7   0   8  268.97   16.90
   0   7   8  251.97   13.50
   0  -7  -8  284.27   15.70
  -7   0  -8  244.38   22.90
   1  -7   8   93.69   10.50
  -7   1  -8  114.79   13.30
   7   1   8   94.49   14.70
  -7   1  -8   94.39   16.60
   7   1   8   99.79    9.60
  -1  -7  -8  122.39   13.20
   1  -7   8  100.99   10.80
  -1   7   8  109.19   17.10
  -7   1  -8  100.39   11.30
  -7  -1   8  105.79   11.60
  -1   7   8   98.79    9.00
  -1   7   8  108.29    9.60
   7  -1  -8  107.99   13.30
  -1  -7  -8  108.29   13.90
   7   1   8   89.09   14.70
   1   7  -8   97.89   10.10
  -7  -1  -8   83.69    8.40
  -7   1   8   80.69   11.00
   7   1  -8   88.49   12.10
  -1  -7   8  103.69   11.00
   1  -7  -8  108.79   13.20
   1   7   8  101.79    9.60
  -1   7  -8   93.19   14.60
  -1   7  -8  105.29   10.70
   7  -1   8   96.99    9.60
   7  -1   8   86.89   12.40
   1  -7  -8  102.99   11.60
   1   7   8   97.49    8.80
   1   7   8   96.19   13.70
  -1  -7   8   87.69   11.70
  -7  -1  -8   91.49   14.80
   7   1  -8   95.29    8.50
  -1  -7   8  107.89   10.10
   7   2   8  106.39   10.10
  -2   7   8  112.19   10.30
  -2  -7  -8  122.29   14.10
   2   7  -8  115.19   11.00
  -2  -7  -8  123.99   14.80
   7   2   8   85.69   16.20
   2  -7   8  123.19   12.40
  -7  -2   8  114.39    9.70
  -7  -2   8  109.49   10.00
  -7  -2   8  126.89   12.20
  -2   7   8  128.59   17.50
  -2   7   8  121.09    9.80
   2  -7   8  114.29   11.50
  -7   2  -8  126.39   22.00
   7  -2  -8   98.69   12.20
  -7   2  -8  140.39   21.70
  -7   2  -8  119.09   13.80
   2   7  -8   91.19    7.60
   2   7   8  131.19   18.90
   2  -7  -8  127.79   11.10
  -2  -7   8  120.49   10.20
   7  -2   8  135.79   12.80
  -2   7  -8   99.69   14.80
  -7  -2  -8  121.69   16.50
   7  -2   8  113.89   10.50
  -7   2   8  110.99   11.50
   2   7   8  114.49    9.10
   7   2  -8  140.89   12.70
   7   2  -8  100.39   10.20
   2  -7  -8  137.69   12.40
  -2  -7   8   96.39   11.70
   2   7   8  137.49   10.70
  -2  -7   8  128.39   11.60
  -2   7  -8  124.39   11.30
  -3  -7  -8  306.87   18.20
   3  -7   8  322.77   16.80
  -7   3  -8  300.77   17.00
  -7   3  -8  282.67   24.60
   7   3   8  363.56   26.50
   3  -7   8  291.87   16.00
  -7  -3   8  278.67   14.10
  -3  -7  -8  301.27   20.10
   3   7  -8  290.77   12.10
   7  -3  -8  295.87   16.70
   3   7  -8  323.77   15.40
  -3   7   8  280.17   14.90
  -3   7   8  307.57   27.00
  -3   7   8  297.57   14.50
  -7   3  -8  308.67   16.70
  -7  -3   8  283.57   16.40
   7   3   8  292.57   14.30
   7  -3   8  288.87   13.80
   3  -7  -8  297.37   14.80
  -3   7  -8  307.47   15.60
   3  -7  -8  308.27   13.80
  -7   3   8  284.27   16.20
  -3  -7   8  316.17   15.50
   3   7   8  290.07   22.50
  -7  -3  -8  286.47   21.60
   3   7   8  293.37   12.00
   7   3  -8  279.97   15.10
   7   3  -8  297.57   16.00
  -3  -7   8  279.87   15.90
  -3   7  -8  318.37   18.30
  -7  -3  -8  317.07   21.50
   7  -3   8  323.17   16.80
   3   7   8  291.97   14.60
  -3  -7   8  288.17   14.80
  -4  -7  -8  179.58   16.90
   4   7  -8  181.08   10.80
   7   4   8  181.38   12.30
  -4   7   8  221.88   17.90
   4  -7   8  189.68   14.20
  -4   7   8  183.98   12.30
   7   4   8  155.48   23.40
   4  -7   8  154.48   14.40
  -7  -4   8  194.48   12.50
  -4   7   8  176.58   12.80
  -4  -7  -8  168.68   17.40
  -7   4  -8  190.28   15.10
   7  -4  -8  164.98   15.00
   4   7  -8  174.78   13.50
  -7   4  -8  218.98   15.20
  -7   4  -8  165.58   24.10
  -7  -4   8  170.98   14.00
  -7  -4   8  176.08   12.30
   4  -7  -8  191.98   11.20
  -4   7  -8  193.88   13.40
  -4  -7   8  199.28   13.70
   4  -7  -8  168.08   11.20
   7   4  -8  193.78   13.30
  -4   7  -8  201.38   16.10
  -7   4   8  176.18   13.30
   4   7   8  201.58   12.60
   7  -4   8  189.28   11.50
  -4  -7   8  160.08   13.50
  -4  -7   8  202.08   13.00
   7   4  -8  182.68   14.90
  -7  -4  -8  203.68   21.40
   7  -4   8  187.18   14.10
  -7  -4  -8  197.48   19.00
   4   7   8  185.38   20.50
   7  -5  -8   98.79   13.00
   5   7  -8  111.49   12.80
  -7  -5   8   90.59   12.70
   7   5   8   78.39   10.50
  -7   5  -8  104.39   13.70
   5  -7   8   97.79   12.90
   5   7  -8   81.79    9.60
  -7   5  -8  117.89   19.10
  -5   7   8  108.19   15.40
  -7  -5   8  113.19   11.40
  -5  -7  -8  112.59   17.30
   7   5   8  121.29   17.60
  -7   5  -8   85.69   12.50
  -5   7   8  100.49   12.50
  -5  -7  -8  118.39   16.00
   5  -7   8   88.19   12.60
  -7  -5   8   67.49   11.30
  -5   7   8   93.69   10.90
  -5  -7   8   89.79   11.80
   5   7   8  110.99   15.90
   5  -7  -8  114.19    8.80
   7  -5   8   95.79   11.70
  -7  -5  -8   83.19   14.80
  -7  -5  -8   89.89   15.00
   7  -5   8  103.19   12.60
  -5   7  -8   96.29   13.80
   5  -7  -8  110.99    8.30
  -5   7  -8   83.79   11.80
   7   5  -8  110.89   13.10
  -5  -7   8   88.29   11.40
   7   5  -8  100.89   11.70
  -7   5   8   99.39   12.20
  -5  -7   8   81.29   12.10
   5   7   8   95.29   10.60
  -7   6  -8   74.59   13.20
   6  -7   8   75.79   11.00
  -7  -6   8   88.79   12.10
  -7   6  -8   81.29   19.70
   6   7  -8   69.39   10.50
   7   6   8   40.70   15.10
  -6  -7  -8   69.99   13.70
  -7  -6   8   82.49    9.90
  -7   6  -8   92.29   13.70
  -6  -7  -8   82.29   13.40
   7   6   8   76.89   10.40
   7  -6  -8   79.59   11.40
  -6   7   8   68.39   11.30
   6   7  -8   67.59    8.50
   7   6  -8   80.09   11.10
   7   6  -8   87.59   13.70
  -6  -7   8   85.29   12.60
  -6  -7   8   89.19   11.40
  -7  -6  -8   90.49   14.10
  -7  -6  -8   73.89   14.60
   6   7   8   66.09    9.90
  -6   7  -8   84.59   13.60
   7  -6   8   78.69   10.20
   7  -6   8   70.89   10.10
  -7   6   8   85.29   11.70
  -6  -7   8   92.59   12.00
   6  -7  -8   81.69    7.60
   6   7   8   98.49   16.40
  -6   7  -8   68.49   10.20
   7   7  -8   69.69    9.10
   7   7   8   73.59   10.60
  -7  -7   8   92.79   13.00
  -7   7  -8  106.29   20.70
  -7  -7   8   63.39   10.10
  -7  -7  -8   96.59   14.90
   7  -7  -8   71.79   11.30
   7  -7   8   86.09   13.50
   7   7  -8   73.39   11.40
  -7   7  -8   82.09   12.60
  -7  -7   8   79.99   10.60
  -7   7   8   73.09   10.50
  -7   7  -8  117.89   14.00
  -7  -7  -8   69.89   18.80
   7   7   8   80.29   16.90
  -8   0  -8   56.09   14.30
  -8   0  -8   59.49   10.10
   0   8  -8   59.59   11.60
  -8   0  -8   84.49    9.90
   0  -8   8   71.39   11.30
   8   0  -8   70.99   10.50
   8   0   8   65.09    8.40
   0   8  -8   84.29   10.60
  -8   0   8   80.89   11.90
   0  -8   8   73.19   10.00
   0  -8  -8   77.49   10.70
   0   8   8  115.29   19.00
   0   8   8   63.59    9.40
   0  -8  -8   88.99   14.30
   8   0   8   77.69   11.30
   0   8   8   80.19    8.60
  -1   8   8   34.70    6.70
  -8   1  -8   28.00    7.90
  -8   1  -8   35.20    9.50
  -8  -1   8   38.70    9.30
   1   8  -8   39.00    7.50
  -1   8   8   36.40    7.20
   8   1   8   28.90   14.30
   8   1   8   50.69   10.80
   1  -8   8   35.40    7.80
  -8   1  -8   24.30   14.00
   8  -1  -8   33.20    9.90
  -1   8   8   38.70   12.00
  -1  -8  -8   58.19   11.10
  -1  -8  -8   59.39   10.10
   8   1   8   44.10    7.90
   1  -8   8   26.90    7.00
   1   8   8   52.59    7.00
   1   8   8   42.20    8.00
   8   1  -8   44.40    6.30
   8  -1   8   18.50    6.70
   1  -8  -8   48.90    9.30
   1  -8  -8   37.60    8.00
  -8  -1  -8   36.70   13.70
   8   1  -8   38.50    9.60
  -8   1   8   33.60    8.90
   1   8   8   50.39   12.30
  -1   8  -8   47.90    8.00
   8  -1   8   32.20    8.70
  -1   8  -8   28.70   10.60
  -1  -8   8   36.80    8.00
  -1  -8   8   46.00    8.00
   2   8  -8  144.79   12.20
  -2   8   8  102.09   17.50
   2  -8   8  101.79   12.10
  -2   8   8  116.39   10.30
  -2  -8  -8  108.49   15.50
  -8  -2   8  112.59   10.10
   8   2   8   68.19   15.90
   2  -8   8  103.09   11.70
  -2  -8  -8  124.29   14.70
  -8  -2   8  100.59   11.90
  -8   2  -8  118.79   20.10
  -8   2  -8  100.39   11.90
   8  -2  -8  104.09   13.10
  -2   8   8  116.09   10.10
  -8   2  -8   91.29   14.10
   8   2   8  106.89   10.30
  -2  -8   8   92.29   12.40
   2  -8  -8  112.89   11.60
  -8   2   8  103.29   12.00
   2   8   8  119.19   10.50
  -2   8  -8  105.09   11.40
   8  -2   8  112.79   13.50
   8   2  -8   91.89   12.50
  -2  -8   8  125.69   11.60
   8   2  -8   93.39   11.30
  -8  -2  -8   97.29   15.30
   2  -8  -8   96.29   12.10
  -2   8  -8  111.59   14.60
   2   8   8  110.39   19.30
  -2  -8   8  112.99   12.00
   8  -2   8  107.59   10.80
  -8  -3   8  134.59   13.30
  -8   3  -8  161.58   14.50
  -3  -8  -8  146.89   16.60
   8   3   8  158.48   11.80
   8  -3  -8  151.68   14.40
   3  -8   8  168.08   13.40
   3  -8   8  156.98   14.10
   3   8  -8  164.28   13.40
   8   3   8  205.98   25.90
  -8   3  -8  151.88   15.00
  -3   8   8  145.69   11.30
  -8   3  -8  181.08   22.00
  -3  -8  -8  149.69   15.50
   3   8  -8  170.98   13.20
  -8  -3   8  173.18   11.80
  -3   8   8  161.58   11.90
  -3   8   8  193.48   19.80
   8   3  -8  155.38   13.70
   8  -3   8  145.79   14.60
  -8   3   8  145.09   13.60
   3   8   8  144.29   11.90
  -3   8  -8  173.78   15.70
  -3  -8   8  137.79   12.40
   3  -8  -8  161.18   12.00
  -8  -3  -8  133.09   18.80
  -3  -8   8  145.69   12.30
  -8  -3  -8  156.58   21.80
   8   3  -8  151.38   14.00
   8  -3   8  145.29   11.80
   3   8   8  160.58   21.00
  -3   8  -8  180.88   13.00
   3  -8  -8  172.28   11.40
  -3  -8   8  140.59   13.30
   3   8   8  169.38    9.70
   4   8  -8  116.89   12.40
  -8  -4   8   92.69   11.80
   8  -4  -8  109.39   13.50
  -4   8   8   82.39   11.10
   4   8  -8   81.69    8.70
  -8   4  -8  111.29   14.10
  -8   4  -8   99.59   14.00
   4  -8   8   97.19   12.80
  -8   4  -8   85.49   17.00
  -4  -8  -8  111.49   16.80
   4  -8   8  117.19   12.70
  -4   8   8  100.59   10.50
   8   4   8   80.99   17.50
  -8  -4   8  108.59   11.50
  -4  -8  -8  119.79   15.20
  -8  -4   8   78.19   11.90
   8   4   8   87.29   10.20
  -4  -8   8  119.39   12.40
   8   4  -8   89.39   15.60
  -4  -8   8  111.29   11.80
   4  -8  -8  122.49   10.20
  -4  -8   8  112.79   12.10
  -8  -4  -8  106.09   15.70
  -4   8  -8  106.69   11.00
  -4   8  -8  103.09   14.60
   4   8   8   93.89   16.00
   4   8   8  112.89   10.90
   8  -4   8   98.29   11.40
   8   4  -8   95.89   12.40
   4  -8  -8   92.59   11.30
  -8   4   8   99.79   12.50
   8  -4   8   94.89   13.40
  -8  -4  -8  105.59   16.50
  -5  -8  -8   95.99   16.00
   8   5   8  189.48   23.60
  -8   5  -8  110.79   14.10
  -5   8   8  124.59   11.90
  -8  -5   8   88.69   12.40
   8   5   8  123.79   11.30
   5   8  -8  104.29   12.90
  -8   5  -8   91.89   18.10
   8  -5  -8  125.79   13.80
   5  -8   8  110.39   13.30
  -8  -5   8  114.59   12.40
  -8   5  -8   99.69   14.10
  -5   8   8  122.99   19.90
  -5   8   8  107.59   13.00
   5  -8   8   89.99   14.60
  -8  -5   8  109.09   12.20
  -5  -8  -8   93.49   13.80
  -8  -5  -8  101.99   15.70
   8  -5   8  102.89   13.90
  -5  -8   8  109.19   12.10
  -5  -8   8   85.39   12.40
  -8  -5  -8  101.09   15.00
   5  -8  -8  123.29   10.40
   8   5  -8   93.79   12.30
  -8   5   8   98.79   12.40
   5  -8  -8  120.49    9.70
  -5  -8   8  117.59   12.00
  -5   8  -8   94.19   11.30
   8  -5   8  103.49   11.70
   5   8   8  114.19   11.20
   5   8   8  107.79   17.20
  -5   8  -8  105.89   14.40
   8   5  -8  104.49   14.80
   6  -8   8    8.40   13.80
  -6  -8  -8   16.50   11.70
  -8   6  -8   16.00   17.00
  -8  -6   8   38.20    8.30
  -6  -8  -8   19.70   17.00
   6   8  -8   23.00    9.40
  -8   6  -8   30.50   10.50
   8   6   8   26.60    7.80
  -6   8   8   23.60    8.30
  -8  -6   8   38.20    9.40
   8   6   8   36.00   15.10
   6  -8   8   25.40    8.80
   8  -6  -8   31.10   10.50
  -8   6  -8   21.70    9.90
   6   8  -8   23.40    7.10
  -8  -6   8   27.20    9.30
  -6   8  -8   42.20    9.00
  -6  -8   8   24.50    9.20
   8   6  -8   31.20   10.80
  -6   8  -8   26.70    9.90
  -6  -8   8   44.10    9.30
  -6  -8   8   20.30    8.30
   8   6  -8   36.50    8.30
   6   8   8   31.00   14.80
  -8   6   8   19.50    8.30
  -8  -6  -8   32.70   11.60
   8  -6   8   27.90    8.80
   6   8   8   25.60    8.00
   6  -8  -8   28.40    6.20
   8   7   8   12.30    7.30
  -7  -8  -8   16.00   11.70
  -8  -7   8   25.40    9.20
  -7   8   8    9.00    8.10
   7   8  -8   29.20   10.70
  -8  -7   8   21.90    9.50
  -8  -7   8   26.30    8.80
  -8   7  -8   23.40   10.00
   7   8  -8    8.30    7.40
   7   8   8   14.20    7.50
  -7  -8   8   16.20    8.50
  -7  -8   8   23.00    8.80
  -8  -7  -8   -3.20   11.80
  -7  -8   8   28.50    9.00
   7  -8  -8   15.60    9.70
   8   7  -8    7.50    7.90
   8   7  -8   14.30   11.30
  -7   8  -8    6.20    9.00
   8   8  -8   16.00   11.90
  -8   8   8   17.60    8.60
  -8  -8   8   28.00    9.60
  -8  -8   8    5.80    9.30
  -8  -8  -8   12.20   11.70
   8   8   8   22.20    7.60
  -8   8  -8   16.80    9.70
  -8  -8   8   12.90    9.60
   8  -8  -8   20.60   10.50
   8  -8   8   11.50    9.80
   8   8  -8   19.90    8.10
   0  -9   8    5.90    7.10
   9   0   8   19.50    7.00
   0   9  -8   16.30    9.90
  -9   0  -8   22.00   15.60
   0  -9  -8   16.20    8.50
  -9   0  -8    7.00    8.10
   0  -9   8   15.10    6.40
  -9   0  -8    8.90   10.20
  -9   0   8    9.70    8.20
   0  -9  -8    5.70    9.00
   0   9   8   18.90    6.30
   9   0   8    9.40   10.40
   0   9  -8    5.80    6.60
   9   0  -8    4.40    9.10
   0   9   8    9.80    6.60
   0   9   8   20.20   13.50
  -1  -9  -8   15.90    8.90
  -1   9   8    8.90    5.90
  -9   1  -8   17.60    8.20
  -9   1  -8   -3.80   14.50
   9  -1  -8  -17.80    8.40
   1   9  -8   12.10    9.20
  -1   9   8    5.90    5.90
   1  -9   8    5.70    7.50
  -1  -9  -8    8.10    9.50
  -1   9   8   14.50   12.60
   9   1   8   12.20   10.30
   9   1   8   -1.20    6.00
   1  -9   8    9.30    6.50
   1   9  -8    0.40    6.40
  -9   1  -8    4.70    9.30
  -9  -1   8   -9.10    7.20
  -9  -1  -8   11.90   14.10
  -1   9  -8    1.50    6.70
   1   9   8   15.80    6.30
  -9   1   8   -3.50    7.90
  -1  -9   8    5.50    6.60
   9  -1   8   -5.60   10.00
   9   1  -8    9.60    9.20
   1   9   8   22.90   13.30
  -1   9  -8    7.60    9.50
  -1  -9   8    9.20    7.20
   1  -9  -8    8.60    8.30
   1   9   8    3.80    5.80
   9  -1   8   -1.00    6.60
   1  -9  -8    9.50    7.90
   2   9  -8    4.20    6.60
  -2  -9  -8   20.30    9.50
  -9  -2   8    9.90    8.20
  -9   2  -8   38.70   17.30
  -2   9   8    0.00   12.60
  -2  -9  -8   -7.50    9.20
   2  -9   8   17.70    7.50
   2  -9   8    0.60    7.80
  -2   9   8    9.30    6.90
  -9   2  -8   20.10    8.50
  -9  -2   8    7.40    6.40
   9  -2  -8   -0.30    9.20
   9   2   8   -1.50   14.70
  -9   2  -8   25.10   10.20
   9   2   8   10.00    6.80
  -2   9   8   13.10    6.40
  -2  -9   8   20.30    7.70
  -2  -9   8    6.10    6.90
  -9  -2  -8    0.50   14.10
   9   2  -8    8.80    8.90
   9  -2   8    7.00    8.50
  -2   9  -8   20.10    6.90
  -9   2   8   16.50    8.60
   9   2  -8   12.20    8.00
   2  -9  -8   14.80    7.50
  -2   9  -8   22.10    9.60
   2   9   8   18.40    6.30
   2   9   8   11.50    6.10
   9  -2   8   13.70    7.30
   2   9   8   40.00   13.70
   2  -9  -8   11.90    7.50
  -9  -3   8    5.80    8.80
  -3   9   8    4.00    6.00
   9  -3  -8   22.10   10.10
  -3  -9  -8    0.10   10.10
  -9   3  -8    3.70    8.70
   3  -9   8   14.70    8.30
   3  -9   8    8.90    7.40
   3   9  -8   10.40    7.50
  -3   9   8    5.60   14.00
  -9   3  -8   14.40    9.50
  -9  -3   8   24.50    9.90
  -3  -9  -8    0.20    8.90
   9   3   8   16.50   15.20
  -3   9   8   13.60    6.50
  -9  -3   8    1.20    7.10
   9   3   8    1.30    6.40
  -9   3  -8   23.00   16.80
  -9   3   8   15.30    8.30
   3  -9  -8   16.60    7.20
  -3  -9   8    7.40    6.60
  -3   9  -8    5.20    6.90
  -3  -9   8   11.50    7.50
  -3   9  -8    4.00    8.60
   9  -3   8    9.80    6.90
  -9  -3  -8  -10.60   13.60
   3   9   8    5.70    6.20
   3   9   8   13.60   13.40
   3  -9  -8    5.90    6.90
  -9  -3  -8   36.80   13.10
   9  -3   8   -0.10    7.90
   9   3  -8    9.40    9.60
   9   3  -8   11.30    8.90
   4  -9   8    1.70    7.10
  -9  -4   8    1.90    8.50
  -4  -9  -8    6.20   11.00
   9   4   8   13.30    7.10
  -9  -4   8   20.90    7.70
  -4   9   8    6.90    6.50
   4   9  -8    6.60    7.60
   9  -4  -8   -0.40    9.90
  -4  -9  -8   18.60    9.90
  -9   4  -8   18.60    9.20
  -4   9   8   -2.50    6.40
  -9   4  -8   16.50    9.00
  -4   9   8   -7.20   12.70
   4  -9   8    6.60    8.40
   9   4   8   23.80   16.60
  -9   4  -8    9.10   16.90
   9  -4   8    5.10    7.60
  -9  -4  -8   19.70   14.60
   4   9   8    6.80   13.20
   4   9   8   10.20    6.70
   9  -4   8    5.70    8.30
  -4   9  -8   12.10    8.80
   9   4  -8   11.20   14.10
  -9   4   8   11.80    8.80
  -9  -4  -8   -9.30   16.30
   4  -9  -8   10.70    6.80
   9   4  -8   12.30    9.20
  -4  -9   8    4.40    7.10
  -4   9  -8   11.70    7.80
  -4  -9   8   18.20    8.80
  -4  -9   8    7.70    7.20
  -9  -5   8   22.60    9.00
   5   9  -8   14.00    7.70
  -5   9   8   21.60    8.40
  -9  -5   8   30.90   10.50
  -5   9   8   15.90    7.20
  -9   5  -8   12.90    9.50
  -9   5  -8   23.10   27.30
   5  -9   8   22.80   11.20
  -5  -9  -8   14.40    9.90
  -5   9   8   30.30   14.50
  -9   5  -8   18.30    9.20
   5   9  -8   15.80    8.80
   9   5   8   12.00    7.50
   9  -5  -8   37.00   11.50
  -9  -5   8   29.70    8.30
   9  -5   8   10.30    9.10
  -5  -9   8   20.80    8.10
  -5   9  -8   14.10    9.60
  -9   5   8   10.80   11.20
   9  -5   8   16.30    8.40
  -5  -9   8   17.40    9.30
   5   9   8   19.90   15.60
  -9  -5  -8   32.80   20.20
   5   9   8   22.70    7.30
   5  -9  -8   15.30    7.10
   9   5  -8   -1.00   15.20
   9   5  -8   12.80    8.60
  -5  -9   8   35.90    8.10
   5  -9  -8   26.10    8.50
   9  -6  -8   -1.00   10.10
   6   9  -8  -12.40    8.80
  -6  -9  -8    4.30   10.20
   9   6   8    7.50    6.90
  -9  -6   8   15.50    8.80
  -9   6  -8   19.30    9.30
  -9  -6   8    4.70    9.10
   6  -9   8    6.50    8.10
  -9  -6   8    1.20    8.80
  -6   9   8    0.90    7.50
   6   9  -8   -0.20    7.00
  -6  -9   8    9.60    8.00
  -6   9  -8    1.20    9.80
  -6  -9   8   10.80    8.40
  -9   6   8    6.60    8.20
   9   6  -8   -1.20    7.90
   6   9   8    5.40    6.70
  -9  -6  -8   -6.70   12.00
   6  -9  -8   -3.10    8.30
   9  -6   8    1.00    8.60
   9   6  -8  -10.40   11.90
   7   9  -8    8.70    8.00
  -9  -7   8    9.20    8.90
  -9  -7   8   11.10    9.40
   9   7   8    9.10    7.20
   7   9  -8   14.70   11.40
  -7  -9  -8   -1.70   10.80
  -9   7  -8   21.10    9.90
   9  -7  -8    4.20    9.90
   7  -9   8   12.50    9.30
  -7   9   8   12.40    8.30
  -9  -7   8   29.00    9.50
  -7  -9   8   19.90   10.00
  -9   7   8   23.00    9.20
  -9  -7  -8    5.60   11.50
   7  -9  -8    7.10   10.30
   9   7  -8   10.40   13.30
  -7   9  -8   12.60    9.40
  -7  -9   8   18.60    9.40
   9   7  -8   -3.90    7.80
  -7  -9   8   17.90    8.90
   7   9   8    7.90    6.70
   9  -7   8   18.90   10.30
   8   9  -8   24.70   13.00
   9  -8  -8   14.40   10.50
  -9  -8   8   25.50   10.40
  -9  -8   8   25.40   11.20
  -8   9   8   15.10    8.80
   8  -9   8   15.70    9.40
   8   9  -8   13.90    8.70
  -9   8  -8   10.70   10.00
  -8  -9  -8   17.70   11.90
   9   8   8   15.60    7.50
  -9  -8   8   27.50   10.70
   9   8  -8   11.70    8.30
   8   9   8   14.40    7.90
  -8   9  -8    8.10    9.40
   9  -8   8   19.00    9.10
   9   8  -8    6.60   14.10
  -8  -9   8   16.80    9.70
  -8  -9   8   25.50    9.70
  -9  -8  -8   26.70   12.90
  -8  -9   8   31.80   10.10
  -9   8   8   21.00    8.90
   8  -9  -8   19.50   10.60
   9   9  -8   -2.50    8.80
   9  -9  -8    0.30   10.30
  -9  -9  -8  -13.70   11.00
  -9  -9   8  -11.10   12.50
  -9  -9   8    7.40   10.20
  -9   9   8    2.70    8.10
  -9   9  -8  -14.10    8.40
  -9  -9   8    6.30   10.80
   9   9   8    8.60    7.70
   9  -9   8   -1.20    8.60
   9   9  -8  -14.20   14.80
   0  10  -8  117.99   16.50
   0 -10  -8  105.39   13.80
 -10   0   8   81.79   11.60
   0  10   8  165.38   23.80
 -10   0  -8   84.39   13.70
   0  10  -8   84.49   12.00
   0 -10   8   94.59   11.30
  10   0  -8  106.89   14.70
   0  10   8   98.39   10.60
  10   0   8  112.99   17.10
  10   0   8   90.59   11.60
 -10   0  -8   65.19   18.00
   0  10   8   95.39   10.90
   0 -10   8  104.29   15.80
   0 -10  -8   80.89   14.60
 -10   1  -8   24.40   10.70
  -1 -10  -8   25.40   10.10
 -10   1  -8   12.00   16.70
  10   1   8   15.20    7.70
   1  10  -8   22.40    7.90
  -1  10   8    3.00    6.50
  10  -1  -8    2.70    9.40
 -10  -1   8    5.00    8.50
  -1  10   8  -11.90   13.50
   1 -10   8    8.20    6.50
   1  10  -8   19.60   10.40
  -1 -10  -8    7.90    8.90
  -1  10   8   17.70    6.80
  10  -1   8   36.30   11.90
   1 -10  -8   22.90    8.60
  10  -1   8   15.10    7.40
   1 -10  -8   11.90    8.20
  10   1  -8    6.20    9.30
  -1 -10   8   14.20    7.80
   1  10   8   26.00    7.00
  -1  10  -8   27.00   10.20
   1  10   8   25.50    7.80
   1  10   8   51.19   14.80
 -10   1   8   13.70    8.40
  -1  10  -8   15.80    7.10
 -10  -1  -8    4.90   17.40
  -1 -10   8   25.70    8.50
  10  -2  -8   36.90   10.90
 -10  -2   8   21.30    9.80
 -10  -2   8   18.40    7.50
  10   2   8   35.10   17.30
  -2  10   8   18.80    6.90
 -10   2  -8   -2.10   17.90
  -2  10   8   -0.50   13.50
  -2 -10  -8    6.10   10.30
  10   2   8   25.90    7.50
   2 -10   8    9.40    6.80
   2  10  -8   20.90   10.60
   2  10  -8   13.60    7.60
  -2  10   8   21.10    7.30
  -2 -10  -8   22.20   10.00
 -10   2  -8   21.90    9.30
 -10   2  -8   22.10   10.10
  10  -2   8   12.60    9.70
   2  10   8   22.80    7.80
   2  10   8   30.10   14.80
   2 -10  -8   16.50    7.90
 -10   2   8   18.50    8.90
  -2 -10   8   20.60    7.70
   2 -10  -8   16.10    8.20
  -2  10  -8   11.60    9.90
   2  10   8   13.90    6.40
  -2  10  -8   16.30    8.80
  -2 -10   8   12.30    7.00
 -10  -2  -8    1.10   13.00
  10  -2   8   11.60    7.70
  10   2  -8    7.80    8.80
  10   2  -8   31.90   10.10
  -3  10   8   48.40    9.00
 -10   3  -8   34.10   10.20
 -10  -3   8   42.20    8.80
  10  -3  -8   23.40   12.90
  -3  10   8   39.80   14.90
  -3 -10  -8   45.80   11.10
   3  10  -8   38.30    9.10
  -3 -10  -8   20.50   11.40
 -10  -3   8   43.50    9.80
  -3  10   8   53.69    8.80
  10   3   8   38.80    8.30
 -10   3  -8   16.40    9.80
   3  10   8   37.80    8.30
  -3 -10   8   37.20    8.80
  -3 -10   8   45.70    9.60
  10   3  -8   24.60   12.00
   3 -10  -8   36.60    8.50
   3 -10  -8   54.69    9.20
  10  -3   8   30.70   10.20
 -10   3   8   39.60   15.10
  10   3  -8   36.10   10.40
  10  -3   8   46.00    8.90
   3  10   8   63.69   14.70
  -4 -10  -8   58.49   11.60
  -4  10   8   73.19   10.40
  10   4   8   48.20    9.10
  10  -4  -8   94.09   14.20
 -10   4  -8   55.99   11.40
   4 -10   8   80.29   11.40
  -4  10   8  101.29   16.90
   4  10  -8   76.39   13.60
 -10  -4   8   77.29   13.40
  -4  10   8   56.79    9.30
 -10  -4   8   56.29    9.90
 -10  -4   8   41.70   11.70
  10   4  -8   55.79   10.80
  -4 -10   8   58.99   11.10
  -4 -10   8   78.19   12.20
   4  10   8   74.39   13.50
  -4  10  -8   30.30    9.80
  10   4  -8   61.49   18.70
   4 -10  -8   77.69   11.20
 -10   4   8   39.90    9.90
  10  -4   8   53.09   10.00
   4 -10  -8   54.89    8.90
 -10  -4  -8   60.79   15.40
   4  10   8   73.29   20.20
  10  -4   8   65.69   16.90
   5 -10   8   34.70    8.70
 -10  -5   8   59.09   11.90
 -10  -5   8   55.09   10.20
 -10   5  -8   21.40   10.40
  10  -5  -8   53.89   11.90
  -5  10   8   56.09    9.90
   5  10  -8   37.00   10.60
  10   5   8   49.80    9.20
  -5 -10  -8   57.19   12.60
  10  -5   8   71.89   10.70
  -5 -10   8   52.99    9.70
 -10  -5  -8   30.00   13.30
   5  10   8   44.10    8.80
  -5 -10   8   47.10   11.30
 -10   5   8   47.50   10.40
  -5  10  -8   36.30   10.10
  10  -5   8   49.50   11.00
   5 -10  -8   58.39    8.90
  10   5  -8   41.90    9.90
   6  10  -8    1.30   10.60
  -6 -10  -8   10.00   10.90
 -10  -6   8   12.60    9.90
  10  -6  -8  -10.60    9.60
   6 -10   8    2.00    9.30
 -10  -6   8   14.90   10.20
 -10   6  -8    4.60   10.20
  -6  10   8    3.20    7.70
  10   6   8   16.10    7.70
 -10  -6  -8   25.90   14.00
  -6 -10   8    7.00    8.30
  -6 -10   8    4.80   10.10
  10  -6   8    6.80    9.60
   6  10   8    5.90    7.20
 -10   6   8   18.90    9.00
  10   6  -8   16.40    8.30
  10   6  -8    4.60   13.80
  10  -6   8   25.60   12.70
  -6  10  -8    5.10    8.50
 -10  -7   8   31.50   11.30
   7 -10   8   -0.30    8.10
 -10  -7   8   17.50   10.30
  -7  10   8   16.90    8.00
  -7 -10  -8   20.70   10.10
  10  -7  -8    4.60    9.90
 -10  -7   8   14.10   11.30
  10   7   8    9.80    7.50
 -10  -7  -8    3.30   11.90
  10  -7   8    3.90    9.50
  10   7  -8   17.00    8.60
  -7 -10   8   11.90   10.10
   7 -10  -8   12.70   10.60
  10   7  -8   19.90   14.90
 -10   7   8   19.10    9.20
  -7  10  -8   15.60    9.60
   7  10   8   13.30    7.40
 -10   8  -8   20.30   10.30
   8 -10   8   11.00   10.10
 -10  -8   8   13.40   10.00
  10   8   8    8.80    7.80
  -8  10   8    0.40    8.10
  10  -8  -8    6.70   10.80
  -8 -10  -8    0.90   10.80
 -10  -8   8   10.10   11.90
  10   8  -8    2.10    8.90
  -8  10  -8    6.40    8.90
  -8 -10   8   31.60   10.70
 -10   8   8    2.70    8.30
  -8 -10   8    1.70   10.10
   8 -10  -8    1.00   10.60
   8  10   8    7.40    7.10
  10  -8   8   14.10    9.60
 -10  -8  -8   -1.20   11.10
  10   9   8    0.70    8.00
   9 -10   8  -20.10    9.10
  -9 -10  -8   -9.10   11.40
  -9  10   8    8.20    8.90
 -10  -9   8    7.70   13.20
 -10  -9   8  -18.00    9.70
 -10   9  -8    2.70   10.40
  10  -9  -8   14.30   11.70
  10  -9   8   12.50   10.00
   9 -10  -8   23.50   11.80
 -10  -9  -8    2.60   11.10
   9  10   8   -5.10    7.30
 -10   9   8    1.90    8.50
  -9 -10   8    2.90   10.50
  -9 -10   8    0.60   11.50
  10   9  -8   -6.50    9.90
  -9  10  -8    7.40    9.80
  11   0   8   33.00   12.90
   0 -11  -8   48.60   10.50
   0  11  -8   27.20   10.60
 -11   0   8   25.50    9.50
   0 -11   8   32.00    8.40
  11   0  -8   40.80   11.20
  11   0   8   28.40    9.00
   0 -11  -8   39.00   10.20
   0  11   8   67.29   17.10
   0  11   8   32.00    8.20
   0  11   8   38.20    7.80
  -1  11   8    4.60    6.60
  -1  11   8   -2.30    7.00
  11  -1  -8   -9.30    9.40
 -11  -1   8   14.10    9.50
   1 -11   8    2.60    7.20
  11   1   8    3.60    8.60
  -1 -11  -8    1.50    9.70
   1  11  -8   -1.80    9.90
  -1  11   8    2.70   15.40
  -1 -11  -8   -4.70    9.20
  11  -1   8   10.30    8.00
   1  11   8    4.90    6.30
  11   1  -8    9.10   10.00
   1 -11  -8   -4.30    8.50
  -1  11  -8   -7.50    8.70
 -11   1   8   13.30    9.20
   1  11   8   17.90   15.10
   1 -11  -8   -2.00    8.00
  -1 -11   8    5.00    6.60
  11  -1   8  -15.20   11.10
   1  11   8    1.70    7.10
   2 -11   8    9.70    7.80
 -11  -2   8   16.30   10.30
  -2  11   8    7.40    7.10
  -2  11   8   22.60    8.60
  -2  11   8   -2.90   15.60
  11  -2  -8   14.00   10.70
  11   2   8   20.90    8.20
  -2 -11  -8   28.80   10.90
   2  11  -8   -9.00   10.60
  11   2  -8   20.40   10.40
 -11   2   8    0.70    8.50
  -2  11  -8    7.50    9.50
   2 -11  -8   19.20    8.40
  11  -2   8   18.70   11.80
  -2 -11   8   12.00    7.40
   2  11   8   18.70   15.90
   2 -11  -8   14.20    8.40
 -11  -2  -8   -0.20   14.10
  11  -2   8    5.20    8.20
  11  -3  -8   21.10   10.70
 -11   3  -8   30.20   10.80
  11   3   8   25.10    7.70
   3  11  -8   40.40   12.90
 -11  -3   8   16.90   10.10
  -3 -11  -8   29.10   12.10
   3 -11   8   39.70    9.40
  -3  11   8   20.80    7.90
  -3  11   8  -12.90   16.10
   3 -11  -8   36.40    8.80
  11  -3   8   31.80    8.90
  11   3  -8   27.90   10.60
   3 -11  -8   30.70    9.30
  -3 -11   8   28.00    8.70
   3  11   8   27.90    8.00
  -3  11  -8   27.20   10.90
 -11   3   8   31.50   10.30
  11  -3   8   31.90   12.20
 -11  -3  -8   20.50   13.90
  -4 -11  -8   24.90   11.00
   4 -11   8   23.80    9.30
  -4  11   8   11.20    9.10
  11  -4  -8    4.70   10.30
   4  11  -8    2.70   11.00
  -4  11   8    8.00   17.30
  11   4   8   10.10    7.60
  -4  11   8   16.30    7.90
 -11  -4   8   34.30   11.40
  11  -4   8    5.30    9.20
  -4  11  -8   15.50    9.60
  11   4  -8   35.10   10.10
   4 -11  -8   22.70    8.80
  11  -4   8   25.90   10.40
   4  11   8    9.60    7.00
   4 -11  -8   27.10    8.50
  -4 -11   8   29.90    8.90
 -11  -4  -8   22.10   14.70
 -11   4   8   12.60    9.40
 -11  -5   8   -0.40    9.40
  -5  11   8   10.30    7.80
  -5  11   8   13.60    9.00
   5 -11   8    8.30    8.30
 -11   5  -8    6.40   10.70
  11  -5  -8   19.40   10.90
  11   5   8    1.40    7.40
  -5 -11  -8    4.10    9.70
  11  -5   8   -2.00    9.80
  -5  11  -8   -4.90    7.70
  11   5  -8    4.50    9.70
  11  -5   8   18.90   11.00
 -11   5   8   13.90    9.70
   5  11   8   11.20    7.80
 -11  -5  -8   -4.30   13.10
  -5 -11   8   22.60    8.50
  11  -6  -8    1.70   10.30
  11   6   8   16.30    7.50
 -11   6  -8    6.50   11.40
 -11  -6   8    5.40    9.60
  -6  11   8   14.10    8.40
  -6 -11  -8    9.40   10.00
   6 -11   8    3.20    8.50
  -6 -11   8   -7.80    8.20
 -11   6   8    5.50    9.00
  -6  11  -8   10.30    8.60
   6  11   8   12.00    7.90
  11  -6   8   11.00   10.30
 -11  -6  -8    8.90   13.90
   6 -11  -8    4.80   10.70
  11   6  -8    6.80    9.10
  -7  11   8   13.30    8.20
  -7 -11  -8    3.30   10.30
  11   7   8   -2.80    7.10
 -11   7  -8    3.60   11.30
   7 -11   8   20.80   10.00
 -11  -7   8   12.00   10.20
  11  -7  -8   14.30   10.90
 -11   7   8   10.70    9.40
   7  11   8   15.50    8.10
  -7 -11   8    5.00   10.90
  -7 -11   8    7.80    9.40
 -11  -7  -8   14.00   13.80
  11  -7   8   16.20   10.30
   7 -11  -8   17.70   11.50
  11   7  -8   24.60   10.20
  -7  11  -8   19.40    9.50
  -8 -11  -8   13.60   11.80
 -11  -8   8    8.90   11.10
  11   8   8   16.80    8.20
  -8  11   8    5.90    8.50
  11  -8  -8    9.40   11.30
   8 -11   8   10.10    9.80
 -11   8  -8    6.90   11.40
 -11   8   8   15.60    9.10
 -11  -8  -8  -12.20   12.50
  -8 -11   8    8.70   11.40
  -8 -11   8   34.40   10.90
  11  -8   8   14.80   11.10
  11   8  -8    6.50    9.80
   8  11   8   13.60    8.00
   8 -11  -8   11.70   11.60
  -8  11  -8    1.30    8.60
  12   0   8   42.90    9.70
 -12   0   8   36.60   10.30
   0  12  -8   30.50   11.40
   0 -12  -8   28.00   10.20
   0  12   8   31.00    8.80
   0 -12  -8   25.20   13.70
  12   0  -8   23.00   10.80
   0  12   8   50.59   19.10
   0 -12   8   30.80    8.50
   0  12   8   23.50    8.70
  12  -1  -8    4.00    9.60
   1  12  -8    4.10   10.50
  -1  12   8    7.50   10.30
  -1  12   8  -14.70   16.60
  -1 -12  -8  -22.80   16.80
  -1  12   8    6.20    7.00
 -12  -1   8  -20.00    8.90
   1 -12   8    2.10    6.20
  12   1   8    7.50    8.40
 -12  -1  -8   -3.50   13.90
  -1 -12   8    3.90    6.50
  12  -1   8   -1.70   12.50
   1  12   8    3.40    6.80
  -1  12  -8    9.10    9.70
  12  -1   8   16.10    9.20
   1  12   8   -2.80    8.10
 -12   1   8   -4.90    8.90
   1 -12  -8  -10.50    8.90
  12   1  -8  -10.00    9.40
   1 -12  -8   -2.50    8.40
  -2 -12  -8    8.60   10.90
 -12  -2   8  -11.60    9.20
   2  12  -8   -5.50   10.10
  12  -2  -8   15.30   10.60
  -2  12   8    5.80    7.70
   2 -12   8   -5.60    6.60
  -2  12   8    1.10    7.80
  -2  12   8  -25.70   25.40
  12   2   8   -0.40    7.30
   2 -12  -8    8.70    9.60
  -2 -12   8    4.70    7.20
  12  -2   8   -0.20   10.10
   2 -12  -8    5.30    8.90
  12   2  -8   21.00    9.90
 -12  -2  -8   22.70   14.10
 -12   2   8   -3.00    8.90
   2  12   8   -0.10    6.80
  12  -2   8  -13.50   11.70
  -2  12  -8   -4.40    9.10
 -12  -3   8   -5.90    9.00
   3 -12   8    2.10    7.40
  12  -3  -8    2.50   10.30
  -3  12   8   14.40    7.90
  -3  12   8   31.00   19.40
  -3  12   8   -4.40    7.90
   3  12  -8   -7.40   10.50
  12   3   8    1.10    7.30
  -3 -12  -8   -4.90   10.20
   3 -12  -8    7.40    9.70
  12   3  -8    1.80    9.40
  12  -3   8    8.60   12.00
  12  -3   8   15.40    9.40
  -3 -12   8   -1.40    7.50
 -12   3   8   13.40    9.60
   3 -12  -8   25.30    8.80
  -3  12  -8    4.60    8.70
   3  12   8   -0.90    6.70
 -12  -3  -8   31.90   15.00
  -4 -12  -8   23.00   11.10
 -12  -4   8   20.40   10.90
   4  12  -8   20.90   11.90
  -4  12   8    7.20    8.30
  12  -4  -8   12.90   10.70
  12   4   8    4.50    7.50
  -4  12   8    7.20    8.90
   4 -12   8   16.40    8.50
  -4  12  -8   14.10    9.10
 -12   4   8   -3.50    9.50
 -12  -4  -8    4.40   13.50
  12  -4   8    6.00   10.80
  12  -4   8    1.20   10.10
  12   4  -8    3.00    9.60
  -4 -12   8   -0.60    7.60
   4  12   8    5.60    7.50
   4 -12  -8   12.30   14.10
   5 -12   8    8.20    8.10
 -12  -5   8    0.00    9.90
  12   5   8   12.60    8.20
   5  12  -8    7.60   12.20
  -5  12   8    2.60    7.90
  -5 -12  -8   18.40   10.70
  12  -5  -8    7.20   10.60
  12  -5   8   -7.00   10.30
 -12  -5  -8   11.50   13.40
   5  12   8   11.60    7.60
  12   5  -8   20.90   10.00
  -5 -12   8   16.60    8.00
  -5  12  -8   11.00    8.50
 -12   5   8    5.90    9.50
  12  -5   8   13.40   10.50
 -12   6  -8  -17.20   12.30
  12   6   8    1.90    7.70
  -6 -12  -8  -10.40   10.00
  -6  12   8   -2.80    7.90
 -12  -6   8    5.30    9.90
   6  12  -8    4.50   13.80
   6 -12   8   -9.70    8.60
  12  -6  -8    2.00   10.50
  -6  12  -8   10.20    8.90
  -6 -12   8   -6.20    8.20
   6 -12  -8    6.70   11.10
   6  12   8    8.60    7.80
  12   6  -8    4.80    8.80
  12  -6   8   -7.60   10.60
 -12  -6  -8  -22.10   13.00
 -12   6   8    5.20    9.30
 -12   7  -8   -8.30   11.90
  -7 -12  -8  -12.50   10.10
  -7  12   8   -8.60    8.20
 -12  -7   8   -0.80   10.60
  12   7   8   -3.90    7.50
   7 -12   8   -3.50    9.70
  12  -7  -8    3.30   11.30
  -7 -12   8    0.50    9.80
   7 -12  -8   20.00   11.80
  -7  12  -8   11.80    9.50
 -12  -7  -8   -9.60   13.60
 -12   7   8   -1.40    9.20
  12  -7   8   -5.20   10.60
   7  12   8    3.00    7.80
  12   7  -8   -1.10    9.50
   0  13  -8   15.10   10.80
   0 -13   8    4.80    7.50
   0  13   8   16.80    7.70
   0 -13  -8    6.70    9.70
  13   0  -8    4.00   10.20
  13   0   8    5.60    8.90
 -13   0   8    8.80   10.20
 -13   0  -8   16.00   17.50
  -1  13   8    0.80    8.40
  13  -1  -8   22.40   10.70
  13   1   8   11.00    9.00
 -13  -1   8   17.90   11.40
   1 -13   8    2.00    7.10
   1  13  -8   14.50   10.30
  -1 -13  -8   -2.00    9.50
  -1  13   8   13.10    7.60
 -13   1   8   -7.80    9.90
  13  -1   8   11.60    9.20
  13   1  -8   14.30   10.00
  -1 -13   8   -4.60    6.70
 -13  -1  -8   25.00   16.90
   1  13   8   -8.10    6.30
   1 -13  -8   16.20   10.70
  -1  13  -8    4.20    9.10
  -2  13   8   40.70   24.20
   2 -13   8    8.50    8.30
  13   2   8   14.70    8.50
  13  -2  -8   11.10   10.50
  -2  13   8   13.00    8.50
  -2  13   8    8.20    8.50
 -13  -2   8   28.70   11.50
  -2 -13  -8    3.50   10.20
   2  13  -8    9.70   10.30
  13  -2   8    3.40    9.70
   2  13   8   13.40    7.00
 -13  -2  -8  -27.10   14.80
  13  -2   8    3.90   13.10
   2 -13  -8   24.40   10.00
  -2  13  -8    9.40    9.00
  -2 -13   8   18.10    7.90
  13   2  -8    6.30    9.60
 -13   2   8   30.00   10.40
  13  -3  -8    8.60   10.20
   3 -13   8    7.40    8.40
   3  13  -8   -0.40   11.20
  -3  13   8   -1.60    7.40
  -3 -13  -8   -2.60   10.60
  -3  13   8    1.60    8.70
  13   3   8   -1.60    8.00
 -13  -3   8    7.00   10.60
  13   3  -8   11.20   10.10
 -13  -3  -8   -7.00   15.00
 -13   3   8   12.80   10.50
  -3  13  -8  -13.30    7.30
  -3 -13   8   -1.10    7.30
  13  -3   8   -2.00   13.20
   3 -13  -8   -7.00    8.60
  13  -3   8   -3.70   10.20
   3  13   8    3.20    7.20
  -4 -13  -8    4.70   10.80
 -13  -4   8    5.10   10.80
   4 -13   8   -3.30    8.00
  -4  13   8    4.40    8.30
   4  13  -8   -0.50   12.60
  13  -4  -8    0.70   10.70
  -4  13   8   14.50    9.30
  13   4   8   -2.00    7.40
  13  -4   8   -1.50   11.40
 -13   4   8   -6.60    9.10
 -13  -4  -8  -24.10   14.90
   4  13   8    5.00    7.20
  13  -4   8   -5.90   13.20
   4 -13  -8  -20.60   12.20
  -4  13  -8   -5.70    8.60
  -4 -13   8    3.00    7.70
  13   4  -8   -7.20    9.10
  -5 -13  -8   -1.80   10.80
  -5  13   8   11.80    9.10
   5 -13   8    4.60    9.30
  13  -5  -8    5.50   11.40
  13   5   8   -0.40    7.80
   5  13  -8   11.90   13.40
 -13  -5   8   -3.70   10.90
  -5  13  -8   -2.20    8.40
  -5 -13   8   -8.30    7.90
   5  13   8   -7.90    7.40
  13   5  -8   -0.80    9.60
  13  -5   8  -11.20   12.20
 -13   5   8   -4.50    9.70
 -13  -5  -8   -5.90   14.60
  13  -5   8   10.60   12.50
  14   0   8    8.60    9.00
 -14   0   8   -0.40   10.90
   0 -14   8   10.20    7.90
   0  14  -8    0.40    9.90
   0 -14  -8    2.60   10.20
   0  14   8   -4.70    7.00
  14   0  -8   -5.50    9.60
 -14   0  -8   -5.40   17.60
   1 -14   8    6.90    7.30
  -1  14   8    8.90   12.40
  14  -1  -8   -5.40    9.60
   1  14  -8   19.90   11.10
  14   1   8    7.80    9.30
  -1  14   8   11.90    8.80
 -14  -1   8   12.50   11.20
  -1 -14  -8    0.40   10.20
   1  14   8   14.20    8.40
  -1  14  -8   10.10    9.70
 -14   1   8   -0.10   10.90
  -1 -14   8   17.40    8.30
  14   1  -8    5.90    9.80
  14  -1   8    4.80   10.30
   1 -14  -8    5.20    9.80
 -14  -1  -8  -13.90   16.30
   0   0  -9    5.00    5.70
   0   0   9   -8.30    9.30
   0   0  -9    7.70   10.00
   0   0   9   -2.30    4.60
   0   0   9   -0.20    5.30
  -1   0   9    5.60    5.70
   0  -1   9   11.30    5.20
   0   1   9    4.20    5.40
   0   1   9   17.40    5.60
  -1   0  -9    7.20    6.60
   0  -1   9    8.80    5.90
   1   0   9   10.40    5.10
   0  -1   9   18.60    7.60
   1   0  -9   16.80   10.10
  -1   0   9   -0.10    5.40
   0  -1  -9   17.90    6.50
   1   0   9    9.10    5.80
   0   1  -9    1.30    5.50
   1   0  -9   16.40    5.50
   1   0   9    6.10    5.00
   0  -1  -9   19.40   10.30
   0   1   9    7.80    6.50
   0   1  -9   15.30   10.60
  -1   0   9   11.70    5.60
   1  -1   9    3.40    5.10
  -1   1  -9   -9.70   10.70
  -1  -1   9   -3.50    5.50
  -1   1   9    2.80    5.30
  -1  -1   9    0.20    5.60
  -1   1  -9    1.20    5.50
   1  -1  -9    0.20    9.80
   1  -1   9   -4.50    5.10
  -1   1   9    1.10    6.00
   1   1   9   -1.60    4.90
  -1  -1  -9   -8.60    5.90
   1  -1   9   -3.50    5.60
  -1  -1   9    2.90    5.30
  -1   1   9   -0.70    5.20
   1  -1  -9    7.30    5.40
  -1  -1  -9  -15.80   10.60
   1   1  -9  -14.70   10.00
   1   1   9    3.20    5.00
   1   1   9    8.20    6.30
   1   1  -9   -1.20    6.80
  -2   0   9   11.80    6.00
  -2   0   9   15.60    6.10
   0  -2   9   12.60    5.60
   0   2   9   15.40    6.10
   0   2   9    7.90    7.30
   0  -2  -9   10.60    9.60
   0   2  -9   14.00    6.00
  -2   0   9    8.60    6.40
   0   2   9    9.40    5.40
   2   0   9   22.30    5.80
   2   0  -9   13.30    5.20
   0  -2   9   20.40    6.00
   2   0   9    7.90    6.60
  -2   0  -9   17.00   11.70
   0  -2   9   17.80    5.90
   2   0  -9    4.00    9.50
   2   0   9   11.50    5.60
  -1   2   9   19.90    7.80
  -2   1  -9   26.40    7.10
   1  -2   9   23.00    6.90
  -2   1  -9   29.10   12.30
  -2  -1   9   25.30    6.70
  -2  -1   9   26.70    6.70
  -1   2   9   21.10    6.00
  -2  -1   9   17.20    6.10
   1   2  -9   24.90    5.90
   2   1   9   31.70    5.90
   1   2  -9   32.00   11.60
   1  -2   9   26.80    5.80
  -1   2   9   26.70    6.20
   2   1   9   33.00    8.20
   1  -2   9   20.20    6.20
   2  -1  -9   26.80    5.50
   2  -1  -9   30.60    9.60
   2   1   9   19.30    5.80
  -1  -2  -9   13.80   18.70
  -1  -2   9   16.50    6.10
   1   2   9   29.00    7.80
  -2   1   9   24.40    6.40
  -2   1   9   22.00    6.40
   1   2   9   24.10    5.50
   1   2   9   28.00    6.40
   2  -1   9   31.90    7.60
  -2  -1  -9   17.30   10.20
   1  -2  -9   13.50    6.00
   2   1  -9   26.50    5.40
   1  -2  -9   19.10    9.70
   2   1  -9   14.90   10.90
  -1  -2   9   17.10    7.40
  -1   2  -9   46.10   12.90
  -2  -1  -9   24.10   11.00
  -1  -2   9   28.20    6.50
   2  -1   9   36.00    6.50
   2  -2  -9    7.60    8.50
   2   2   9    3.30    7.60
   2  -2   9   13.60    5.60
   2  -2   9   12.80    6.10
   2   2   9    6.70    5.50
   2   2   9   19.20   15.40
  -2   2   9    4.20    5.70
   2  -2  -9   11.10    5.50
  -2  -2   9    8.70    6.50
  -2   2  -9   16.10    6.90
  -2  -2   9   15.30    5.60
   2  -2   9   16.40    5.40
  -2  -2  -9   29.10   10.90
  -2   2   9   12.70    6.10
  -2   2  -9    3.20   11.70
   2   2   9   15.50    5.70
   2   2  -9    6.60    6.20
   0  -3   9   67.89    9.60
  -3   0   9   77.99    9.20
   0   3   9   90.19    8.90
  -3   0   9   79.39    9.40
   0  -3   9   67.19    8.70
   3   0  -9   76.69    7.80
  -3   0  -9   62.09   13.40
   0   3   9   61.09    8.50
   0   3   9   86.59   12.90
   3   0  -9   81.09   14.70
   0  -3   9   80.49    9.80
   3   0   9   72.59    8.80
  -3   0  -9  101.79   12.00
   3   0   9   82.69   11.40
   0  -3  -9   73.39   11.30
  -3   0   9   67.19   10.10
   3   0   9   64.69    8.50
   1  -3   9  139.29    9.50
  -3   1  -9  165.58   13.00
   1  -3   9  149.19   11.60
   3   1   9  140.29   12.80
   3   1   9  134.69    9.70
  -1   3   9  156.98   10.30
  -1  -3  -9  147.69   18.80
   3  -1  -9  160.28   14.10
  -3  -1   9  136.29   10.30
   3  -1  -9  158.78    9.30
   1   3  -9  140.89   10.20
  -3   1  -9  131.59   19.30
  -3  -1   9  135.29   11.20
   3   1   9  137.59   10.20
  -1   3   9  165.08   17.30
  -1   3   9  154.08   10.20
   1  -3   9  143.59   11.00
   1  -3  -9  159.68   12.60
  -1  -3   9  148.79   11.20
  -1  -3   9  149.99   11.00
   1   3   9  142.89   10.70
   3  -1   9  141.99    9.60
   1   3   9  152.88    9.80
   3  -1   9  140.69   12.00
  -3  -1  -9  140.49   17.90
  -1   3  -9  150.08   11.20
  -3   1   9  151.98   10.50
   1  -3  -9  143.19   14.50
  -3   1   9  152.58   11.20
   3  -1   9  157.88   10.80
  -3   1   9  134.59   11.10
   3   1  -9  152.58   17.50
   1   3   9  167.08   18.90
   3   1  -9  155.98    9.50
  -1  -3   9  150.58   11.10
   3  -2  -9   83.69   12.40
  -3   2  -9   83.39   10.70
   2  -3   9   79.89   10.70
  -2  -3  -9   91.69   15.40
  -3  -2   9   84.59    9.40
   2   3  -9   69.99    8.70
  -2   3   9   92.19    9.90
   3   2   9   96.39    8.20
   3   2   9   71.59    8.70
  -3   2  -9  103.39   18.50
   2  -3   9   88.59   10.10
  -3  -2   9   82.79   10.10
   3   2   9  105.59   12.60
   3  -2  -9  107.49    8.30
   3   2   9   89.89   15.20
   2  -3   9   93.49    8.30
  -2   3   9   84.59    9.40
  -3  -2  -9   95.99   14.20
  -2   3  -9  108.49   11.10
   3   2  -9   76.99    7.90
  -2  -3   9   92.49   10.00
  -2  -3   9  100.69    9.80
   3   2  -9   76.29    9.50
   2  -3  -9   85.29   12.60
   3  -2   9   96.39    8.80
  -2   3  -9  104.29   16.80
  -2  -3   9   87.49   10.30
  -3   2   9   84.39   10.20
  -3   2   9   93.59   10.00
   2   3   9   82.49    7.80
   2  -3  -9   97.69   11.40
   2   3   9   84.99    9.40
   2   3   9   86.79   14.80
   3  -2   9   96.09   10.90
  -3   3  -9  138.59   12.10
   3   3  -9  117.49    9.70
  -3   3   9  135.59   10.70
  -3  -3   9  122.19   11.10
   3  -3  -9  116.99   11.60
  -3   3   9  141.39   10.80
   3  -3  -9  130.69    9.50
  -3   3  -9  115.99   21.20
  -3  -3  -9  133.29   17.70
   3   3   9  127.79   19.30
   3   3  -9  122.39   11.00
   3  -3   9  131.39   11.90
   3   3   9  130.89   10.10
  -3  -3   9  121.19   11.30
   3  -3  -9  145.59   12.10
   3   3   9  132.99    8.70
   3  -3   9  153.28    9.50
   0  -4   9   31.80    7.50
   0  -4  -9   10.20    9.20
   4   0   9   31.30    8.20
   4   0  -9   38.40    6.30
  -4   0  -9   29.60    7.90
   0  -4  -9   29.80    8.60
  -4   0   9   19.60    6.90
   4   0   9   24.40    6.40
   0   4  -9   30.40    6.80
  -4   0   9   24.80    6.10
   0  -4   9   33.70    7.10
  -4   0  -9    8.90   11.60
   0   4   9   35.50    6.50
   0   4   9   39.80   11.80
   0  -4   9   35.10    7.50
   4   0  -9   21.00    9.20
   0  -4   9   25.00    7.20
   0   4   9   24.80    6.30
  -4   1  -9  164.08   13.40
   1  -4   9  178.58   12.80
  -4  -1   9  143.79   11.90
  -1  -4  -9  153.88   14.70
  -4   1  -9  151.28   12.60
   4   1   9  157.08   10.70
   4  -1  -9  153.18    8.40
   1   4  -9  161.58   10.90
  -4  -1   9  152.08   10.30
   1  -4   9  154.18   11.90
  -1   4   9  222.08   28.80
   1  -4   9  172.08   12.10
  -1   4   9  147.39   11.00
   4  -1  -9  163.58   13.50
   4   1   9  165.08   14.40
   1  -4   9  174.18    9.80
  -4   1  -9  127.69   18.30
  -1   4   9  152.98   10.10
  -1  -4  -9  174.28   15.70
   4   1  -9  174.08   17.60
  -4   1   9  142.89   10.90
   4  -1   9  155.88   10.40
  -1  -4   9  153.38   11.80
   4  -1   9  155.38   12.70
  -4   1   9  138.89   11.50
   1   4   9  155.18   10.20
  -4  -1  -9  147.99   19.30
   1   4   9  157.98   11.00
  -1   4  -9  139.39   11.20
   1  -4  -9  128.39   12.70
   4   1  -9  146.29    9.40
   1   4   9  160.88   25.10
   4   1  -9  127.59   12.50
   1  -4  -9  139.89   13.50
  -1  -4   9  155.28   12.00
  -1  -4   9  148.89   11.50
   4   2   9  132.99   13.70
   4  -2  -9  127.19    7.50
   4   2   9  116.09   10.20
  -4   2  -9  111.09   16.80
   2  -4   9  117.29    9.20
  -4   2  -9  105.09   13.30
  -2   4   9   98.49   10.20
   4  -2  -9  104.39   10.90
  -4   2  -9  129.79   11.70
  -4  -2   9  116.89   10.90
   2   4  -9   88.09   10.30
  -2   4   9   91.99    9.40
   2  -4   9  120.89   11.20
  -2   4   9  118.99   16.80
   4  -2  -9  111.59   10.10
  -2  -4  -9  118.79   16.70
  -2  -4  -9  123.89   14.70
  -4  -2   9  114.69   10.40
  -4  -2   9  111.99    9.80
   2   4  -9   95.29   10.20
   4   2   9  121.39   17.00
   2   4   9  118.09    9.00
   4  -2   9  111.49   10.50
  -2  -4   9  114.09   11.80
  -2  -4   9  110.79   10.50
  -4   2   9  116.49   11.10
   4  -2   9  107.09   11.40
  -2   4  -9   99.09   11.20
   2   4   9  101.89    9.50
   4   2  -9   99.79    8.20
   2   4   9  115.89   19.30
  -2  -4   9  111.39   10.70
   2  -4  -9   74.79   12.10
  -4   2   9   97.99   11.80
   4   2  -9   89.49   11.40
   2  -4  -9   95.69   11.00
  -4  -2  -9  106.19   19.20
   4   3   9  110.09    9.90
  -3  -4  -9  126.09   17.70
  -4  -3   9  119.99   11.50
   4  -3  -9  107.59    7.60
   4  -3  -9  120.19    9.50
   3  -4   9   81.39    9.90
  -3  -4  -9  111.49   14.70
  -4   3  -9  110.69   14.90
  -4   3  -9  113.59   17.30
  -4   3  -9  122.89   12.60
  -3   4   9  101.89   10.10
   3  -4   9  118.59   11.70
  -4  -3   9  100.49   10.20
   4  -3  -9  116.69   10.20
   4   3   9  119.19   16.90
   3   4  -9  109.59   10.40
   3   4  -9   97.89    9.60
  -4  -3   9  105.39   11.10
  -3   4   9  112.29   10.70
  -3  -4   9   80.39   13.20
  -3   4  -9  101.19   14.80
   4  -3   9  112.29    9.30
  -3  -4   9  103.69   10.90
  -3   4  -9  117.59   21.20
   4  -3   9  104.99   11.90
  -4  -3  -9  111.89   16.50
   3   4   9  117.59   16.40
   3  -4  -9   93.79   11.40
  -3   4  -9   99.29   11.40
  -4   3   9  101.59   10.20
   4   3  -9  114.89   11.20
   3   4   9   94.59   10.10
  -4   3   9   98.89   11.10
   3   4   9  102.19    7.90
   3  -4  -9   87.59    9.90
  -3  -4   9  116.49   10.50
   4   3  -9   92.49   10.80
   4   4   9   43.60    5.70
  -4  -4   9   45.10    8.50
   4   4   9   41.90    7.50
   4  -4   9   45.80    6.90
  -4   4  -9   38.30   10.20
  -4  -4   9   41.70    7.10
  -4   4  -9   24.00   14.60
   4  -4  -9   37.10    5.70
  -4  -4   9   34.90    8.00
   4  -4  -9   37.30    7.00
   4  -4   9   48.40    8.90
  -4   4   9   27.00    7.50
   4   4   9   36.60   14.00
   4   4  -9   41.00    7.10
   4   4  -9   48.00    8.10
  -4  -4  -9   40.80   13.00
  -4  -4  -9   19.10   10.40
  -4   4  -9   32.70    8.20
  -4   4   9   22.90    6.70
   0  -5   9    9.00    6.70
  -5   0   9    5.30    6.70
   0  -5   9   11.70    6.30
   0   5  -9    0.60    5.90
   0   5   9    3.30    6.00
   0   5   9    5.10   11.30
   0  -5  -9   20.50    7.70
   0  -5   9    5.10    6.60
  -5   0  -9   11.70    8.00
   5   0  -9   16.50    7.60
   5   0   9   12.80    5.70
  -5   0  -9   18.00   12.60
   0  -5  -9    9.90    9.40
   5   0  -9    3.80    8.30
  -5   0   9    9.70    5.80
   5   0  -9   12.80    4.10
   5   0   9   16.70    8.00
   0   5   9   10.10    5.10
   5   1   9  133.39   10.70
   1   5  -9  123.39   11.20
  -1   5   9  179.18   18.60
  -1   5   9  147.19   10.10
   1  -5   9  165.38   10.40
  -1   5   9  137.79   10.80
  -5  -1   9  154.48   10.40
  -5   1  -9  167.98   21.60
   5  -1  -9  146.09   11.40
  -5  -1   9  134.59   12.50
  -5   1  -9  170.48   14.20
   1  -5   9  162.38   13.00
  -5   1  -9  150.08   12.80
   1  -5   9  152.38   12.50
   1   5  -9  163.48   10.10
   5  -1  -9  135.79   12.70
  -1  -5  -9  188.68   15.90
  -1  -5  -9  169.08   14.80
   1  -5   9  137.59   12.40
   5   1   9  163.28   14.40
   5  -1  -9  149.99    7.20
   1   5   9  143.29   10.10
  -1  -5   9  138.69   11.50
  -5  -1  -9  161.18   11.50
   1   5   9  166.48   19.00
  -5   1   9  165.48   12.40
   1   5   9  151.98   11.40
  -5  -1  -9  145.19   20.40
   5   1  -9  128.49   12.70
  -1  -5   9  150.28   12.50
   5  -1   9  149.99   13.20
   1  -5  -9  145.39   14.70
  -1   5  -9  161.08   11.80
  -1  -5   9  146.19   11.90
   5  -1   9  155.08   12.70
   5   1  -9  139.89    9.00
   5   1  -9  146.79   17.10
   1  -5  -9  152.98   14.30
   2  -5   9   76.59    8.30
   5   2   9   92.39   13.90
  -5   2  -9  115.79   12.00
  -2   5   9  102.39   17.30
  -5  -2   9   72.09   11.10
   5   2   9  106.19   17.40
  -2   5   9   86.49    9.70
   2   5  -9   79.89    8.30
   5  -2  -9   92.09    5.60
  -5   2  -9   83.69   12.90
  -2   5   9   85.09    9.60
  -2  -5  -9   87.09   14.60
   5   2   9   77.39    8.90
  -5  -2   9   93.39   10.30
   2   5  -9   72.79    9.30
  -2  -5  -9  107.89   16.10
   5  -2  -9   74.69    7.90
   2  -5   9   92.09   12.20
   2  -5   9   90.69   10.80
  -5   2  -9   60.79   14.10
   2  -5  -9   70.29   12.80
   2  -5  -9  100.89   10.90
   2   5   9   81.69    8.70
  -5  -2  -9  103.19   15.40
   2   5   9   95.69   10.00
   5  -2   9   97.19   12.20
  -2  -5   9   81.59   10.70
  -5   2   9   87.69   10.10
  -5  -2  -9   69.89    9.60
   5   2  -9   84.19   10.30
  -2  -5   9   85.49   10.30
   5  -2   9  103.49    9.70
  -2  -5   9   96.99   11.30
  -2   5  -9   99.79   10.20
   5   2  -9   71.69    8.30
   2   5   9   76.09   13.50
   3   5  -9  116.19   10.40
   5  -3  -9   89.69    6.90
  -3   5   9  108.39   10.80
  -5  -3   9  112.29   11.20
  -5   3  -9  136.29   13.80
   5  -3  -9  125.29    5.80
  -3   5   9  129.39   10.90
  -5   3  -9   98.49   16.30
   3   5  -9  118.19   10.90
  -5  -3   9  128.09   12.50
  -3  -5  -9  111.09   17.10
   5   3   9  112.69   10.30
  -3  -5  -9  104.79   16.30
  -3   5   9  127.99   16.90
  -5  -3   9  116.79   10.90
   3  -5   9  123.49    9.30
   5   3   9  124.79   22.00
  -5   3  -9  113.09   12.80
   3  -5   9   95.99   11.40
  -3  -5   9  101.29   11.40
   3   5   9   90.89   14.80
  -5   3   9  118.19   11.20
  -3  -5   9  141.49   12.10
  -3   5  -9  132.09   12.00
   5   3  -9  119.59   12.00
   3   5   9   99.59   10.50
   3  -5  -9  119.49   11.90
   5  -3   9  100.19   12.40
  -3  -5   9  115.49   11.00
  -3   5  -9  120.99   15.10
   3   5   9  111.69    8.30
   5  -3   9  138.49   16.80
   5   3  -9  120.89    9.60
  -5  -3  -9  117.89   19.90
   5  -4  -9   36.70    6.00
   5   4   9   25.70   13.80
  -5  -4   9   36.90    7.70
   5   4   9   31.50    6.80
  -5   4  -9   22.00   13.80
  -5  -4   9   24.80    7.00
  -4  -5  -9   38.40   12.20
   4  -5   9   25.10    8.40
   4   5  -9   18.60    7.20
  -5  -4   9   41.20    7.70
   4  -5   9   34.90    6.50
  -4   5   9   33.70    7.80
  -5   4  -9   38.20    9.70
   4   5  -9   32.30    7.00
  -4   5   9   36.80    7.20
  -5   4  -9   39.70    9.10
   5  -4  -9   39.90    5.50
  -4  -5  -9   37.60   11.80
  -4  -5   9   36.40    7.80
   5   4  -9   35.60    8.30
   5   4  -9   35.60    7.30
  -4   5  -9   22.30    9.50
   4   5   9   38.90   14.10
   5  -4   9   32.90    7.20
  -4  -5   9   33.70    8.30
  -5  -4  -9   25.60   12.20
  -5  -4  -9   31.70   13.40
  -4  -5   9   27.20    7.40
   4  -5  -9   36.30    6.40
  -4   5  -9   35.90    7.80
   5  -4   9   30.70    8.10
   4   5   9   39.00    7.50
   4  -5  -9   34.80    6.70
  -5   4   9   25.90    7.60
  -5   5   9   69.39   10.50
  -5   5  -9   84.69   13.90
   5   5  -9   52.99    8.30
  -5  -5   9   55.69    8.70
  -5  -5  -9   41.30   12.30
  -5  -5   9   47.60    8.20
  -5  -5   9   53.69    8.60
   5   5   9   59.69   14.20
   5  -5  -9   66.79    7.20
  -5   5   9   55.99    9.00
  -5   5  -9   47.00    8.30
   5  -5  -9   65.59    6.60
   5  -5   9   52.39    8.70
  -5   5  -9   67.89   16.50
   5   5   9   65.89    9.50
  -5  -5  -9   53.39   13.20
   5   5  -9   66.59    9.00
   5  -5   9   68.59   10.10
   6   0  -9   56.19    9.50
   0  -6  -9   57.99   10.60
   0   6  -9   63.59    7.80
  -6   0  -9   39.30   12.80
  -6   0  -9   33.90   13.10
  -6   0   9   59.99    9.40
   6   0  -9   42.70    8.10
   6   0  -9   31.30    4.70
   0   6   9   35.10   13.00
   0  -6  -9   52.79    9.60
   0   6  -9   43.80    7.50
  -6   0  -9   77.19   13.70
   0  -6   9   59.39   10.20
   0  -6   9   47.10    8.90
   0   6   9   47.00    7.60
   6   0   9   47.40    9.60
   6   0   9   42.30    7.50
   0  -6   9   65.89   11.10
   6   1   9  214.98   12.60
   1  -6   9  215.88   13.60
  -1   6   9  216.48   12.20
  -6  -1   9  195.58   14.00
  -1  -6  -9  241.98   17.30
  -1   6   9  208.58   20.00
  -1   6   9  210.88   12.50
  -1  -6  -9  228.68   16.20
  -6   1  -9  222.08   14.50
   1   6  -9  181.18   10.80
   1  -6   9  196.78   14.20
  -6   1  -9  217.78   23.60
   6  -1  -9  224.38   15.20
  -6  -1   9  194.68   11.80
   1   6  -9  225.38   13.10
   6   1   9  223.48   17.00
  -6   1  -9  215.98   15.60
   6  -1   9  225.68   12.80
   6   1  -9  197.88   10.30
  -6  -1  -9  183.68   11.90
   6   1  -9  211.18   14.70
  -1  -6   9  236.58   14.30
   1   6   9  206.58   19.90
   1  -6  -9  207.58   13.80
   6   1  -9  228.98   17.90
  -1   6  -9  199.88   13.10
  -6  -1  -9  225.28   22.50
   6  -1   9  225.78   15.40
   1   6   9  216.18   11.60
  -1  -6   9  234.68   14.10
  -1  -6   9  191.18   13.30
  -1   6  -9  193.48   14.60
  -6   1   9  176.78   13.40
   1   6   9  210.28   12.90
   2   6  -9   89.09   10.10
   6  -2  -9  100.29   12.20
   2   6  -9   71.59    9.30
  -6  -2   9  102.39   10.10
   6   2   9  127.59   18.80
  -6  -2   9   87.89   11.70
  -2  -6  -9  103.89   15.60
  -2  -6  -9  117.69   14.50
  -6   2  -9   85.29   15.80
  -6   2  -9   90.39   13.50
  -6  -2   9   82.79   10.20
   2  -6   9  104.59   12.60
   2  -6   9  108.29   12.00
  -2   6   9   89.19   14.10
  -6   2  -9   94.89   12.60
  -2   6   9   96.79   10.40
  -2   6   9   85.29    9.70
   6   2   9   91.49   14.80
   6   2   9   92.79    9.70
  -2  -6   9   96.39   11.10
   2  -6  -9   87.39   14.60
   6  -2   9   92.79   10.10
   2  -6  -9  128.29   13.40
  -6   2   9   89.99   11.00
  -2  -6   9  110.29   12.00
  -2  -6   9   83.79   11.00
  -2   6  -9   80.49   12.60
   2   6   9   88.69   10.00
  -6  -2  -9   74.39   14.40
   6  -2   9   91.09   11.30
   2   6   9   91.19    9.10
   2   6   9  116.79   19.10
   6   2  -9   88.99    9.20
  -2   6  -9   92.99   10.20
   6   2  -9  105.89   12.40
   6   3   9   93.89   10.20
  -6   3  -9   75.99   15.50
   3   6  -9   83.29    9.80
  -6  -3   9   84.09   11.80
  -3   6   9  113.09   18.40
  -6   3  -9   71.09   11.30
   3  -6   9  105.09   12.10
  -3   6   9  109.79   10.80
  -3   6   9   89.39   10.70
  -6   3  -9   95.29   13.40
  -6  -3   9  103.49   11.10
  -3  -6  -9  102.09   15.30
   6   3   9   89.29   15.90
   6  -3  -9   95.79   12.70
  -3  -6  -9   79.29   12.30
   3   6  -9  124.59   11.20
  -6  -3   9   96.19   12.10
   3  -6   9   96.09   11.80
   3  -6  -9  105.89   12.10
  -3   6  -9   94.79   11.60
   6  -3   9  103.19   12.90
   3  -6  -9   94.39   10.60
  -3  -6   9   85.19   10.90
  -3   6  -9   96.89   12.80
   6   3  -9   83.89   10.10
   3   6   9   94.19   10.50
   3   6   9  104.79    8.90
  -3  -6   9  102.49   11.50
  -6  -3  -9  135.29   20.70
  -6   3   9   94.49   11.30
   6   3  -9  116.89   12.30
  -6  -3  -9  128.59   16.60
   6  -3   9  103.69   10.30
   3   6   9   94.39   21.00
  -3  -6   9   95.99   11.50
  -4   6   9   61.39   11.70
  -4  -6  -9   22.50   11.40
  -6   4  -9   33.60   13.90
  -6   4  -9   56.49   10.50
   4   6  -9   53.99    9.80
   4   6  -9   23.20    8.70
   4  -6   9   43.90    8.90
   6  -4  -9   35.80    9.70
  -4   6   9   46.80    8.60
  -4  -6  -9   49.00   11.40
  -4   6   9   42.00    8.50
  -6  -4   9   55.39    8.80
   6   4   9   42.90   15.50
   6   4   9   43.50    8.00
  -6   4  -9   38.90    9.10
  -6  -4   9   30.60    8.40
  -6  -4   9   63.99   11.20
   6   4  -9   46.80    7.80
   6  -4   9   34.70    8.20
   6   4  -9   36.90    8.40
  -6   4   9   32.40    9.20
   6  -4   9   51.39    8.40
  -6  -4  -9   30.50   13.00
  -4  -6   9   48.90    8.10
  -4  -6   9   45.40    8.20
   4  -6  -9   42.60    6.80
  -4  -6   9   34.60    8.80
   4  -6  -9   57.39    9.70
  -4   6  -9   37.30    8.10
   4   6   9   54.49   15.10
   4   6   9   46.90    8.50
  -6  -4  -9   38.00   11.20
  -4   6  -9   52.39   10.50
  -6   5  -9   64.29   17.50
   5  -6   9   61.29   10.70
  -6  -5   9   65.29    9.20
   5   6  -9   59.79    9.20
  -5  -6  -9   59.49   13.10
  -5  -6  -9   65.09   13.90
   6   5   9   58.59   14.90
  -6  -5   9   76.99   11.70
   6   5   9   71.99   10.30
  -5   6   9   74.39   11.10
  -6   5  -9   74.69   12.40
   5   6  -9   68.89    9.10
  -6  -5   9   69.59   11.60
  -5   6   9   54.09    8.80
   6  -5  -9   56.19   10.70
  -6   5  -9   66.59   11.50
   5   6   9   57.69    8.80
   6   5  -9   46.90   10.20
  -5  -6   9   77.59   14.50
  -5  -6   9   56.69    9.60
  -5   6  -9   63.79   11.40
  -6  -5  -9   55.39   14.60
   6  -5   9   72.79   12.30
  -6  -5  -9   71.89   14.60
   5   6   9   53.09   16.20
   6   5  -9   63.59    8.90
   6  -5   9   69.39   10.30
  -5  -6   9   66.39    9.30
   5  -6  -9   67.49    7.90
  -5   6  -9   53.19    8.80
  -6   5   9   43.70    8.50
  -6   6  -9   74.49   12.00
  -6  -6   9   71.89   11.20
  -6  -6   9   80.59   10.50
  -6   6   9   74.79   12.10
  -6  -6  -9   68.99   14.20
   6  -6   9   76.49   13.00
   6   6   9   73.99   16.90
  -6  -6   9   88.89   12.70
   6   6  -9   50.09    9.40
  -6   6  -9   62.69   17.80
   6   6   9   80.79   10.80
   6   6  -9   73.99   10.30
  -6  -6  -9   53.49   14.50
  -6   6  -9   86.29   12.90
   0   7   9   72.99   13.80
   0  -7  -9   73.69   10.40
   0   7   9   54.49    8.70
  -7   0  -9   66.69   11.00
   0  -7   9   77.99   11.50
   7   0  -9   62.99   10.60
   7   0   9   53.09    7.90
   0  -7   9   46.00    8.30
  -7   0   9   56.79    9.70
  -7   0  -9   41.70   14.40
   7   0   9   45.60   10.40
   0   7  -9   67.09   10.20
  -7   0  -9   55.09   11.10
   0  -7  -9   57.39   10.70
   0   7   9   74.09    9.70
  -1  -7  -9  188.68   16.60
   7   1   9  144.99   11.80
   1  -7   9  169.08   13.50
  -7   1  -9  188.18   15.50
  -7  -1   9  166.48   15.10
  -7   1  -9  165.08   23.10
   7   1   9  164.88   16.90
  -1   7   9  151.38   11.50
   1  -7   9  154.98   13.50
  -1   7   9  192.48   22.00
  -1  -7  -9  184.38   15.40
  -7  -1   9  140.79   13.80
  -7   1  -9  162.38   13.60
   1   7  -9  166.58   12.20
  -1   7   9  167.18   11.80
   7  -1  -9  157.88   14.40
  -7   1   9  145.79   13.50
  -7  -1  -9  195.18   22.60
   7   1  -9  154.58   14.30
   7  -1   9  137.59   11.60
   1   7   9  154.68   11.80
  -1  -7   9  147.89   13.40
   7   1  -9  151.98   10.30
   1  -7  -9  187.98   15.90
   1   7   9  169.38   10.90
  -1   7  -9  168.58   12.30
   1   7   9  146.39   21.10
  -1   7  -9  150.28   17.20
  -1  -7   9  159.88   12.90
   1  -7  -9  158.68   14.00
  -1  -7   9  153.28   13.00
   7   1  -9  163.68   15.90
   7  -1   9  164.18   15.10
  -7  -1  -9  157.18   11.00
   7   2   9   63.79   16.10
   7  -2  -9   92.19   12.60
  -2   7   9   93.99   10.50
  -7   2  -9   81.09   12.90
  -7  -2   9   88.69   11.60
  -7   2  -9  100.59   12.80
  -7  -2   9   87.39   10.40
   2   7  -9   66.69    7.50
  -2  -7  -9   85.29   14.50
   2  -7   9   96.99   12.10
   2  -7   9  100.39   11.70
   7   2   9   88.69   10.70
  -2  -7  -9  119.19   17.00
  -2   7   9  145.59   19.40
  -2   7   9   85.39   10.50
   2   7  -9   84.79   11.40
  -7   2  -9   96.59   18.40
   7  -2   9   93.99   13.50
  -2  -7   9   79.99   12.20
   2   7   9   67.59   14.20
  -2   7  -9   87.89   11.40
  -2   7  -9   75.89   12.80
  -2  -7   9   87.29   11.80
   7   2  -9   89.99   10.60
   7  -2   9   82.09    9.20
   2  -7  -9  136.49   23.10
   2   7   9   81.99   11.70
   2  -7  -9   96.19   11.50
  -7  -2  -9   82.99   15.60
   2   7   9   85.09   10.10
  -2  -7   9   93.29   11.10
   7   2  -9   92.89   12.80
  -7   2   9   73.69   11.40
  -7   3  -9  173.78   15.40
  -7   3  -9  198.18   14.90
   7   3   9  202.28   25.40
   3  -7   9  136.59   14.40
   3   7  -9  169.88   13.50
   7  -3  -9  171.18   14.90
  -7  -3   9  166.88   13.20
  -3   7   9  163.18   12.40
  -7  -3   9  170.58   13.90
  -3   7   9  185.48   20.80
   7   3   9  164.78   12.60
   3  -7   9  173.78   14.30
  -7   3  -9  192.58   24.60
  -3  -7  -9  164.58   16.90
  -3  -7  -9  142.79   17.70
  -7  -3   9  173.88   12.90
  -3   7   9  188.18   12.80
   7   3  -9  180.58   13.10
   3   7   9  181.48   13.30
   3  -7  -9  173.18   13.70
   3  -7  -9  171.98   14.00
  -3   7  -9  164.38   12.40
  -3  -7   9  179.48   12.80
  -3  -7   9  171.68   14.20
   7  -3   9  166.08   12.60
  -7   3   9  135.19   13.20
   3   7   9  160.18   12.40
  -3   7  -9  162.68   15.60
   7   3  -9  172.68   14.20
   3   7   9  192.08   22.30
  -7  -3  -9  168.78   22.00
  -7  -3  -9  162.48   19.50
  -3  -7   9  168.28   13.60
  -7   4  -9   51.79   11.10
   4  -7   9   57.89    9.90
  -4   7   9   71.79    9.80
  -7  -4   9   86.59   12.50
   7   4   9   59.59   17.80
   7   4   9   54.59    8.60
  -4   7   9   81.69   14.00
  -7  -4   9   45.10    9.10
  -7   4  -9   68.09   10.60
  -7   4  -9   49.90   16.10
   4   7  -9   62.89    8.30
  -4  -7  -9   46.30   12.70
   7  -4  -9   48.60   10.40
  -4  -7  -9   48.50   12.00
   4   7  -9   58.79    8.90
  -4   7   9   47.60    8.60
   4  -7   9   51.39   10.40
   7  -4   9   38.40    8.80
   4  -7  -9   45.70    7.30
   7  -4   9   76.49    9.40
  -4  -7   9   54.39    9.20
   4   7   9   56.99    8.30
  -4   7  -9   54.69    9.50
  -4  -7   9   45.00    9.10
   4  -7  -9   57.69   10.10
  -4   7  -9   69.19   11.40
   7   4  -9   60.29    9.70
   4   7   9   70.99   15.70
  -7  -4  -9   76.69   15.50
  -4  -7   9   57.09    8.90
  -7  -4  -9   55.09   13.80
   7   4  -9   58.89    9.20
  -7   4   9   62.19   10.60
   7  -5  -9   50.09   10.60
  -7  -5   9   84.59   13.10
  -7   5  -9   60.39   11.50
   5   7  -9   46.10    8.00
   7   5   9   51.09    8.50
   5   7  -9   53.99    9.60
  -7   5  -9   34.80    9.20
  -5  -7  -9   54.09   11.90
  -5   7   9   42.20    8.50
  -5   7   9   53.49    9.40
  -5  -7  -9   34.30   12.40
   7   5   9   30.20   14.80
  -5   7   9   61.39   12.90
   5  -7   9   54.09   10.20
  -7   5  -9   86.09   18.80
  -7  -5   9   38.30    8.70
  -7  -5   9   74.99    9.90
  -5   7  -9   70.29   12.00
   7  -5   9   71.19   11.00
  -7  -5  -9   48.30   14.70
  -5  -7   9   62.29    9.90
   5   7   9   32.30   16.10
  -5   7  -9   43.20    8.80
  -7  -5  -9   39.50   14.20
   5   7   9   51.69    8.20
   5  -7  -9   52.79    8.70
  -7   5   9   40.80    8.70
  -5  -7   9   65.69   10.00
   7   5  -9   57.69    9.30
  -5  -7   9   61.39   10.30
   7  -5   9   51.59    8.70
   6   7  -9  101.79   14.30
  -6  -7  -9   86.59   16.60
  -7  -6   9  109.89   14.20
   6  -7   9   91.49   14.10
   7   6   9   90.29   11.40
  -6   7   9   83.29   12.10
  -6  -7  -9  104.69   17.40
   6   7  -9   94.89   11.60
  -7   6  -9  102.59   14.60
   7  -6  -9   97.79   13.80
   7   6   9   64.69   16.70
  -7  -6   9   81.49   11.40
  -7  -6   9   93.09   13.00
   6   7   9   89.19   11.30
   7   6  -9   97.49   15.20
  -6  -7   9   84.49   13.20
  -6  -7   9   87.79   13.00
  -6  -7   9   95.59   13.60
   7   6  -9   99.99   12.40
  -6   7  -9  117.19   13.70
   6  -7  -9  102.79    7.90
   7  -6   9  100.49   13.60
  -6   7  -9   72.39   12.40
   6   7   9  104.09   18.30
  -7  -6  -9  101.79   15.50
  -7   6   9   81.89   12.70
   7  -6   9  116.49   12.60
  -7  -7   9  101.19   14.70
   7   7   9   94.09   12.10
  -7  -7  -9   94.09   15.80
   7   7  -9   88.39   12.40
   7  -7   9   99.29   14.40
  -7  -7   9  135.19   14.90
   7   7  -9   81.09   12.20
  -7   7   9   83.79   12.60
   7  -7  -9   70.79   17.70
  -7   7  -9   97.79   14.80
   0  -8   9   26.10    7.90
   0   8   9    8.80    6.70
  -8   0   9   20.70    8.50
  -8   0  -9    4.70   10.60
   8   0   9   21.70    7.10
   0   8   9   29.40    7.80
   0   8  -9   32.00   11.00
  -8   0  -9   28.30    9.50
   8   0   9   19.40    9.80
   0   8   9    2.70   13.00
  -8   0  -9   21.30   15.40
   8   0  -9   34.40   10.10
   0   8  -9   26.60    7.70
   0  -8  -9   28.70   10.40
   0  -8  -9   38.90    9.40
   0  -8   9   19.20    7.20
  -8   1  -9  128.59   15.20
  -8  -1   9  101.59   13.50
   8  -1  -9  143.49   14.20
  -8   1  -9  118.99   19.20
  -1   8   9  128.89   11.40
   1   8  -9  138.79   12.30
   1  -8   9  142.09   12.70
  -8   1  -9  166.88   13.40
   8   1   9  119.19   11.50
   1  -8   9  108.39   13.60
  -1  -8  -9  139.89   16.50
  -1   8   9  120.09   11.50
  -1  -8  -9  154.08   15.60
  -1   8   9  145.09   17.40
   8   1   9  140.79   17.30
   1  -8  -9  149.88   15.50
  -1  -8   9  139.99   13.20
   1   8   9  137.09   14.20
  -8  -1  -9  157.28   21.80
  -1   8  -9  124.79   12.00
   8  -1   9  125.19   15.00
   1   8   9  142.59   17.90
   8  -1   9  132.89   11.80
   1   8   9  135.19   11.40
   8   1  -9  126.69   14.00
   8   1  -9  100.59   12.60
  -1  -8   9  132.49   12.70
  -8   1   9  112.79   13.20
   8   1  -9  116.59    9.50
   1  -8  -9  140.39   13.70
  -1   8  -9  129.09   16.60
   8  -2  -9   58.29   11.10
  -2  -8  -9   34.90   11.40
  -8  -2   9   67.79   10.80
  -8   2  -9   52.49   10.10
  -2   8   9   72.39    9.70
   2  -8   9   69.99   10.30
   2   8  -9   49.10    8.50
  -2   8   9   71.89   14.60
  -8   2  -9   40.10   10.30
   8   2   9   94.09   17.90
   2  -8   9   57.79   10.10
   8   2   9   46.90    8.50
  -2   8   9   77.29   10.30
  -2  -8  -9   57.89   11.00
  -8   2  -9   50.89   16.20
  -8  -2   9   51.59    7.60
   8   2  -9   67.99   10.50
   2  -8  -9   44.70   10.00
  -8  -2  -9   34.30   15.10
   8   2  -9   53.19    8.60
  -2  -8   9   58.49    9.80
  -2  -8   9   58.89    9.40
  -8   2   9   64.39   10.70
  -2   8  -9   46.80   11.90
   2   8   9   49.99    8.00
   8  -2   9   35.90    9.20
   2   8   9   63.69   14.30
  -2  -8   9   48.50    9.20
   8  -2   9   55.19    8.50
   2  -8  -9   63.99    9.60
  -2   8  -9   42.30    8.10
   2   8   9   62.19    9.30
  -3   8   9  125.89   11.30
  -8  -3   9   89.19   12.90
   8   3   9  107.79   19.80
  -3   8   9  138.89   21.60
   3   8  -9  109.79   13.20
  -3  -8  -9  103.99   17.10
   8  -3  -9   87.49   12.30
   3  -8   9  109.09   14.20
   8   3   9   96.29   11.00
   3  -8   9   99.39   12.80
  -8   3  -9  117.89   14.80
  -3  -8  -9   96.79   13.00
  -8   3  -9   82.79   17.50
  -8  -3   9  103.79   12.50
  -3   8   9  106.29   11.40
  -8   3  -9   98.89   14.30
   3   8   9  107.89   10.90
   8  -3   9   95.99   14.00
  -3  -8   9  115.69   12.30
   8   3  -9  110.99   13.60
  -8  -3  -9   83.19   15.40
   3  -8  -9   83.49   11.40
  -8  -3  -9  128.59   23.00
   8   3  -9  101.89   13.30
   3   8   9  113.89   17.30
  -8   3   9   92.09   12.80
  -3   8  -9  106.09   12.40
  -3  -8   9   88.79   13.30
  -3   8  -9  138.19   15.40
  -3  -8   9   88.79   13.10
   8  -3   9  103.09   11.70
   4   8  -9   33.30    8.80
   4   8  -9   29.80    8.30
  -4  -8  -9   24.30   11.90
  -8  -4   9   47.10    9.20
   8  -4  -9   38.90   10.10
  -4   8   9   80.09   16.00
  -4   8   9   34.10    7.90
  -4   8   9   38.70    8.60
   8   4   9   47.50   17.20
  -8   4  -9   36.00   16.80
  -8   4  -9   38.60   10.40
   4  -8   9   24.50    8.40
  -8  -4   9   19.50    8.80
   4  -8   9   21.20    9.00
  -4  -8  -9   24.30   10.30
   8   4   9   31.40    8.00
  -8   4   9   47.60   10.50
   8   4  -9   32.20   10.10
  -4   8  -9   38.90   11.20
   8   4  -9   30.60    9.20
  -8  -4  -9   32.30   13.90
   4  -8  -9   63.99   10.80
   8  -4   9   30.80    9.20
  -4  -8   9   46.50    8.90
   8  -4   9   32.90    8.60
   4  -8  -9   60.19    9.40
   4   8   9   41.30    8.80
  -4  -8   9   49.00    9.00
  -4   8  -9   39.20    8.50
   4   8   9   47.50   15.80
  -8  -4  -9   37.90   16.40
  -4  -8   9   43.40    9.20
  -8   5  -9   33.00    9.80
  -8   5  -9   41.20   11.20
  -5   8   9   55.39   10.10
  -8  -5   9   44.70   10.80
  -8  -5   9   96.99   14.30
   8   5   9   60.99    9.20
  -8  -5   9   54.39    9.90
   5  -8   9   52.29   11.20
   8   5   9   38.70   31.70
  -5  -8  -9   32.90   11.60
   5   8  -9   53.79    9.90
  -5   8   9   51.59    8.90
   8  -5  -9   42.40   11.40
  -5  -8  -9   17.60   15.90
  -8  -5  -9   65.99   18.10
  -5  -8   9   52.59    9.70
  -5  -8   9   70.49   10.10
  -8   5   9   50.59   10.30
   5   8   9   28.50   15.60
   8  -5   9   66.49    9.60
   8  -5   9   34.30   10.00
   5  -8  -9   45.60    7.40
  -5  -8   9   76.29   13.80
   8   5  -9   30.80    9.30
   5   8   9   37.60    7.70
  -5   8  -9   47.00   10.90
   8  -6  -9   71.49   11.90
  -6  -8  -9   50.79   15.60
  -6   8   9   44.10    9.10
  -8  -6   9  104.39   15.00
   6   8  -9   57.49   11.10
   6   8  -9   55.59    9.20
  -8  -6   9   61.89   10.30
   6  -8   9   61.59   11.50
   8   6   9   56.89    9.30
  -8   6  -9   70.09   12.10
  -8  -6   9   42.20   14.60
   6   8   9   51.59    9.10
  -8  -6  -9   42.00   12.80
   8   6  -9   46.40   12.30
   8  -6   9   55.19   12.10
  -6  -8   9   54.99   10.50
  -8   6   9   48.90   12.20
  -6  -8   9   58.69   12.80
  -6   8  -9   68.29   11.60
  -6  -8   9   48.50    9.90
   8   6  -9   56.29   10.30
  -7   8   9   54.79   10.60
  -8  -7   9   67.69   11.40
  -8  -7   9   49.60   10.80
   7   8  -9   66.99    9.90
  -8   7  -9   57.09   12.20
  -8  -7   9   80.49   12.20
  -7  -8  -9   36.80   12.80
   7   8  -9   51.59   12.30
   8   7   9   58.49    9.70
   7  -8   9   51.69   10.70
   8  -7  -9   46.40   11.70
  -8   7   9   58.09   10.60
  -7   8  -9   45.90   13.50
   7   8   9   53.99    9.00
   8   7  -9   44.80    9.60
   8   7  -9   58.09   13.40
  -7  -8   9   45.80   10.30
  -7  -8   9   77.09   11.60
   7  -8  -9   64.49   11.30
   8  -7   9   55.59   10.90
  -7  -8   9   69.09   11.40
  -8  -7  -9   60.39   14.70
   8   8  -9   36.20    9.00
  -8   8   9   20.50    9.10
   8   8   9   32.30    8.90
  -8  -8  -9   34.70   12.10
   8  -8  -9   44.50   11.30
  -8  -8   9   46.00   11.30
   8   8  -9   -4.20   12.50
   8  -8   9   29.80   10.30
  -8  -8   9   42.10   11.90
  -8  -8   9   35.60   10.80
  -8   8  -9   28.70   11.70
   0   9  -9   -4.60    9.60
   0  -9  -9    6.80    9.10
   0  -9   9    1.40    6.50
   9   0  -9   12.90    9.90
   9   0   9   11.20   11.20
   0   9   9    3.00    7.40
   0  -9   9   10.60    7.60
  -9   0   9    1.50    8.30
   0   9   9  -10.60   14.50
   0  -9  -9   -5.70    9.80
  -9   0  -9   -4.70   10.80
  -9   0  -9    6.20   17.50
   9   0   9  -11.40    6.90
   0   9   9   -3.30    6.30
   0   9  -9    5.80    7.00
   1   9  -9   42.20   12.40
  -1  -9  -9   31.20   11.10
   1  -9   9   35.60    8.70
   9   1   9   36.30   12.10
  -1  -9  -9   33.90   10.90
  -1   9   9   44.00   15.50
   9  -1  -9   45.60   10.70
  -9  -1   9   20.40    9.70
  -9   1  -9   55.99   11.90
   1   9  -9   36.60    8.20
  -1   9   9   46.20    8.10
   1  -9   9   31.70    7.90
  -1   9   9   33.20    7.60
  -9   1  -9   20.40   16.60
   9   1   9   31.20    8.20
  -9   1  -9   30.40   10.20
   1  -9  -9   31.40   10.10
  -9   1   9   32.50   10.10
   1   9   9   65.29   15.50
  -1  -9   9   42.10    9.50
   9  -1   9   31.10   10.40
   9  -1   9   38.10    8.40
   9   1  -9   20.90    9.80
   1   9   9   46.90    8.80
   1  -9  -9   30.30    9.40
  -1  -9   9   41.70    9.20
  -1   9  -9   52.99   12.60
   1   9   9   31.00    7.60
  -9  -1  -9   61.19   17.20
  -1   9  -9   31.00    7.50
   9  -2  -9    5.00    9.70
  -9   2  -9   -1.20    9.50
   2  -9   9    8.30    7.10
  -9  -2   9   12.90    9.10
  -2   9   9    5.50    6.70
   9   2   9    0.20    6.60
  -2  -9  -9    2.40    9.90
  -9   2  -9    1.80   24.30
  -2   9   9   19.00    7.60
   2   9  -9    8.50    7.30
  -2   9   9    6.50   14.70
  -9   2  -9    1.40    9.00
   9   2   9   23.70   17.10
  -2  -9  -9   12.00   11.30
   2   9   9   12.90    7.20
   9  -2   9    9.00    7.70
   9   2  -9   -1.40    8.60
  -2  -9   9   17.20    6.90
  -2   9  -9   -1.90    9.30
   9  -2   9   19.80    9.80
   9   2  -9    2.30    8.90
  -2  -9   9   -1.10    7.40
  -9   2   9   10.10    8.80
  -2   9  -9   10.40    7.30
   2   9   9   19.20   15.30
   2  -9  -9    7.90    8.90
   2   9   9   10.40    6.60
   2  -9  -9    9.90    8.50
  -9   3  -9    0.70    9.70
  -3  -9  -9   12.70   10.40
   3  -9   9    8.20   11.30
   3   9  -9    2.20    7.40
  -9   3  -9    3.60    9.40
   9  -3  -9   -9.50   12.40
  -9  -3   9    1.80    8.80
   9   3   9   -2.70   27.40
  -3   9   9    5.30    7.10
  -3   9   9   13.30   14.70
  -9  -3   9   11.30    8.70
  -3   9   9    1.80    6.90
  -3  -9  -9   -3.10   11.70
   9   3   9    5.50    7.10
   3  -9  -9    4.20    8.00
   9  -3   9   19.90    8.20
   3   9   9   11.00   15.80
  -3  -9   9   -5.60    6.70
  -9  -3  -9    4.20   18.90
  -3  -9   9   -8.60    8.90
   3  -9  -9   12.20    8.30
  -3  -9   9    6.40    8.20
   3   9   9   12.40    6.80
  -3   9  -9   20.70   10.40
   9  -3   9    3.60    9.00
   9   3  -9   -5.80    8.60
  -9   3   9    6.00    8.30
   9   3  -9    9.50   10.30
  -4   9   9    1.40    6.90
  -4  -9  -9  -15.30   19.50
   4  -9   9   -3.60    7.70
  -4   9   9    9.80    7.60
   4   9  -9    5.90    8.20
   9  -4  -9   -3.50   10.10
  -4   9   9   -7.20   14.80
  -9  -4   9   13.90   10.80
  -4  -9  -9    4.60   10.20
  -9  -4   9    1.50    9.10
  -9   4  -9   13.50    9.70
  -4  -9   9   26.50   11.40
  -4  -9   9    6.50    7.60
   9   4  -9    3.00   11.50
   9  -4   9   -5.10    8.20
  -4   9  -9    1.40   10.60
   4  -9  -9   15.40    8.10
   4  -9  -9    1.90   12.60
  -9   4   9    7.80    8.80
   4   9   9    6.30   16.20
   9   4  -9   25.70    9.70
  -9  -4  -9  -18.60   12.50
  -4  -9   9    0.10    8.30
   4   9   9    3.90    9.70
   9  -5  -9   -3.00   10.00
  -9  -5   9   22.30   10.40
  -5   9   9    8.40    7.70
   9   5   9    3.90    7.20
  -5   9   9   -6.60    8.40
  -5  -9  -9    6.40   11.60
  -9  -5   9    4.90    9.40
   5   9  -9   -2.60    8.60
  -9   5  -9   -6.80   10.20
   5  -9   9   -3.50    8.30
  -5  -9   9   15.00    9.00
  -5   9  -9   -0.40   10.10
  -9   5   9    9.00    8.50
  -9  -5  -9   16.90   12.80
   9   5  -9   -2.90    8.80
  -5  -9   9   -4.80    8.60
   5  -9  -9   14.00    9.50
   5   9   9    5.50    7.20
   9  -5   9    1.40    8.80
   9  -5   9    9.60    9.30
  -5  -9   9   18.90    8.80
  -9  -6   9   11.90   10.70
   6   9  -9   -3.20    9.90
  -6  -9  -9    2.30   10.30
   6  -9   9   19.50   10.00
  -9  -6   9   11.70   10.20
  -9  -6   9    8.60    8.20
   9   6   9    1.20    7.40
   9  -6  -9   13.30   10.60
  -6   9   9    0.70    8.40
  -9   6  -9   14.50   10.50
   9  -6   9    6.50    8.90
  -6   9  -9    5.00    9.60
   9   6  -9  -25.90   13.20
  -6  -9   9    3.80    8.70
  -9   6   9   12.50    9.20
  -9  -6  -9    8.20   12.80
  -6  -9   9    9.20    9.10
   6   9   9    8.00    7.50
   9   6  -9   24.60    9.10
  -6  -9   9   20.90    9.70
  -9  -7   9   12.90    9.90
   9   7   9    8.10    8.00
   9  -7  -9    8.70   10.70
  -9  -7   9   13.20   10.70
  -9  -7   9   22.30   11.50
  -7  -9  -9    9.70   11.40
  -9   7  -9   26.70   11.30
  -7   9   9    9.00    8.30
   7   9  -9   10.50   12.00
   7  -9   9    1.20    8.70
  -9  -7  -9    4.70   12.00
   7  -9  -9   13.00    9.90
  -7  -9   9    2.80   10.00
   9  -7   9   13.40    9.70
  -7   9  -9   -4.30    9.50
  -9   7   9    3.00    8.50
  -7  -9   9   11.00    9.10
   9   7  -9   -3.20    8.60
  -7  -9   9    9.50   10.00
   9   7  -9  -22.00   13.30
   7   9   9    6.00    7.00
   9  -8  -9    9.00   10.30
   8  -9   9   12.10    9.90
   8   9  -9  -17.70   13.20
  -9   8  -9    1.20   10.60
   9   8   9    5.80    7.60
  -8  -9  -9    8.60   11.20
  -9  -8   9   20.30   11.60
  -9  -8   9    9.30   11.80
  -8   9   9    5.40    8.40
  -9  -8   9   -4.80    8.80
   9   8  -9   -1.00   14.50
  -8  -9   9   10.40    9.80
  -9   8   9   -2.20    8.10
  -9  -8  -9    4.10   12.90
   8   9   9    2.60    7.30
  -8   9  -9   28.80   10.90
  -8  -9   9    1.20   11.00
   8  -9  -9   14.50   10.90
  -8  -9   9   10.10   16.80
   9   8  -9   -8.00    8.50
   9  -8   9   20.20    9.70
  -9   9   9    2.10    8.90
   9  -9  -9    1.10   10.50
  -9  -9   9   -1.70   12.40
  -9  -9   9    1.20   10.20
   9  -9   9    1.90    9.60
  -9  -9  -9  -11.10   11.30
   9   9  -9   -8.90   10.20
  -9   9  -9   -0.90    9.80
   9   9   9    2.50    7.80
   9   9  -9  -27.80   19.90
  10   0   9   60.69    9.90
   0 -10  -9   73.29   11.70
   0  10  -9   55.09   12.70
 -10   0   9   77.39   11.80
   0  10   9   57.19   17.20
  10   0   9   63.79   14.80
   0  10   9   65.59   11.30
   0  10   9   57.99    9.30
  10   0  -9   55.49   14.00
   0 -10  -9   55.79   12.00
   0 -10   9   57.49   15.40
  10   1   9  167.68   14.40
  -1  10   9  184.28   26.30
  -1 -10  -9  204.78   17.40
 -10  -1   9  140.79   16.00
  -1 -10  -9  168.48   18.90
  -1  10   9  169.78   13.60
  10  -1  -9  178.78   16.60
   1 -10   9  156.88   14.30
  -1  10   9  196.28   14.70
   1  10  -9  192.88   19.30
  10   1  -9  192.78   22.50
   1 -10  -9  171.98   16.90
   1  10   9  178.98   26.90
  -1  10  -9  186.98   17.40
  10  -1   9  199.38   14.10
   1  10   9  195.28   13.80
  10  -1   9  161.08   18.90
   1 -10  -9  196.08   15.80
 -10   1   9  160.38   15.50
  -2  10   9  104.49   12.10
  -2 -10  -9  141.59   16.80
  -2 -10  -9  141.09   19.50
 -10  -2   9  109.69   14.70
   2  10  -9  112.79   18.30
  10   2   9  110.29   14.10
  10  -2  -9  102.49   14.90
   2 -10   9  107.79   13.50
  -2  10   9  136.89   19.10
 -10   2  -9  124.99   15.90
  10  -2   9  114.89   16.50
  10   2  -9  100.29   12.60
   2 -10  -9  131.19   14.90
   2  10   9  113.99   13.10
   2  10   9  167.18   25.80
  10  -2   9  136.89   13.80
 -10   2   9   70.19   11.10
   2 -10  -9  117.29   13.60
 -10  -2  -9   97.89   17.60
  -2  10  -9  122.29   16.70
  10  -3  -9   83.49   13.00
  -3 -10  -9  113.19   17.70
  -3  10   9   81.59   18.30
 -10  -3   9   78.39   12.50
   3 -10   9   98.49   13.60
  10   3   9  116.29   12.40
  -3  10   9  107.89   12.20
 -10   3  -9  114.19   16.00
  -3  10   9   81.89   12.30
 -10  -3  -9   80.39   16.20
  10   3  -9  109.39   14.10
   3  10   9  123.79   12.50
  10  -3   9   76.29   12.20
 -10   3   9   94.59   13.60
  10  -3   9   88.99   13.20
   3 -10  -9  126.59   13.80
   3  10   9  114.99   21.10
  -3  10  -9   74.69   12.50
  -3 -10   9   96.19   16.40
   3 -10  -9  100.59   13.80
  10   4   9   50.99    9.30
  -4 -10  -9   53.29   12.50
   4 -10   9   66.59   11.10
 -10  -4   9   41.70   10.50
 -10   4  -9   47.50   12.00
  -4  10   9   45.00    9.20
  -4  10   9   47.90   10.40
  10  -4  -9   40.50   10.90
   4 -10  -9   42.90    9.60
   4 -10  -9   54.49    9.70
  -4  10  -9   46.70   11.40
  10   4  -9   47.40   11.50
 -10   4   9   50.89   10.80
 -10  -4  -9   57.39   14.80
   4  10   9   49.30    8.60
  10  -4   9   48.50   10.70
  10  -4   9   48.10   12.20
  10  -5  -9   43.90   12.00
   5 -10   9   46.70   10.90
  -5 -10  -9   22.00   11.60
 -10  -5   9   48.90   11.60
  -5  10   9   51.99   11.10
 -10   5  -9   44.80   12.50
  10   5   9   35.80    8.60
  -5 -10   9   31.60   10.00
  10   5  -9   52.79   10.70
  -5  10  -9   48.60   11.40
  10  -5   9   44.40   10.40
  10  -5   9   52.39   11.80
 -10   5   9   41.10   10.40
   5  10   9   42.70    8.80
 -10  -5  -9   56.89   15.00
  -6  10   9   90.29   13.00
  10   6   9   46.90    8.90
  -6 -10  -9   41.90   12.30
 -10  -6   9   49.80   10.60
 -10   6  -9   62.19   12.80
   6 -10   9   95.69   14.60
  10  -6  -9   68.49   12.90
  -6 -10   9  100.89   13.60
  10  -6   9   53.39   11.80
   6  10   9   72.49   10.80
  -6 -10   9   53.79   11.20
 -10  -6  -9   62.89   15.90
  -6  10  -9   60.79   12.20
 -10   6   9   61.09   11.20
  10   6  -9   53.09   10.30
  -7  10   9   52.69   10.50
   7 -10   9   49.20   10.70
 -10  -7   9   37.90   10.60
  10   7   9   52.29   10.00
  -7 -10  -9   73.39   13.70
 -10   7  -9   63.19   13.80
  10  -7  -9   51.09   12.00
  -7 -10   9   74.29   12.90
 -10  -7  -9   54.49   14.80
  -7 -10   9   82.59   13.10
  10  -7   9   45.10   11.90
   7 -10  -9   71.49   12.60
  10   7  -9   53.19   10.90
  -7  10  -9   48.50   11.60
 -10   7   9   44.50   10.50
   7  10   9   95.39   12.60
 -10  -8   9   39.60   11.40
   8 -10   9   68.89   12.80
  10  -8  -9   63.29   13.50
  -8 -10  -9   46.30   13.20
  10   8   9   61.09   10.70
 -10   8  -9   41.40   13.10
  -8  10   9   31.70    9.70
  -8  10  -9   47.80   11.70
   8 -10  -9   22.20   11.80
 -10  -8  -9   50.39   14.30
  10  -8   9   49.00   11.40
  10   8  -9   44.30   14.60
  -8 -10   9   44.60   11.60
   8  10   9   56.59   10.40
 -10   8   9   54.49   11.20
  -8 -10   9   81.69   14.40
   9 -10   9   14.40   10.00
  10  -9  -9    8.40   11.40
  -9  10   9   11.90    9.20
 -10  -9   9   20.40   11.40
  10   9   9    4.30    8.00
 -10   9  -9    7.70   11.30
  -9 -10  -9   -4.30   10.80
   9 -10  -9    7.40   11.50
  -9 -10   9   11.70   13.20
 -10   9   9   13.40    9.70
  -9 -10   9    3.70   11.00
   9  10   9   15.40    8.40
  -9  10  -9   18.50   10.90
  10  -9   9    4.60   10.20
 -10  -9  -9   24.40   13.00
   0  11   9  191.48   22.10
   0 -11  -9  142.29   18.30
  11   0   9  121.59   20.40
   0 -11   9  140.69   13.90
   0  11   9  130.99   13.00
   0  11  -9  122.69   16.80
  11   0  -9  126.49   16.40
   0 -11  -9  166.98   16.60
   0  11   9  156.48   14.10
 -11   0   9  144.29   15.40
 -11  -1   9  224.08   17.80
  -1  11   9  276.07   15.50
   1 -11   9  253.17   16.70
  11   1   9  258.07   16.70
  -1 -11  -9  246.68   21.90
  11  -1  -9  259.67   17.70
  -1  11   9  284.47   31.70
  -1 -11  -9  300.07   19.70
  -1  11   9  258.27   16.10
   1  11  -9  247.08   21.30
   1 -11  -9  258.77   18.90
  11   1  -9  245.78   17.60
   1 -11  -9  263.47   17.90
  -1 -11   9  275.37   16.40
   1  11   9  251.67   15.70
  11  -1   9  273.87   16.90
 -11   1   9  196.38   17.70
  -1  11  -9  261.57   19.70
   1  11   9  286.57   30.00
  11  -1   9  224.98   21.70
   2 -11   9  183.08   15.10
  -2  11   9  209.98   14.90
  -2  11   9  185.38   31.00
  11  -2  -9  168.18   16.30
   2  11  -9  171.28   19.50
  11   2   9  196.48   14.90
  -2  11   9  191.68   14.80
 -11  -2   9  155.98   15.60
  11  -2   9  208.28   15.50
 -11  -2  -9  178.28   23.40
   2 -11  -9  183.58   16.70
   2 -11  -9  224.38   16.50
  -2  11  -9  161.08   17.60
  -2 -11   9  192.08   14.80
   2  11   9  188.88   13.90
  11  -2   9  197.68   19.30
 -11   2   9  145.19   15.20
  11   2  -9  166.38   15.90
 -11  -3   9  114.89   15.30
   3  11  -9  126.39   18.80
  11   3   9  123.29   13.80
  11  -3  -9  141.99   16.80
  -3 -11  -9  117.79   17.40
  -3  11   9  141.99   13.50
   3 -11   9  155.98   14.80
  -3  11   9  116.39   13.50
 -11  -3  -9  108.09   17.80
  -3  11  -9  145.09   16.80
   3  11   9  138.69   13.10
  -3 -11   9  136.29   14.00
  11   3  -9  125.59   16.40
 -11   3   9  114.19   14.90
  11  -3   9  131.89   14.50
  11  -3   9  158.98   18.00
   3 -11  -9  137.39   16.30
   3 -11  -9  173.98   16.10
  -4 -11  -9   59.49   12.00
 -11  -4   9   34.80   11.10
  -4  11   9   93.69   12.60
   4 -11   9   61.79   11.10
  11   4   9   54.09    9.90
  11  -4  -9   53.79   12.20
 -11   4   9   47.70   11.40
  -4 -11   9   70.39   10.80
 -11  -4  -9   43.40   16.90
  11  -4   9   57.49   12.90
  -4  11  -9   57.29   11.50
  11   4  -9   56.19   11.40
  11  -4   9   54.69   11.60
   4  11   9   47.30    8.90
  11   5   9   54.09    9.60
  -5  11   9   41.50   10.50
   5 -11   9   66.59   11.60
  -5  11   9   52.39   10.40
  -5 -11  -9   50.99   12.50
  11  -5  -9   54.79   12.50
 -11  -5   9   58.49   11.90
  -5  11  -9   57.39   12.00
   5  11   9   50.09    9.10
 -11   5   9   47.20   11.20
  -5 -11   9   58.59   10.60
  11  -5   9   50.89   12.90
  11  -5   9   91.09   13.20
  11   5  -9   39.50   10.70
 -11  -5  -9   53.19   15.80
  11  -6  -9   63.69   12.90
   6 -11   9   79.99   12.80
 -11  -6   9   63.29   11.60
 -11   6  -9   51.49   22.60
  11   6   9   52.29    9.80
  -6 -11  -9   67.99   13.80
  -6  11   9   79.99   11.70
 -11   6   9   33.10   10.50
  11   6  -9   52.99   11.60
 -11  -6  -9   49.50   15.90
   6  11   9   99.09   12.80
  -6 -11   9   74.59   12.40
  -6  11  -9   63.59   12.30
  11  -6   9   61.19   12.50
  11  -7  -9   53.89   14.50
  -7  11   9   43.00    9.90
 -11   7  -9   67.39   14.60
 -11  -7   9   36.00   11.50
  11   7   9   44.10    9.90
   7 -11   9   45.80   10.50
  -7 -11  -9   54.89   13.10
 -11  -7  -9   59.69   15.10
   7 -11  -9   54.99   12.90
  11   7  -9   40.20   10.80
  -7 -11   9   99.89   16.60
 -11   7   9   42.40   11.00
  -7 -11   9   72.49   13.70
  11  -7   9   58.09   11.90
   7  11   9   54.59    9.90
  -7  11  -9   37.90   10.50
   0  12  -9  103.69   16.40
 -12   0   9  104.99   15.60
  12   0  -9   69.49   12.50
   0  12   9   85.19   12.10
  12   0   9   99.19   14.30
   0 -12   9  108.89   13.70
  -1  12   9  177.08   15.20
 -12  -1   9  143.39   16.90
  12   1   9  162.18   15.20
   1 -12   9  168.38   14.60
  -1  12   9  172.98   14.30
  -1 -12  -9  165.08   18.60
  12  -1  -9  146.49   16.90
   1  12  -9  186.68   18.20
  12  -1   9  185.48   15.90
   1  12   9  166.08   14.10
   1 -12  -9  159.28   17.70
 -12   1   9  139.99   15.90
  -1  12  -9  132.79   17.40
  12  -1   9  144.59   21.20
  12   1  -9  157.58   16.60
  -1 -12   9  185.58   14.40
   1 -12  -9  197.38   17.30
 -12  -1  -9  111.89   19.40
  -2 -12  -9  135.19   18.30
  -2  12   9  125.89   13.90
  -2  12   9  117.99   13.00
  12  -2  -9  118.89   16.30
 -12  -2   9  119.19   16.20
   2  12  -9  104.69   15.90
   2 -12   9  133.79   14.50
  12   2   9  126.19   13.90
  12  -2   9  137.99   20.40
   2 -12  -9  139.79   16.10
  -2 -12   9  129.29   13.40
  12  -2   9  132.29   15.70
   2 -12  -9  121.29   17.90
   2  12   9  105.79   12.60
 -12  -2  -9  101.69   17.60
  12   2  -9  111.49   15.60
 -12   2   9  112.59   14.80
  -2  12  -9  145.09   17.00
 -12  -3   9  102.49   15.90
  -3  12   9   92.39   13.40
   3 -12   9  108.99   13.90
  -3 -12  -9  101.79   14.70
  12   3   9  109.59   13.70
  12  -3  -9   71.29   12.70
   3  12  -9   76.09   15.20
 -12  -3  -9   76.79   17.00
 -12   3   9   52.69   10.70
   3  12   9   90.39   12.30
  -3 -12   9  119.39   13.80
  -3  12  -9   87.49   13.70
  12   3  -9   78.39   12.70
  12  -3   9   80.69   14.50
   3 -12  -9  131.29   16.30
  -4 -12  -9   21.30   11.60
  12   4   9   44.40    9.20
   4 -12   9   50.89   11.40
  -4  12   9   43.30   10.90
  12  -4  -9   33.10   12.10
  -4  12   9   56.89   10.90
   4  12  -9   17.90   12.00
 -12  -4   9   26.10   11.20
 -12  -4  -9   35.80   14.80
  12  -4   9   41.20   12.90
   4  12   9   32.40    8.70
  12   4  -9   41.60   11.00
  -4 -12   9   50.79   10.60
  12  -4   9   58.29   12.70
  -4  12  -9   34.90   10.80
 -12   4   9   38.40   11.20
 -12  -5   9   24.70   10.70
 -12   5  -9   28.20   15.90
  12   5   9   28.90    8.60
  12  -5  -9   15.00   11.60
  -5 -12  -9   16.30   12.10
   5 -12   9   42.80   11.10
  -5  12   9   36.40   10.10
   5  12  -9   27.70   13.00
  12  -5   9   46.70   13.50
  -5 -12   9   27.20    9.50
 -12   5   9   31.90   10.70
  -5  12  -9   31.50   10.80
 -12  -5  -9   14.30   14.20
  12   5  -9   25.00   11.20
   5  12   9   19.10    8.10
  12  -5   9   39.50   12.00
 -12   6  -9   15.50   14.80
  12   6   9   40.60    9.60
 -12  -6   9   45.20   12.30
  -6  12   9   49.10   10.70
  -6 -12  -9   59.79   13.60
  12  -6  -9   44.70   12.60
   6 -12   9   58.09   12.20
  -6 -12   9   68.29   12.00
   6  12   9   45.20    9.30
  12   6  -9   49.80   11.80
  -6  12  -9   50.19   10.90
 -12   6   9   57.49   12.00
 -12  -6  -9   26.00   15.10
   6 -12  -9   55.89   13.10
  12  -6   9   24.90   11.70
   0  13   9  115.89   12.70
   0  13  -9  134.89   17.50
  13   0  -9  106.29   16.30
   0 -13  -9  107.09   17.00
 -13   0   9   73.69   13.40
   0 -13   9  109.89   13.90
  13   0   9  106.59   14.90
   1  13  -9   99.59   15.40
  13   1   9  125.09   15.20
   1 -13   9  130.39   14.80
  -1 -13  -9  131.19   17.30
 -13  -1   9  115.69   16.80
  13  -1  -9  121.19   15.70
  -1  13   9  120.19   13.60
   1  13   9  120.79   13.10
   1 -13  -9  160.08   18.70
  -1  13  -9  138.99   18.00
  13   1  -9  123.99   16.90
 -13  -1  -9  112.59   19.80
  -1 -13   9  131.59   13.90
  13  -1   9   94.89   13.00
 -13   1   9  100.99   15.80
 -13  -2   9   58.69   12.10
  -2 -13  -9   97.89   14.50
   2  13  -9   61.39   12.40
  13   2   9   76.69   11.20
  13  -2  -9   79.79   13.00
  -2  13   9   81.79   11.60
   2 -13   9   96.29   12.60
  -2  13  -9   57.39   11.40
 -13  -2  -9   58.19   18.20
  13   2  -9   73.69   12.60
  13  -2   9  115.09   16.50
 -13   2   9   67.39   12.50
  13  -2   9   68.59   15.00
   2  13   9   95.19   12.60
  -2 -13   9  124.29   13.60
  13  -3  -9   72.19   13.30
   3  13  -9   88.59   15.40
  13   3   9   64.79   10.80
  -3  13   9   74.59   11.00
 -13  -3   9   33.60   11.90
  -3 -13  -9   90.89   14.30
   3 -13   9  114.19   14.80
  -3  13   9   86.79   14.40
  13   3  -9   78.79   12.60
  13  -3   9   88.59   14.10
 -13  -3  -9   61.29   17.70
  -3  13  -9   47.00   11.60
   3 -13  -9  122.69   17.00
  -3 -13   9   79.99   13.60
 -13   3   9   73.79   12.30
   3  13   9   79.69   10.70
  13  -3   9   85.39   15.40
   0   0 -10  -14.90   11.50
   0   0  10    0.80    5.60
   0   0  10   -4.90    6.40
   0   0 -10    6.60    6.40
   0   0  10  -10.10    5.60
   1   0 -10   10.30    6.20
  -1   0  10    4.30    8.50
   0   1  10   22.80    6.30
   1   0  10   19.00    6.00
   0  -1  10   18.20    6.50
   1   0  10    4.70    6.10
   0  -1  10   10.80    6.70
  -1   0  10    6.20    6.30
   1   0  10    6.50    7.20
  -1   0  10   12.50    6.40
   0   1 -10   16.00   12.30
   0   1  10   13.90    7.40
  -1   0 -10   11.60   11.90
   0  -1 -10   29.10    7.50
   0  -1  10   10.60    6.20
  -1   0 -10   11.50    7.10
   0   1  10    1.70    5.80
   0   1 -10   16.70    7.20
   1   0 -10    0.50   11.20
  -1   1 -10   -5.10    6.10
  -1   1 -10   10.20   10.80
   1   1  10   12.30    7.60
  -1  -1 -10   12.20   10.40
  -1   1  10    1.70   10.30
   1  -1  10    1.90    5.80
  -1   1  10    3.20    5.90
   1  -1  10   -5.10    5.60
   1   1 -10    8.80    6.10
  -1  -1  10   10.20    6.40
   1   1  10    8.60    6.20
   1  -1 -10    5.10    6.30
   1  -1 -10    0.80   11.60
  -1   1  10    5.70    6.10
  -1  -1 -10    3.80    8.10
   1  -1  10    1.60    6.40
   1   1  10   -1.20    5.70
  -1  -1  10   -1.80    6.00
  -1  -1  10   -0.60    6.20
   2   0 -10    6.80   10.80
  -2   0  10    7.00    5.80
   2   0  10   10.90    7.10
   0  -2 -10    8.60    7.20
  -2   0 -10    2.60    7.00
   0   2  10   10.50    8.20
   0   2 -10   21.60   12.60
   0   2  10    6.50    6.00
   0  -2  10   10.00    6.00
   0  -2  10   -2.40    5.90
  -2   0  10   13.60    6.90
   2   0 -10   16.70    9.80
   2   0  10   11.60    7.30
   2   0  10    3.90    6.10
  -2   0  10    0.90    6.50
   0   2  10   15.20    5.90
   0   2 -10    4.40    6.10
  -2   0 -10    7.60   12.00
   0  -2  10   13.80    7.00
  -2  -1  10   69.09   10.00
   2  -1 -10   62.49   11.50
   1  -2  10   79.39   10.00
   1  -2  10   77.19    9.40
   2   1  10   59.99    8.60
  -1   2  10   63.49    9.00
  -2   1 -10   56.29    8.60
  -2  -1  10   69.79    9.00
   2   1  10   68.09   10.20
   1   2 -10   74.89   14.70
  -2  -1  10   70.79    9.90
  -1   2  10   70.59   10.90
   2  -1 -10   64.79    9.20
   1  -2  10   85.59   11.40
   2   1  10   65.19    9.40
  -1  -2 -10   69.19   13.00
  -2   1 -10   64.39   14.10
   1   2 -10   51.79    7.50
  -1   2  10   65.79    9.60
   2  -1  10   81.69   11.20
  -1   2 -10   61.69   14.60
   2  -1  10   65.79    9.30
   1   2  10   80.59    8.70
  -2   1  10   49.60    8.00
  -2   1  10   65.19    8.60
   1  -2 -10   59.99    8.40
  -1   2 -10   54.59    8.20
  -1  -2  10   85.69    9.90
  -1  -2  10   61.99    8.70
   2   1 -10   75.09    9.20
   1   2  10   77.59   10.60
  -2  -1 -10   80.89   13.60
   1  -2 -10   66.69   12.80
   2   1 -10   55.59   14.30
  -2  -1 -10   39.70    8.70
   2  -1  10   59.59    8.80
  -2   1  10   75.79    9.70
   1   2  10   73.49    9.60
  -1  -2  10   73.29    9.60
  -2  -2 -10   12.80   11.90
   2  -2 -10   16.20    6.10
  -2  -2  10    5.50    6.00
  -2   2  10   -0.20    6.10
   2   2  10   -2.40    5.90
  -2   2 -10   -6.60    6.80
   2   2  10    5.80    5.70
   2   2  10   10.80    9.20
  -2   2  10    1.80    6.10
  -2  -2  10    6.90    6.40
   2  -2 -10   10.60   10.00
  -2  -2  10   13.80    8.00
   2  -2  10   14.70    7.50
   2  -2  10   11.50    6.00
   2   2 -10    6.60    5.60
  -2   2 -10    8.50   12.00
   2  -2  10    2.40    6.10
   3   0  10   16.60    8.30
   3   0 -10   13.00   11.30
   0   3 -10   23.00    6.70
   0   3  10   15.70    6.90
  -3   0  10   19.70    7.00
   3   0  10   27.30    6.60
   0  -3 -10   -7.40   10.80
   3   0  10   24.10    6.70
   0   3 -10   40.40   13.90
  -3   0  10   15.40    7.20
  -3   0  10   12.50    7.80
  -3   0 -10   11.00    7.70
   0  -3  10   16.90    7.50
   0   3  10   16.80    6.20
  -3   0 -10   11.00   13.30
   3   0 -10   20.20    5.60
   0  -3  10   14.00    7.10
   0  -3  10   27.70    7.30
   3  -1 -10  196.08   11.40
  -3   1 -10  188.18   14.30
  -3  -1  10  180.18   12.70
   3  -1 -10  175.48   16.60
   3   1  10  159.88   14.40
  -3   1 -10  182.98   22.00
   1  -3  10  167.68   12.30
  -1   3  10  169.08   11.80
   3   1  10  182.08   11.60
   1   3 -10  181.08   11.70
  -1   3  10  172.38   11.90
   1  -3  10  174.08   13.20
  -3  -1  10  163.08   12.30
   1  -3  10  173.68   11.30
  -1  -3 -10  173.48   18.50
   3   1  10  177.58   11.50
   1   3  10  177.58   10.90
  -1   3 -10  180.08   13.00
   3   1 -10  172.38   10.90
  -1   3 -10  158.68   22.00
  -1  -3  10  163.68   12.20
   3  -1  10  166.08   13.40
  -1  -3  10  171.08   20.90
  -3  -1 -10  215.78   20.70
   3   1 -10  189.08   19.60
  -3   1  10  175.88   12.80
   1   3  10  197.18   21.50
   1  -3 -10  165.38   17.10
  -3  -1 -10  177.38   14.70
   3  -1  10  170.28   11.70
  -1  -3  10  195.28   12.90
   3  -1  10  171.98   11.30
   1  -3 -10  190.58   17.00
  -3   1  10  170.28   12.70
   1   3  10  173.78   11.50
  -2   3  10   66.69    9.90
  -2  -3 -10   89.19   13.70
   3   2  10   53.69    9.40
  -3   2 -10   30.00   13.30
   2   3 -10   36.50    8.40
  -3   2 -10   57.69    9.30
   2  -3  10   81.69    8.50
   3  -2 -10   63.79   11.00
   3   2  10   67.09    9.70
   2  -3  10   78.49   11.20
   3   2  10   50.99   10.30
  -3  -2  10   61.29   10.10
  -2   3  10   65.29    8.70
   2  -3  10   61.89    9.10
   3  -2 -10   77.79    9.10
   3   2 -10   60.39   10.00
  -3   2  10   48.40    8.00
   3  -2  10   74.09    9.20
   2  -3 -10   60.59   10.60
   3  -2  10   53.19    8.50
   2   3  10   57.99   14.90
   2   3  10   73.49    8.90
   3   2 -10   65.89    8.60
   2  -3 -10   59.29    9.80
  -2   3 -10   86.19   16.60
  -2  -3  10   57.19    8.70
   3   2 -10   69.49   14.60
  -2   3 -10   73.89   11.20
  -3   2  10   45.80    8.40
   2  -3 -10   67.59    8.40
  -2  -3  10   59.79    9.90
  -3  -2 -10   58.29   13.70
   2   3  10   70.09    9.10
   3  -3 -10   39.70   15.10
  -3  -3  10    3.20    6.60
  -3  -3  10   -0.30    6.20
  -3   3 -10   -0.60    6.90
   3   3  10   15.90    6.30
   3   3 -10    7.60    5.70
  -3   3  10    7.20    6.70
  -3   3  10    1.20    6.40
   3   3  10   12.10   14.10
   3   3  10   13.80    6.30
   3  -3 -10    4.30    8.60
   3  -3  10   18.40    6.60
  -3  -3 -10   12.80   12.80
   3  -3  10   17.10    7.30
   3   3 -10   15.30    7.40
   3  -3 -10   19.70    6.10
  -3   3 -10   36.30   13.80
  -4   0  10   16.20    7.20
  -4   0  10   19.50    7.30
   0  -4  10   11.40    7.80
   0  -4  10   13.60    7.30
   4   0  10   21.60    6.50
   0   4  10   13.30    6.60
   4   0 -10   23.40   11.10
   0   4  10   13.40    6.40
   0  -4  10   35.40    8.50
   0  -4 -10   16.90    9.10
   0   4  10   51.49   22.00
   4   0 -10   14.40    5.20
   0  -4  10   14.90    6.90
  -4   0 -10   21.20    9.10
   0   4 -10   16.20    6.70
   4   0  10   16.50    7.90
   0  -4 -10   -3.30    9.40
  -4   0 -10   29.90   13.40
  -1   4  10  197.78   12.20
  -4   1 -10  209.18   15.00
   1  -4  10  209.98   13.90
  -1  -4 -10  176.88   16.30
  -4   1 -10  246.98   23.20
  -1   4  10  175.98   21.10
  -4   1 -10  137.39   15.60
  -4  -1  10  190.98   13.50
   1   4 -10  182.28   11.90
   1  -4  10  199.88   12.00
   1  -4  10  195.58   13.30
  -1   4  10  183.48   12.10
   4  -1 -10  166.28   16.00
   4   1  10  196.78   12.30
  -1  -4 -10  192.68   17.80
   4  -1 -10  195.38   10.30
  -4  -1  10  204.98   12.80
   4   1  10  182.38   15.70
   4   1 -10  181.28   19.90
  -1  -4  10  191.78   14.50
  -1  -4  10  209.48   13.20
  -4  -1 -10  176.28   15.00
   1   4  10  176.58   11.90
  -4   1  10  167.38   13.30
   1   4  10  205.78   12.00
   1  -4 -10  167.08   14.80
   4  -1  10  187.48   13.90
   4   1 -10  183.18   10.60
  -4   1  10  168.58   13.20
   4  -1  10  190.58   12.10
  -1  -4  10  177.78   12.80
  -4  -1 -10  140.49   20.30
   1  -4 -10  181.68   16.40
  -1   4 -10  189.08   13.20
   1   4  10  176.08   20.80
   4   1 -10  177.78   14.00
   2  -4  10   46.90    7.50
   4   2  10   45.70   10.90
  -4  -2  10   35.40    8.40
   2   4 -10   33.40    7.10
  -2  -4 -10   31.40   11.40
  -4  -2  10   44.10    7.80
  -4   2 -10   47.80   10.80
   4   2  10   39.50    7.60
   4   2  10   36.50   13.70
  -4   2 -10   59.69   15.40
  -4   2 -10   43.90    9.00
   4  -2 -10   34.90    5.90
   4  -2 -10   48.60    8.60
  -2  -4 -10   65.19   17.90
   4  -2 -10   27.70    9.00
   2  -4  10   46.60    8.70
  -2   4  10   43.40    7.90
  -2   4  10   48.30    8.00
  -2   4 -10   31.70    7.70
  -2   4 -10   47.40   14.60
  -2  -4  10   39.20    8.20
   4  -2  10   38.50    7.30
  -4   2  10   39.20    8.00
  -2  -4  10   42.30    8.10
   2   4  10   39.00   14.00
   4   2 -10   40.10    9.10
   2  -4 -10   24.90    9.50
   2   4  10   33.40    6.50
   4  -2  10   31.70    8.40
  -4  -2 -10   27.20   13.10
  -2  -4  10   32.70    8.30
  -4   2  10   47.70    9.50
   2  -4 -10   36.70    9.00
   2   4  10   42.90    7.90
  -4   3 -10    6.30   13.70
  -3  -4 -10   33.50   10.80
  -4  -3  10   13.30    7.20
   3   4 -10   11.60    6.30
   3  -4  10    9.40    7.70
  -3   4  10   23.90    7.30
   4   3  10   18.90   13.60
   4   3  10    9.40    6.40
   4   3  10   19.00    7.00
   4  -3 -10   17.40    7.10
   4  -3 -10   17.90    7.80
   3   4 -10   13.90    7.70
  -4   3 -10   23.40   10.60
  -4  -3  10   12.40    7.40
   3  -4  10   38.80    7.50
  -3   4  10   19.90    6.90
   4  -3 -10   21.40    5.60
  -4  -3  10    9.20    7.20
  -3  -4 -10   16.50   11.50
  -4   3 -10   34.90    8.70
  -4  -3 -10    0.00   12.10
  -3   4 -10   35.40   15.90
  -3   4 -10   16.20    7.50
  -3  -4  10   19.20    7.50
   4  -3  10   12.90    6.80
   3   4  10   14.30    6.20
  -3   4 -10    3.80   10.10
   4  -3  10   16.70    8.20
   4   3 -10   14.90    6.20
   3   4  10   23.80   14.20
  -4   3  10    9.80    7.70
   3   4  10   27.60    7.60
   3  -4 -10   20.90    8.10
   3  -4 -10   21.80    8.60
   4   3 -10   33.50    8.00
  -4   3  10   25.30    7.50
  -3  -4  10   23.50    7.40
  -3  -4  10   25.90    7.60
   3  -4 -10   21.00    7.20
   4  -4  10    1.90    6.30
   4  -4 -10    4.60    7.30
  -4  -4  10   15.80    7.70
  -4  -4  10    5.80    6.60
   4   4  10    5.60    6.10
  -4   4 -10    5.70    9.90
   4  -4  10    3.30    7.00
  -4   4  10   14.00    7.30
  -4   4 -10   -4.40    6.70
  -4  -4  10    5.80    7.20
  -4  -4 -10   -3.80   11.80
   4   4  10    4.80    6.10
  -4  -4 -10   17.90   10.80
   4  -4 -10    6.80    7.40
  -4   4  10    8.30    6.80
   4   4  10    4.50   14.40
  -4   4 -10   13.60   15.40
   4   4 -10    8.70    7.70
   4  -4 -10   11.30    5.50
   0  -5 -10   -3.50    9.60
   0  -5  10   15.60    7.90
  -5   0 -10   11.00    9.20
  -5   0 -10    9.20    9.10
  -5   0  10   13.70    7.10
   5   0 -10   20.30   10.60
   0  -5  10   21.30    7.70
   0  -5 -10   16.40    9.60
   5   0  10    9.00    6.60
   0   5  10   20.20    6.50
   0  -5  10   11.80    7.40
   0   5 -10   17.50    6.90
   5   0 -10   -1.40    7.90
  -5   0 -10   27.00   14.50
   5   0 -10   11.70    4.80
   5   0  10    0.90    8.60
   0   5  10   17.80    6.90
   0   5  10   23.30   13.00
  -5   0  10    7.40    7.30
  -1   5  10   86.89   10.60
   5  -1 -10   77.99   12.70
  -5   1 -10   91.99   17.20
   1   5 -10   74.89   10.10
   1  -5  10   80.19   10.70
   1  -5  10   76.19   12.20
   5  -1 -10   95.89    7.20
  -5  -1  10   75.39   10.60
   5   1  10   70.69   10.90
   5  -1 -10   81.39   11.00
  -1  -5 -10   66.09   12.20
   1  -5  10   56.79    8.90
  -1   5  10  101.19   14.90
   1  -5  10   99.09   11.10
  -1   5  10   74.99    9.80
  -5   1 -10   83.99   14.00
  -5   1 -10   75.79   11.00
   1   5 -10   93.09   10.50
  -5  -1  10   69.59   10.70
   5   1  10   65.09    9.80
  -1  -5 -10   87.69   14.30
   1   5  10   73.79   10.20
  -1   5 -10   76.19   11.10
  -5   1  10   66.29    9.80
  -1  -5  10   72.59   12.00
   1  -5 -10   58.69   12.80
  -5  -1 -10   83.49   12.50
  -5  -1 -10   65.59   15.50
   5   1 -10   84.89   13.40
   5   1 -10   82.79   11.10
  -1  -5  10   69.89   10.30
  -1  -5  10   74.19    9.70
   1   5  10   72.89   15.70
   1  -5 -10   52.99    9.90
   5   1 -10   97.39    9.00
   5  -1  10   86.99   11.50
   1   5  10   88.09   10.00
  -5  -1 -10   59.59   10.80
   5  -1  10   71.49    8.80
   2   5 -10   -8.80    7.40
   5   2  10  -12.50   14.40
  -5   2 -10   -1.00    7.30
  -2  -5 -10    0.00   10.20
  -2   5  10   -0.80    5.70
   5   2  10   -0.20    6.00
   5  -2 -10    2.90    9.60
  -2   5  10   -2.70    6.50
  -2  -5 -10    9.40   10.10
  -5   2 -10    3.60    9.10
   2   5 -10   -5.50    6.00
  -2   5  10   -5.50   12.40
   2  -5  10    5.70    7.20
   5  -2 -10    6.10    3.70
   5   2  10    3.80    9.70
  -5  -2  10    3.60    6.80
   2  -5  10    8.80    7.10
  -5   2 -10    5.00   14.20
   5  -2 -10    1.30    6.50
  -5  -2  10   13.10    7.10
   2  -5 -10   -5.00    8.70
   5  -2  10   -0.40    6.40
   2   5  10    7.40    8.20
  -5  -2 -10   12.60    8.50
   5  -2  10   -3.40    7.80
   5   2 -10   -8.90    5.30
   2   5  10    4.00    6.60
   2  -5 -10  -19.20   13.10
  -2   5 -10   10.10    6.80
  -2  -5  10   -1.60    7.00
  -2  -5  10    0.10    6.60
  -5   2  10    3.30    6.70
  -5  -2 -10    1.60   12.80
  -2  -5  10   11.60    7.50
   5   2 -10   -2.00    7.90
   2   5  10  -11.00   13.20
   5   3  10   14.40    6.70
   5   3  10   -1.00   14.00
   3   5 -10   38.30    8.30
  -3   5  10    9.60    6.70
  -3   5  10    6.40    6.50
  -5   3 -10   12.20   14.30
  -3  -5 -10   16.90   11.60
   3  -5  10   18.20    8.30
  -5   3 -10   32.90   10.00
  -5  -3  10   16.90    7.70
  -5  -3  10   15.60    7.70
   5  -3 -10   13.40    6.00
   3   5 -10   22.00    6.90
  -5   3 -10   23.70    8.50
   3  -5  10   15.10    7.20
  -3  -5 -10   24.40   11.40
  -3  -5  10   15.80    7.40
   5  -3  10    7.10    7.30
   5  -3  10   26.40    7.30
  -3  -5  10   16.70    7.80
  -3  -5  10   18.40    7.80
  -3   5 -10   19.30    8.20
  -5   3  10    8.60    6.90
   3  -5 -10    3.40    8.00
   5   3 -10   16.70    8.60
   3  -5 -10   17.10    8.50
   3   5  10   21.80    6.30
   5   3 -10   17.50    6.40
   3   5  10   24.60   14.90
  -5  -3 -10   35.90   14.90
   3   5  10   17.30    6.70
  -3   5 -10   17.50   10.80
   4  -5  10    4.60    7.80
  -4   5  10   -2.20    7.20
  -4   5  10    7.20    7.10
  -5  -4  10    4.70    7.60
   4  -5  10    1.70    7.40
  -5   4 -10   11.70    9.60
  -4  -5 -10   25.00   12.90
   4   5 -10    5.20    6.90
  -5   4 -10    3.10   14.30
   5   4  10    3.70    6.30
  -4  -5 -10    0.00   11.70
   5  -4 -10    0.60    5.00
   5   4  10   17.80   15.80
   5  -4 -10   12.50    4.30
  -5  -4  10   -6.20    7.50
  -5  -4  10    5.20    7.80
   4   5 -10    7.60    8.00
  -5   4 -10    5.60    8.30
  -5  -4 -10    4.70   12.60
  -4   5 -10   27.90   17.40
   5   4 -10    0.60    6.40
   5  -4  10    3.90    7.50
  -4   5 -10    4.50   10.20
   5   4 -10   14.80    8.20
  -5  -4 -10    2.10   10.80
   5  -4  10   15.80   11.80
   4  -5 -10   10.40    7.40
  -4  -5  10    6.90    7.50
   4   5  10    0.10    6.40
   4  -5 -10    0.70    7.30
  -4   5 -10    4.80    7.40
  -4  -5  10    7.00    8.00
  -5   4  10   -5.50    6.40
  -4  -5  10    6.10    7.40
   4   5  10   20.90   15.30
   5   5  10   15.40   14.40
   5   5 -10    8.30    8.20
  -5   5  10    9.10    7.50
  -5   5 -10   16.30    8.40
   5  -5 -10    0.70    4.80
  -5  -5  10   -2.90    7.80
  -5  -5  10   -3.60    6.30
   5  -5 -10    4.50    5.10
  -5  -5 -10    5.00   12.90
   5  -5  10   -1.10    7.30
   5   5 -10    4.70    7.50
   5  -5  10   -4.50    7.20
   5   5  10   -6.20    6.00
  -5  -5  10  -10.10    7.50
  -5   5 -10   23.80   18.00
  -5   5 -10   -3.50    9.60
  -5  -5 -10  -18.00   13.80
  -5   5  10    2.10    8.50
   0  -6 -10   -5.00   10.20
  -6   0  10   -2.00    7.40
   0  -6  10   -4.30    6.60
   0   6 -10    2.80    6.60
   0  -6 -10   10.40    8.80
  -6   0 -10   -4.80    9.00
   6   0  10   -3.20    6.20
   0   6  10   -5.50    6.10
   0   6  10    6.70    6.30
  -6   0 -10   10.50   14.60
   0   6 -10   12.80    6.80
   6   0  10  -11.80    8.90
   0   6  10   -2.90   13.40
   6   0 -10    7.50    8.80
   0  -6  10   -6.70    6.90
   6   0 -10   10.20    8.60
   0  -6  10    0.50    7.60
  -6   0 -10  -10.00    8.00
  -6  -1  10   37.60    9.20
   6  -1 -10   50.29   10.60
   1  -6  10   30.40    9.00
  -1  -6 -10   31.70   10.20
  -6   1 -10   32.50   15.10
  -6   1 -10   38.70    9.30
   1  -6  10   37.70    9.10
  -1   6  10   62.79   17.50
   6   1  10   48.20   11.70
   6  -1 -10   40.00    6.40
   1   6 -10   24.10    7.50
   6  -1 -10   20.60    4.20
   1   6 -10   38.30    7.80
  -1   6  10   38.70    7.80
  -1   6  10   33.70    7.40
  -1  -6 -10   33.70   11.30
   6   1  10   36.00    7.80
  -1  -6  10   32.50    9.00
   1  -6 -10   57.29   10.00
   6   1 -10   26.60    9.80
  -1  -6  10   41.50    8.70
   6   1 -10   27.50    6.20
   1   6  10   40.80    7.80
   6   1 -10   22.80   12.40
  -1   6 -10   26.50    7.20
  -6  -1 -10   35.70   10.00
  -6  -1 -10   22.60    8.80
  -1  -6  10   33.50    8.50
   1  -6 -10   37.30   10.30
   6  -1  10   38.00   10.10
   1   6  10   42.20   14.40
   1   6  10   34.00    7.40
   6  -1  10   44.90    7.90
  -6  -1 -10   29.50   14.00
  -6   1  10   31.60    8.30
  -2   6  10   10.70    6.90
  -2  -6 -10    8.50   10.40
   6   2  10   50.59   16.00
   2  -6  10    1.40    7.10
   2   6 -10   13.00    6.90
  -6   2 -10   20.70    9.50
   6   2  10    8.60   10.00
   2  -6  10    8.00    8.30
  -2   6  10   18.80    7.00
  -6   2 -10   31.80   15.30
  -6  -2  10   10.40    7.70
   6  -2 -10   15.10    8.80
  -6   2 -10    5.70    8.20
   2   6 -10    9.60    7.40
   6   2  10   20.60    7.10
  -2  -6 -10   32.10   12.00
  -2   6  10   23.20   14.40
   2   6  10    6.10   14.20
  -6   2  10   13.70    8.00
  -2  -6  10   18.80    7.40
  -2  -6  10   14.80    8.50
   6   2 -10    5.80    6.30
   2  -6 -10   16.90    8.40
  -2   6 -10    9.20    9.90
   2   6  10    5.30    7.50
  -6  -2 -10   23.60   13.30
   2   6  10   15.80    7.00
  -2  -6  10   11.30    6.70
   6  -2  10   13.20    7.60
  -2   6 -10   19.80    7.80
   2  -6 -10   22.90   10.40
   6   2 -10   27.30    9.20
   6  -2  10   10.70    7.10
   6   3  10   41.60    8.20
  -3  -6 -10   37.00   11.80
  -6  -3  10   49.80    9.60
  -6  -3  10   39.00    8.50
  -3  -6 -10   29.30   10.90
  -6   3 -10   23.70    8.70
   3   6 -10   44.20    7.90
  -6   3 -10   34.80   15.60
   6   3  10   50.39   16.00
  -6  -3  10   29.90    8.10
   3  -6  10   30.40    8.20
  -6   3 -10   37.90   10.50
   6  -3 -10   23.90    9.30
   3   6 -10   38.20    8.30
  -3   6  10   43.70    8.60
  -3   6  10   35.30    8.30
  -6  -3 -10    6.10   12.60
   6  -3  10   37.80    8.70
   6  -3  10   28.30    9.10
  -3  -6  10   41.60    8.80
   3  -6 -10   17.00    9.00
   3   6  10   25.10    7.60
   3   6  10   39.20    7.20
   6   3 -10   38.40    9.60
  -3  -6  10   45.40    9.30
  -6   3  10   27.80    7.90
  -3  -6  10   43.20    9.10
   3  -6 -10   51.09    9.20
   3   6  10   42.10   15.50
  -3   6 -10   29.30    7.50
  -3   6 -10   37.10   10.90
  -6  -3 -10   39.20   15.10
  -4  -6 -10   19.30   12.50
   6  -4 -10   59.79   10.90
  -4   6  10   47.60    9.20
  -4  -6 -10   56.29   12.60
  -4   6  10   25.70   13.20
  -6  -4  10   42.10    9.20
   4   6 -10   37.00    8.30
  -6   4 -10   32.20    8.80
   4   6 -10   37.20    8.60
  -6  -4  10   23.10    8.70
   6   4  10   42.40    7.90
  -4   6  10   42.00    8.80
  -6   4 -10   49.10   15.90
   6   4  10   75.59   16.80
  -6   4 -10   48.50   11.00
   4  -6  10   36.10    8.50
  -6  -4 -10   42.60   14.20
   4   6  10   45.80    8.60
  -4   6 -10   45.80    8.80
   6  -4  10   19.90    8.50
   6   4 -10   43.90    8.60
   4  -6 -10   34.00    8.20
   4   6  10   60.99   15.60
  -6  -4 -10   31.40   15.30
  -4  -6  10   60.39    9.90
  -4   6 -10   42.30   11.30
   6   4 -10   44.80    9.20
   6  -4  10   63.99    9.40
  -6   4  10   44.00    9.80
  -4  -6  10   42.60    9.00
  -4  -6  10   36.30    8.40
   6   5  10   39.50   18.30
   5   6 -10   38.30    9.40
   6   5  10   50.69    9.00
  -5  -6 -10   32.40   14.10
  -6  -5  10   65.59   10.50
  -5   6  10   59.99   11.10
  -6   5 -10   51.19   18.30
  -6  -5  10   59.99    9.60
  -6   5 -10   33.00    8.60
  -6  -5  10   49.90    9.10
  -5  -6 -10   41.20   12.40
   5   6 -10   55.59    9.30
   5  -6  10   40.30    9.30
  -6   5 -10   51.69   12.10
  -5   6  10   65.19   10.00
  -5  -6  10   41.70    9.70
  -5  -6  10   75.79   10.60
  -5   6 -10   77.49   18.90
  -5   6 -10   68.89   11.70
  -6  -5 -10   43.30   14.60
   5   6  10   51.79    8.50
  -5  -6  10   57.49   10.00
  -6  -5 -10   54.69   15.70
   6  -5  10   54.29   10.20
  -5   6 -10   46.40   12.00
   5   6  10   49.10   17.50
   6   5 -10   45.80    9.00
   5  -6 -10   58.29    8.90
  -6   5  10   48.60    9.60
   6   5 -10   50.89    9.90
   6  -6  10  114.19   15.40
   6   6  10   66.99   18.50
  -6  -6  10   94.69   14.80
   6   6  10   84.99   11.00
  -6  -6  10   69.19   10.80
  -6   6  10   92.09   12.60
  -6  -6 -10   60.39   14.20
   6  -6  10   58.19   10.70
   6   6 -10   83.59   12.70
   6   6 -10   91.39   14.30
  -6  -6  10   98.69   14.50
  -6   6 -10   87.49   13.50
  -7   0 -10    5.70    9.20
   7   0 -10    8.20    9.40
  -7   0 -10   -4.80    9.30
  -7   0 -10   -1.50   15.40
   0   7  10   -2.70   14.00
   0  -7 -10   -4.50   10.00
   0   7  10   -4.30    6.70
   0   7 -10    2.60    6.80
  -7   0  10   -6.90    7.40
   7   0  10    6.30    6.70
   0  -7 -10   15.10    9.50
   0  -7  10    9.50    7.50
   0  -7  10   -4.10    6.70
   0   7  10   -0.40    6.50
   7   0  10    0.80   10.80
   7   1  10   23.40   11.10
  -1   7  10   21.50   15.00
   7   1  10   20.30    7.60
  -1   7  10   22.20    7.10
   1   7 -10   24.60    7.40
   1  -7  10   32.90    9.00
   7  -1 -10   26.20    9.40
  -1   7  10   16.40    7.20
  -1  -7 -10   19.30   11.10
   1  -7  10   21.40    9.00
  -1  -7 -10   18.40   10.30
  -7   1 -10   25.90   15.10
  -7   1 -10   24.30   10.40
  -7  -1  10   39.90    9.70
   1   7  10   11.40   14.20
  -1  -7  10   15.00    8.70
  -7   1  10   22.50    8.00
  -1   7 -10   15.90   11.00
   1  -7 -10   35.50    9.90
   7  -1  10   31.10    7.80
  -7  -1 -10    6.30    9.70
   1   7  10   29.10    8.10
  -7  -1 -10   35.90   16.50
   7  -1  10   22.70    9.10
   7   1 -10   12.20    9.10
  -1   7 -10   27.30    7.60
   7   1 -10   13.00    6.50
   7   1 -10   16.70   10.90
  -1  -7  10   22.80    8.70
  -1  -7  10   24.20    8.10
   1  -7 -10   37.90   10.90
  -2   7  10   33.70    8.00
  -2   7  10   16.40    7.30
   2  -7  10   15.50    9.30
   2  -7  10   20.50    8.40
   7   2  10   17.00    7.10
  -7   2 -10    6.10    9.30
  -7  -2  10   10.90    8.60
   7   2  10   19.40   15.20
  -7  -2  10   26.00   14.60
  -7   2 -10   24.60   17.50
  -2  -7 -10   17.10   10.30
   7  -2 -10   24.00    9.60
  -2  -7 -10   16.30   11.60
   2   7 -10   15.60    7.60
  -7   2 -10   29.70   10.20
  -2  -7  10    5.30    8.00
   2   7  10   -1.20   14.00
  -7   2  10   20.00    8.00
   2  -7 -10   23.00    9.40
   7  -2  10   20.00    7.70
  -2   7 -10   19.20   10.50
   2   7  10   18.00    6.80
  -2   7 -10    9.40    7.30
   7   2 -10    4.70    7.20
   7  -2  10   20.80   10.10
  -2  -7  10   19.80    8.30
  -7  -2 -10   12.20   14.80
   2   7  10    4.40    7.20
  -2  -7  10    8.10    7.40
   7   2 -10    1.90    9.00
   2  -7 -10   30.30   10.10
   7   3  10   15.70   17.10
   7  -3 -10   33.60   10.30
  -3   7  10   56.69    9.20
   3  -7  10   26.40    9.00
  -3  -7 -10   36.50   11.80
   3  -7  10   51.89    9.40
  -3   7  10   46.90   15.20
  -7   3 -10   43.50    9.90
   3   7 -10   47.50    8.70
   7   3  10   41.00    8.20
  -7  -3  10   33.90    8.90
  -7   3 -10   23.30   17.20
  -7   3 -10   37.70   10.90
  -3   7  10   52.59    9.10
  -7  -3  10   42.40    9.10
  -3  -7 -10   27.70   12.40
  -7   3  10   49.40    9.90
  -3  -7  10   56.09    9.60
   7  -3  10   41.00   10.50
   7  -3  10   56.89    9.00
  -3  -7  10   28.70    8.00
   7   3 -10   37.70    8.60
   3   7  10   48.50   16.50
  -3   7 -10   22.50   11.10
  -7  -3 -10   50.49   14.50
   3   7  10   29.20    8.10
   3  -7 -10   30.90    8.80
   7   3 -10   42.00   10.10
  -7  -3 -10   55.69   16.30
  -3   7 -10   45.50    9.00
  -3  -7  10   52.19    9.00
   3  -7 -10   51.09    9.90
  -7   4 -10   35.70   11.20
   7  -4 -10   17.70   10.00
  -7   4 -10    3.60    8.50
  -7  -4  10   34.90    9.90
   4   7 -10   23.30   11.20
   4   7 -10   14.10    8.10
  -4  -7 -10   34.60   13.30
  -7   4 -10   62.49   28.10
   7   4  10   18.90   16.90
  -4   7  10   26.10    8.40
  -4   7  10   22.50    8.40
  -7  -4  10   16.40    9.40
   7   4  10   22.10    7.50
  -4  -7 -10   35.80   12.10
   4  -7  10   20.00    8.90
  -7  -4  10   32.00    9.00
   4  -7 -10   17.90    7.60
  -4  -7  10   25.80    8.90
  -4  -7  10   36.30    9.40
   7   4 -10   19.80    9.00
   4   7  10   34.70    7.70
   7  -4  10   30.10    9.70
  -4   7 -10   28.70   10.60
   4  -7 -10   31.00    8.10
  -4  -7  10    4.30    7.60
   7   4 -10   37.40    9.30
  -4   7 -10   21.30    8.70
  -7  -4 -10   19.10   13.00
  -7   4  10   14.90    7.40
  -7  -4 -10   17.50   17.20
   7  -4  10   13.50    8.90
   4   7  10    8.20   15.40
  -7  -5  10   64.49   10.30
   7   5  10   72.89   23.60
  -5  -7 -10   26.60   14.00
   5   7 -10   47.30    9.80
  -7  -5  10   42.50   10.40
  -7  -5  10   37.80    9.40
   7   5  10   44.40    9.30
  -5  -7 -10   43.40   12.40
  -5   7  10   53.69    9.80
   5   7 -10   20.80    8.70
  -5   7  10   47.00   11.10
  -7   5 -10   57.69   11.90
  -5  -7  10   56.09    9.90
   5   7  10   51.19   18.30
   5  -7 -10   37.00    7.60
  -7  -5 -10   23.50   14.30
  -5   7 -10   31.40   11.10
  -7   5  10   34.30    9.30
  -5  -7  10   48.10   14.30
   7  -5  10   42.00   15.60
  -5  -7  10   35.70    9.60
   7  -5  10   26.90   14.30
   7   5 -10   35.50    9.70
   7   5 -10   35.80   10.10
   6  -7  10  123.79   15.00
  -7  -6  10  130.19   15.90
   6   7 -10   84.49   15.10
   7   6  10   96.89   11.90
  -7  -6  10  114.79   15.70
   6   7 -10  108.69   13.00
  -6  -7 -10  119.89   19.40
  -7  -6  10  106.49   13.50
  -6   7  10   93.39   13.60
  -7   6 -10  126.99   16.80
   7  -6 -10   93.49   13.10
  -7   6  10  133.49   21.50
  -7  -6 -10   83.29   15.20
  -6  -7  10   82.29   13.60
  -6   7 -10  133.49   17.00
   7   6 -10  107.09   16.70
   6   7  10  116.29   12.90
  -6  -7  10  118.09   15.70
   7   6 -10   84.69   11.60
  -6  -7  10  125.79   15.10
   7  -6  10   95.09   15.10
   7  -7 -10   89.39   13.00
   7  -7  10  114.59   14.60
   7   7 -10   82.69   12.90
  -7   7  10   60.69   11.40
  -7  -7 -10  113.49   17.20
   7   7  10   90.89   11.80
  -7   7 -10  104.59   17.20
   7   7 -10   94.39   13.10
  -7  -7  10  120.09   16.80
  -7  -7  10   68.09   11.10
  -7  -7  10   83.69   12.30
   0  -8 -10   33.00   11.60
  -8   0 -10   16.70    9.90
   8   0  10    4.90    7.00
   0   8  10   11.00    7.10
   8   0  10    6.30   11.40
   0   8  10   27.60   14.90
  -8   0 -10   32.30   26.80
   0   8 -10   13.40   10.10
   0  -8 -10   15.30    9.40
   0   8 -10   21.10    7.40
   0  -8  10   12.80    7.90
   0  -8  10    2.90    8.50
   0   8  10    9.30    8.00
   8   0 -10   22.50   10.40
  -8   0  10    5.00    9.00
   1  -8  10    8.80    8.00
   8   1  10    0.30    7.50
  -1   8  10    2.80   15.00
  -1   8  10    5.80    7.10
   8  -1 -10   -4.90    9.10
  -1   8  10   -2.80    7.00
  -8   1 -10    1.60   30.70
  -8  -1  10    9.00    8.90
  -1  -8 -10   20.70   11.60
   1  -8  10   13.10    8.80
  -1  -8 -10    6.90   10.00
   8   1  10   -3.30   10.50
  -8   1 -10    1.90   10.40
   1   8 -10   10.10    7.60
  -1  -8  10    0.10    7.20
   8   1 -10    5.30    8.40
   8  -1  10    6.10    9.20
   1   8  10   24.60   14.70
  -1   8 -10    6.70   10.40
  -1   8 -10   12.90    7.60
   1   8  10    2.90    7.10
  -1  -8  10   13.70    8.90
   1  -8 -10   10.00    9.90
   8   1 -10   21.60    9.60
   1   8  10    9.00    7.20
  -8  -1 -10   12.60   11.00
  -8   1  10    7.30    8.40
   8  -1  10    4.70    7.10
   1  -8 -10   11.50   10.70
   8   1 -10   -1.70    6.00
  -8  -2  10   17.90    9.80
  -8   2 -10   29.60   10.00
  -2  -8 -10   38.60   11.10
   8   2  10   26.50    8.30
   2  -8  10   20.90   10.10
   8  -2 -10   25.00   10.90
  -2   8  10   -7.30   15.00
   2  -8  10   24.90    8.40
  -2   8  10   28.30    8.40
   2   8 -10   27.50    8.30
  -2  -8 -10    8.40   11.20
  -2   8  10   48.60    8.70
  -8   2 -10   28.90   11.20
   2  -8 -10   25.60   10.20
   8  -2  10   22.70    8.60
   2  -8 -10   21.90    9.60
  -2   8 -10   34.00   12.00
   2   8  10   21.80    8.60
   8   2 -10   27.90   10.00
  -2  -8  10   26.80    9.20
   8   2 -10   10.10    8.50
   8  -2  10   15.30    9.00
  -2  -8  10   27.90    8.90
   2   8  10   24.60    7.70
  -8   2  10   23.90    9.00
  -2  -8  10   27.70    8.70
   2   8  10   45.20   15.00
  -2   8 -10   29.70    8.30
  -3   8  10  108.59   12.40
  -8   3 -10  108.49   16.50
  -3  -8 -10  121.09   19.50
   3   8 -10   92.19   12.70
   3  -8  10   94.49   14.90
  -3   8  10   58.29   31.20
  -8  -3  10  101.19   14.90
  -8  -3  10   72.89   12.30
   8  -3 -10   93.29   13.60
  -3  -8 -10  102.49   17.20
  -3   8  10   92.79   12.20
   8   3  10  109.29   11.90
   3  -8 -10   95.29   13.10
   8  -3  10   76.29   14.80
  -8   3  10   84.59   12.40
   3   8  10  106.59   18.70
   8   3 -10  114.19   14.40
   8  -3  10  100.79   11.30
  -3  -8  10  101.99   13.40
  -3  -8  10   95.09   13.80
   8   3 -10   80.79   11.50
  -3  -8  10  105.29   14.30
  -3   8 -10  110.69   12.70
  -3   8 -10  111.79   16.40
   3   8  10   83.79   12.70
   3  -8 -10  106.69   14.40
  -4  -8 -10   73.69   13.60
  -8  -4  10   59.99   11.20
  -8   4 -10   59.39   12.70
  -4   8  10   62.69   10.20
   4   8 -10   46.50    9.40
   8  -4 -10   45.10   11.20
   4  -8  10   44.30    9.50
  -8  -4  10   48.20   11.10
  -4   8  10   82.49   17.00
  -4   8  10   54.19   14.30
  -4  -8 -10   54.69   14.60
  -4  -8  10   63.09   11.00
  -4  -8  10   41.50    9.60
  -4   8 -10   45.90   11.90
   4   8  10   55.19    9.30
   4  -8 -10   53.49    8.90
   8   4 -10   45.50   11.70
   4   8  10   53.79   17.10
   8   4 -10   44.70   10.70
   8  -4  10   47.30   12.20
   8  -4  10   73.09   10.60
  -4  -8  10   55.99   10.20
  -8  -4 -10   34.60   14.30
  -8   4  10    9.60   11.20
   5   8 -10   44.80   10.10
  -5  -8 -10   30.20   17.20
  -8  -5  10   49.30   10.60
  -8  -5  10   54.89   11.10
  -5   8  10   41.50    9.90
  -8   5 -10   56.99   12.60
  -5   8  10   62.79   10.60
   8  -5 -10   40.30   11.00
   8   5  10   35.60    8.60
   5  -8  10   49.20    9.80
   8   5 -10   29.50   12.20
  -5  -8  10   46.10   10.50
   8  -5  10   49.10   10.90
   8   5 -10   55.89   10.70
  -8   5  10   33.70    9.80
  -5   8 -10   49.80   13.10
   5   8  10   38.00    8.60
  -5  -8  10   32.80    9.00
  -5  -8  10   53.69   10.50
   8  -5  10   59.39   10.60
  -8  -5 -10   42.00   15.00
  -8  -6  10  122.39   14.30
   8  -6 -10  111.49   15.50
   6  -8  10  116.99   15.50
   8   6  10  129.29   12.90
  -8  -6  10  125.49   17.00
   6   8 -10  140.89   13.60
  -6   8  10   84.39   17.30
  -6  -8 -10  113.89   19.10
   6   8 -10  106.39   16.70
  -8  -6  10  162.48   17.80
  -8   6 -10  145.99   16.90
  -8  -6 -10  124.69   19.90
  -6  -8  10  146.39   15.70
  -6  -8  10  141.09   17.30
  -6   8 -10   99.09   17.10
   6   8  10  104.19   12.20
  -6  -8  10  103.29   14.30
  -8   6  10  124.59   13.80
   8   6 -10  105.89   12.90
   8   6 -10   88.79   14.30
   8  -6  10  119.39   15.60
  -8   7 -10  145.19   20.60
   7  -8  10  147.89   15.90
   8   7  10  121.29   12.90
   8  -7 -10  119.99   15.20
  -7   8  10  131.49   15.00
   7   8 -10  130.09   14.20
   7   8 -10  119.39   18.70
  -7  -8 -10  123.89   20.20
  -8  -7  10  189.48   19.00
  -8  -7  10  152.58   19.40
  -8  -7  10  113.69   14.20
   8   7 -10  106.69   16.10
  -7  -8  10  169.28   18.90
  -7  -8  10  110.09   18.00
   8   7 -10   99.39   14.50
   7  -8 -10  129.69   17.00
  -7   8 -10  131.99   17.60
  -8   7  10  108.19   14.60
  -8  -7 -10  149.99   20.70
   7   8  10  140.59   13.60
   8  -7  10  140.29   16.20
  -7  -8  10  109.69   14.90
   8   8 -10  161.18   15.00
  -8  -8  10  196.18   20.30
  -8   8  10  116.59   15.10
  -8  -8  10  175.08   20.80
   8  -8  10  161.18   16.40
   8   8  10  156.68   13.40
   8   8 -10  136.19   22.80
   8  -8 -10  163.98   17.00
  -8   8 -10  138.69   18.10
  -8  -8 -10  143.79   21.00
  -8  -8  10  144.59   15.80
   9   0  10   26.20   12.70
   9   0  10   28.80    8.90
   0  -9  10   19.90    8.50
   0  -9 -10   26.90   11.60
   0   9  10   19.60    9.30
   0  -9 -10   13.60   10.30
  -9   0  10   16.00    9.70
   0   9  10   27.80    8.60
   9   0 -10   24.20   11.40
   0   9 -10   23.80    9.90
   0   9 -10   17.30   10.90
   0   9  10   86.39   17.90
   9   1  10   -2.50   11.20
   9  -1 -10    5.80   13.00
   1   9 -10   -6.00   10.40
  -1   9  10   -1.90   16.50
  -9  -1  10   -1.20    8.90
   9   1  10    5.20    7.60
  -1   9  10   -6.70    8.00
  -1  -9 -10    2.90   10.50
  -1  -9 -10   -1.20   11.70
   1   9 -10   -2.20    7.50
  -1   9  10   -2.80    7.80
   9   1 -10  -24.40    9.20
   1  -9 -10   -0.80   10.00
  -1   9 -10   13.30   10.70
   1   9  10   -6.30   16.50
   1   9  10   -5.00    7.70
   9  -1  10   -3.30   11.90
  -9   1  10   -0.90    8.40
   1  -9 -10   -8.90    9.30
  -1  -9  10    0.60    7.40
   9  -1  10  -14.70    7.30
   9  -2 -10    1.70   10.40
   2  -9  10   21.00    8.80
  -2   9  10   -6.80    7.60
  -9   2 -10    1.00   11.30
  -9  -2  10   -0.90    8.80
  -2   9  10    4.70    7.40
  -2  -9 -10  -11.60   11.70
  -2   9  10   18.20   17.00
   2   9 -10   -5.90    7.60
   9   2  10   -3.60    7.20
  -2  -9 -10    4.00   10.70
   9  -2  10    9.30    8.10
   9  -2  10    8.30   10.50
  -2  -9  10   -3.00    7.70
  -9   2  10    4.90    8.90
   2   9  10   11.30    7.80
   2  -9 -10    0.90    9.50
   2  -9 -10   -4.30    9.40
   2   9  10    7.80   16.90
  -2   9 -10   16.00   10.80
   9   2 -10   -3.60    9.80
   3  -9  10   18.50    8.40
   3   9 -10   17.30    9.00
  -9   3 -10   20.60   11.40
  -3   9  10   20.60    8.50
   9   3  10   39.30    9.30
   9  -3 -10   31.90   11.20
  -9  -3  10   21.20    9.30
  -3  -9 -10   13.30   16.70
  -3   9  10   43.50   16.80
  -3   9  10   32.10    9.00
  -3  -9 -10   33.20   11.90
  -3  -9  10   20.20    9.20
  -9   3  10   21.30    9.50
  -3   9 -10   30.40   11.40
   3   9  10   23.50    8.30
   9  -3  10   32.30    9.30
   3  -9 -10   11.70    9.00
   9   3 -10   17.50   10.10
   9  -3  10   28.70   10.20
   3  -9 -10   36.60   10.20
  -9  -3 -10   15.80   13.30
  -3  -9  10   19.90   10.00
  -3  -9  10   12.90   12.20
   3   9  10   12.30   16.40
  -9  -4  10   20.80   10.00
  -4  -9 -10   29.90   13.00
   9   4  10   16.10    8.20
  -4   9  10   15.20    8.30
  -4   9  10   29.90    9.30
   9  -4 -10   14.10   11.10
   4  -9  10   27.50    8.80
  -9   4 -10   33.40   12.30
   4   9 -10   25.70    9.50
  -9   4  10    4.00    8.70
  -4  -9  10   22.40    9.40
   9  -4  10   42.00   10.20
  -9  -4 -10    8.10   13.80
   9   4 -10   22.10   10.10
   4  -9 -10    5.70   14.30
   4   9  10    6.90    7.70
   9  -4  10   20.70   11.00
  -4   9 -10   24.10   11.20
  -4  -9  10   27.60    9.30
  -5   9  10   19.80    9.40
  -9   5 -10  -11.50   11.00
  -9  -5  10   -0.90    8.80
  -5   9  10   20.30   10.00
   9  -5 -10   15.10   10.80
   5   9 -10    8.60   10.00
   9   5  10    8.50    8.00
  -5  -9 -10    5.60   11.80
   5  -9  10    4.60    8.10
  -9  -5 -10    3.90   13.80
  -5   9 -10   11.30   10.80
   9   5 -10    5.20   10.00
  -5  -9  10   20.30    9.60
  -5  -9  10   21.80    9.70
   5   9  10   -0.50    7.30
   9  -5  10    2.40   11.00
   9  -5  10    4.20    9.80
  -9   5  10   29.00   10.30
  -6  -9 -10   39.60   11.80
   9  -6 -10   33.60   11.40
  -6   9  10   33.00   10.40
  -9   6 -10   31.60   12.60
   6  -9  10   18.40    9.10
  -9  -6  10   27.50    8.90
   9   6  10   28.90    8.30
   6   9 -10   -0.60   11.10
   9  -6  10   20.50   10.50
   6   9  10   39.60    9.10
   9   6 -10   31.30   10.30
  -6   9 -10   35.10   11.60
  -9  -6 -10   24.90   12.80
  -6  -9  10   45.50   11.80
  -6  -9  10   16.30    9.40
  -9   6  10   22.10    9.40
  -9  -7  10   44.80   10.70
   7  -9  10   33.10    9.70
   9   7  10   52.19    9.70
  -9   7 -10   68.09   14.70
   7   9 -10   40.70   14.00
  -7   9  10   50.89   11.30
  -7  -9 -10   52.59   13.50
   9  -7 -10   49.20   11.90
   7  -9 -10   52.19   11.90
   9   7 -10   41.00   10.70
  -7  -9  10   53.29   11.30
   7   9  10   39.40    9.00
   9  -7  10   59.59   11.40
  -9  -7 -10   33.20   13.70
  -9   7  10   47.90   10.80
  -7  -9  10   65.99   13.10
  -7   9 -10   49.60   12.70
   8  -9  10   52.39   11.20
  -8   9  10   74.09   12.00
   9   8  10   66.99   11.20
  -9  -8  10   55.39   12.10
   9  -8 -10   59.59   12.70
  -8  -9 -10   42.40   12.90
  -9   8 -10   65.09   14.10
   9  -8  10  115.19   16.50
  -8  -9  10   59.29   11.60
  -8  -9  10  115.89   23.80
   8   9  10   57.49   10.00
  -9  -8 -10   44.30   14.10
   9   8 -10   67.69   11.50
   8  -9 -10   71.49   12.80
  -8   9 -10   59.69   12.60
  -9   8  10   61.79   11.80
  -9   9  10    7.30    9.50
  -9  -9 -10   26.90   13.00
   9  -9  10   34.60   11.80
   9  -9 -10   11.20   11.20
   9   9  10   14.60    8.20
  -9   9 -10   -5.00   11.70
  -9  -9  10    8.10   10.20
  -9  -9  10   21.80   18.80
   0  10  10    9.80    9.10
   0  10 -10   -5.70   10.30
   0 -10  10   -5.30    6.80
 -10   0  10    3.10    9.30
   0 -10 -10   -3.80   10.00
  10   0  10    2.80    8.30
  10   0  10   -4.70   11.70
   0  10  10    1.30    6.50
   0  10  10  -12.50   17.40
  10   0 -10   10.90   10.40
   0 -10 -10   -8.90   11.30
  -1  10  10   22.20    9.30
  10   1  10   10.90   12.00
  10  -1 -10   18.30   11.00
  -1  10  10    8.50    7.00
   1  10 -10    5.20   10.40
  -1  10  10    5.80   18.20
  -1 -10 -10   24.00   11.20
   1 -10  10   12.20    8.40
  -1 -10 -10   15.60   12.70
 -10  -1  10    6.50    9.60
  10   1 -10    9.70   10.60
   1  10  10    7.40   11.20
  -1 -10  10   15.70    9.30
   1 -10 -10   -0.10   10.70
  10  -1  10   -3.20   11.00
 -10   1  10    3.40    8.80
  -1  10 -10   21.70   11.30
   1  10  10   10.20    7.90
   1 -10 -10   -1.70   10.30
   1  10  10  -29.10   17.00
  10  -1  10    2.30    8.90
  10  -2 -10   15.40   10.60
  -2 -10 -10   18.20   12.10
  -2  10  10   33.00    8.70
   2 -10  10   19.30    8.50
 -10  -2  10   16.80   10.30
   2  10 -10   21.90   12.10
  -2  10  10   33.50    9.50
  -2  10  10    1.80   18.50
  10   2  10   15.60    8.20
   2  10  10   16.40    8.20
  10   2 -10   26.50   11.70
  10  -2  10   16.50    9.40
 -10  -2 -10   12.70   13.80
   2 -10 -10   -4.00    9.70
   2  10  10   14.20   19.30
   2 -10 -10   14.30   10.00
 -10   2  10    5.20    9.00
  -2  10 -10   12.90   10.20
  -2 -10  10   16.60    8.30
  10  -2  10   14.80   11.30
  10   3  10   19.10    8.50
 -10  -3  10   26.60   10.50
  -3  10  10   23.40    8.70
   3 -10  10   20.40    9.40
  -3 -10 -10    6.20   11.90
  10  -3 -10   10.60   10.40
  -3  10  10   18.60    8.70
 -10   3  10   20.40    9.60
   3 -10 -10   44.70   10.60
  10  -3  10   24.70   10.30
  -3 -10  10   23.90    9.10
  -3  10 -10   13.90   10.40
   3  10  10   17.60    7.50
 -10  -3 -10   18.20   14.70
  10  -3  10   23.60   11.00
  10   3 -10   20.20   11.00
   3 -10 -10   33.20   10.10
  -4  10  10   33.00    9.30
   4 -10  10   16.40    9.80
  -4  10  10   18.20    9.10
  10   4  10   18.10    8.30
 -10  -4  10   17.50    9.90
  -4 -10 -10   14.10   12.10
  10  -4 -10   21.20   11.10
 -10   4  10   21.50    9.50
  10   4 -10   12.60   11.20
  10  -4  10   44.60   12.20
   4  10  10   21.10    8.70
 -10  -4 -10   10.70   15.30
  -4  10 -10   15.10   10.70
  10  -4  10   37.70   10.40
  -4 -10  10   13.40    9.40
  10   5  10   29.10    8.80
   5 -10  10   26.60    9.80
  -5 -10 -10   18.60   11.80
 -10  -5  10   25.00   10.10
  -5  10  10   36.80   10.30
  -5  10  10   45.70   10.50
  10  -5 -10   28.40   11.70
  -5 -10  10   33.10   10.60
 -10   5  10   23.70    9.60
  10   5 -10   14.70   11.20
  -5 -10  10   27.40   10.50
  10  -5  10   15.50   10.60
   5  10  10   27.80    8.50
 -10  -5 -10   17.90   14.20
  -5  10 -10   11.30   10.20
   6 -10  10   80.29   12.20
  -6  10  10   41.30   10.40
  10   6  10   61.59   10.30
  -6 -10 -10   38.80   12.10
 -10  -6  10   57.39   11.10
 -10   6 -10   68.69   14.50
  10  -6 -10   63.09   12.90
  -6 -10  10   40.80   11.30
  10   6 -10   53.29   12.40
  10  -6  10   83.59   13.70
   6  10  10   69.09   10.20
  -6 -10  10   85.69   13.60
 -10  -6 -10   39.70   14.00
 -10   6  10   60.79   12.00
  -6  10 -10   62.09   12.90
  10  -7 -10   90.99   13.70
  -7 -10 -10  112.59   18.50
 -10  -7  10   79.59   12.60
 -10   7 -10  101.89   16.20
   7 -10  10  120.69   16.50
  -7  10  10  103.39   14.80
  10   7  10  102.79   13.50
 -10  -7 -10   81.49   15.30
   7 -10 -10  112.69   16.20
  10  -7  10   49.60   11.30
 -10   7  10   89.59   14.50
  -7 -10  10  130.59   20.00
  -7 -10  10   79.09   13.50
   7  10  10   89.89   12.60
  -7  10 -10   88.79   14.40
  10   7 -10   79.29   13.20
 -10   8 -10   79.69   15.70
  -8 -10 -10   80.99   14.30
 -10  -8  10  114.39   16.40
  -8  10  10   64.59   11.40
  10  -8 -10  105.49   14.40
  10   8  10  100.39   13.40
   8 -10  10  112.59   16.30
   8 -10 -10   87.59   14.10
  -8 -10  10   60.79   12.10
  10   8 -10  113.79   17.30
  10  -8  10   79.29   13.00
 -10   8  10   94.49   15.50
  -8  10 -10  126.49   18.00
 -10  -8 -10   86.09   14.90
  -8 -10  10  122.79   20.20
   8  10  10  114.29   13.80
  11   0 -10  -14.90    9.50
   0  11 -10    0.10   11.00
   0  11  10   -6.00   20.20
   0 -11 -10    0.30   12.10
   0 -11 -10  -21.30   10.40
   0  11  10   -0.90    7.10
  11   0  10   -1.60   12.20
  11   0  10    9.00    9.00
   0 -11  10   -1.30    7.30
 -11   0  10    2.80    9.60
  -1  11  10    6.80    9.70
  11   1  10   15.90    8.80
  11  -1 -10   -0.70   10.40
   1 -11  10   14.10    8.20
 -11  -1  10   13.60   10.20
  -1  11  10   12.30    7.90
   1  11 -10   13.80   11.70
  -1 -11  10    9.30    8.30
   1 -11 -10    5.70   10.60
  11   1 -10    3.60   10.70
  11  -1  10    6.20    9.40
   1 -11 -10   12.50   11.10
  11  -1  10   12.30   13.20
 -11   1  10   15.50   10.00
  -1  11 -10    4.90   11.10
   1  11  10   14.90    7.60
  11   2  10   11.70    8.60
   2  11 -10    7.20   11.80
 -11  -2  10   16.30   10.80
  -2  11  10    9.90    8.00
  11  -2 -10   11.20   10.80
  -2  11  10   19.80    9.60
  -2 -11 -10   -8.90   12.00
   2 -11  10   11.50    8.60
  11  -2  10   19.00   12.10
 -11   2  10    2.50    9.60
  -2  11 -10   -4.50    9.30
   2 -11 -10    8.80   10.50
  11   2 -10    8.60   10.90
 -11  -2 -10  -10.10   14.10
  11  -2  10   23.40   10.20
  -2 -11  10    8.90    8.70
   2 -11 -10   17.50   10.80
   2  11  10   15.60    7.90
  11  -3 -10   30.90   11.30
   3 -11  10   26.20    9.90
  -3  11  10    6.30    8.00
  -3 -11 -10    2.60   11.80
   3  11 -10   22.00   11.60
  -3  11  10   25.20    9.70
  11   3  10   13.10    8.70
 -11  -3  10   15.70   10.40
  -3 -11  10   28.70    9.60
  11   3 -10    4.80   10.20
  -3  11 -10   15.20   10.30
   3  11  10   33.70    9.30
  11  -3  10   32.40   12.70
 -11   3  10   12.70    9.10
 -11  -3 -10   16.90   13.60
  11  -3  10   39.90   11.40
  11  -4 -10   11.30   11.30
  -4  11  10   35.70   10.40
   4 -11  10    6.90    8.90
 -11  -4  10    9.10    9.80
  -4  11  10   32.30   10.20
  -4 -11 -10   27.20   12.20
  11   4  10   17.00    8.30
  11  -4  10   28.80   11.50
  -4 -11  10   16.00    9.20
 -11  -4 -10    2.00   13.70
  -4  11 -10   21.90   10.60
  11  -4  10   18.70   11.10
  11   4 -10   21.20   11.10
   4  11  10   32.60    8.50
 -11   4  10    8.50    9.70
  11  -5 -10   40.50   12.00
 -11  -5  10   29.80   11.20
  11   5  10   27.00    9.60
   5 -11  10   12.10    9.20
  -5 -11 -10   22.00   12.80
  -5  11  10   27.70   10.20
  -5  11  10   51.29   10.80
  11  -5  10   35.60   12.50
  -5  11 -10   16.50   10.60
 -11  -5 -10   51.09   14.90
  -5 -11  10   31.40   10.90
 -11   5  10   20.80   10.40
  11   5 -10   30.90   11.40
   5  11  10   18.40    8.30
  -6  11  10   57.19   11.10
  -6 -11 -10   51.69   14.20
  11   6  10   38.60    9.60
 -11  -6  10   25.40   11.00
   6 -11  10   39.40   10.10
  11  -6 -10   60.39   13.10
 -11   6 -10   66.19   16.40
   6  11  10   43.70    9.50
 -11   6  10   64.29   12.50
  -6  11 -10   40.90   11.10
  -6 -11  10   64.09   12.60
 -11  -6 -10   80.49   15.90
  11  -6  10   66.09   12.90
  11   6 -10   48.70   11.90
 -12   0  10   -9.40    9.70
   0  12  10   -8.10    7.00
  12   0  10   -0.40    9.10
  12   0 -10    5.30   10.80
   0 -12 -10   -2.50   12.00
   0  12 -10    5.20   11.00
   0 -12  10  -11.20    7.90
  -1  12  10   -4.10    7.10
   1 -12  10   18.50    9.20
 -12  -1  10   10.70   10.20
  12  -1 -10    3.40   11.20
  -1 -12 -10  -17.40   12.00
   1  12 -10    4.30   11.40
  12   1  10    6.60    8.90
   1  12  10   15.70    7.80
 -12  -1 -10    9.60   16.30
   1 -12 -10    8.40   12.60
  12  -1  10    0.90    9.80
  -1 -12  10   -6.00    7.40
  12  -1  10  -17.70   12.50
 -12   1  10   11.50    9.80
  12   1 -10   -2.60   10.30
  -1  12 -10   -1.70   10.10
  -2  12  10    9.70    8.10
  -2 -12 -10   26.40   13.00
   2  12 -10   -2.10   11.60
  -2  12  10   42.90   11.10
  12  -2 -10   10.70   11.20
   2 -12  10    9.00    8.10
  12   2  10   11.20    8.70
 -12  -2  10   12.20   11.40
  -2 -12  10   19.40    8.40
 -12   2  10   19.60   10.10
  12  -2  10   14.90   11.80
  12   2 -10    4.10   10.40
   2 -12 -10   28.10   11.80
  -2  12 -10    4.90   10.80
   2  12  10   13.10    7.90
  12  -2  10   18.00   13.90
 -12  -2 -10   18.00   15.30
 -12  -3  10   23.60   11.10
  -3  12  10   36.60    9.40
   3 -12  10   50.99   11.20
  12  -3 -10   18.40   10.90
  -3 -12 -10   19.10   13.20
  12   3  10   27.70    9.50
   3  12 -10   25.80   13.20
  -3  12  10   29.60   11.30
  -3 -12  10   48.60   10.40
  12  -3  10   14.80   11.80
   3  12  10   59.79   10.90
  12  -3  10   34.60   13.60
 -12  -3 -10   35.80   16.00
  -3  12 -10   34.40   11.60
 -12   3  10   15.50    9.60
  12   3 -10   27.10   11.00
  12  -4 -10   29.30   11.70
  -4  12  10   39.10   11.10
   4  12 -10   51.79   14.90
  12   4  10   34.90    9.80
  -4 -12 -10   28.90   12.30
   4 -12  10   27.00   10.20
 -12  -4  10   17.70   10.80
  -4  12  10   35.50   11.00
  -4  12 -10   14.90   10.80
  12  -4  10   35.10   14.80
 -12   4  10   11.60   10.00
 -12  -4 -10   -4.90   16.40
   4  12  10   21.10    8.30
  12   4 -10   40.40   12.00
  -4 -12  10   41.80   10.70
  12  -4  10   15.10   12.40
   0   0 -11   27.80    7.50
   0   0  11    4.30    6.40
   0   0  11   -0.30    7.60
   0   0  11    4.60    6.50
   0   0 -11   12.70   13.40
   1   0  11    9.00    6.80
  -1   0  11    3.60    6.80
   0  -1  11   11.00    7.90
   0   1  11    6.40    8.40
   0   1 -11    8.20    7.20
   1   0 -11   -9.30   12.70
   0   1  11    2.10    6.10
  -1   0  11    2.60    7.80
   0   1  11    5.30    6.70
   1   0  11   -9.40    6.40
   0  -1  11   15.10    6.90
   0  -1 -11   13.90    7.60
   1   0 -11    7.20    7.30
   0  -1  11   -4.80    6.70
  -1   0 -11    7.30   13.30
   0  -1 -11    9.30   12.20
   1   0  11   12.70    8.70
   0   1 -11    8.10   13.00
  -1   0  11   14.70    7.00
  -1   0 -11    4.60    7.30
   1  -1 -11   78.89   11.20
  -1  -1  11   55.99    9.10
  -1   1  11   27.30    9.00
  -1  -1  11   31.00    7.60
   1  -1 -11   53.49   13.20
  -1   1 -11   33.20    8.60
   1   1 -11   81.89   13.70
  -1  -1 -11   86.19   14.50
  -1  -1 -11   46.40    9.40
  -1  -1  11   58.19    8.80
   1   1  11   52.39    8.60
  -1   1 -11   56.99   15.40
  -1   1  11   64.39    9.90
  -1   1  11   34.30    7.80
   1   1  11   48.10    7.70
   1  -1  11   40.80    8.80
   1   1  11   60.79   10.20
   1   1 -11   62.99   14.60
   1  -1  11   43.80    8.20
   1  -1  11   34.70    7.50
   0   2 -11   -6.10    6.60
   0   2  11   -4.70    9.20
   2   0  11  -10.50    6.20
   0   2  11   -3.40    5.90
   0   2  11    5.20    6.50
  -2   0 -11    8.20    8.20
   0  -2  11   -2.70    6.70
  -2   0  11   -4.60    6.20
   0  -2 -11  -22.30   11.60
   2   0 -11    4.60    6.60
  -2   0  11    1.00    6.90
   2   0  11    0.10    6.70
   2   0  11  -10.60    8.00
   0  -2  11   -1.30    7.10
   0   2 -11   12.50   13.20
  -2   0  11    0.40    7.80
   0  -2 -11   11.40    7.90
  -2   0 -11   13.20   13.20
   0  -2  11    7.00    6.80
   2   0 -11   16.60   13.60
  -2  -1  11   64.49   10.10
  -2   1 -11   71.49   14.60
  -1  -2 -11   49.90   14.40
   2  -1 -11   60.09   11.00
  -1  -2 -11   51.79    9.70
   2   1  11   46.20   10.10
  -1   2  11   53.09   10.70
   1   2 -11   45.40    7.60
   2   1  11   58.99    8.50
   2   1  11   57.39    8.20
  -1   2  11   63.59   10.40
  -2  -1  11   45.00    8.30
   1   2 -11   79.69   16.90
   1  -2  11   79.09   12.20
   1  -2  11   73.19    8.90
  -2   1 -11   49.50    9.40
   1  -2  11   70.99   10.70
  -2  -1  11   49.30    8.90
  -1   2  11   46.60    8.90
   2  -1 -11   60.19   13.10
  -1  -2  11   59.69    9.20
   2  -1  11   81.59    9.40
   2   1 -11   68.59   14.90
  -1   2 -11   71.09   15.60
  -1  -2  11   52.39    8.80
  -1  -2  11   72.79   10.10
   2  -1  11   67.29   10.10
  -2   1  11   53.29    8.90
   1   2  11   69.69    9.10
  -1   2 -11   54.79    9.00
   2   1 -11   67.09   10.30
  -2  -1 -11   75.59   13.10
  -2   1  11   48.80    8.60
   1  -2 -11   76.09   12.80
   2  -1  11   56.99    9.10
   1  -2 -11   53.49   13.40
   1   2  11   63.29    8.60
   1   2  11   54.59   10.90
  -2  -1 -11   65.99   13.40
   2   2 -11    7.30   14.70
  -2   2  11   16.60    7.50
   2   2  11   41.30   10.90
  -2   2 -11   22.70   14.60
   2  -2  11   30.20    7.80
  -2  -2 -11   27.90   13.90
   2  -2  11   17.70    7.50
  -2  -2 -11   10.70    9.00
  -2  -2  11   13.80    7.40
   2   2  11   27.20    7.60
   2  -2  11   22.20    8.10
  -2   2 -11   13.60    8.00
  -2  -2  11   14.90    7.60
   2  -2 -11   25.20   12.00
  -2   2  11   16.30    7.30
   2  -2 -11   21.60    7.50
  -3   0  11   -0.60    8.20
  -3   0  11    2.30    8.40
   3   0  11    8.00    6.70
   0  -3  11    0.50    6.80
   3   0 -11   -7.60   12.80
   0   3  11    7.60    6.50
  -3   0 -11   14.80   13.60
   0  -3  11    6.80    7.50
   0  -3  11   -2.50    7.10
   0   3 -11   15.00   14.40
  -3   0  11    1.90    7.10
   0   3 -11    0.80    6.70
   3   0  11   -1.40    7.90
   3   0  11   10.10    6.80
  -3   0 -11    5.00    8.70
   0   3  11    3.70    6.70
   3  -1 -11   34.30    6.80
   3   1  11   49.10   11.10
   1   3 -11   40.80    7.80
   1  -3  11   54.69    8.40
   3  -1 -11   35.70   12.40
  -3   1 -11   29.70    9.40
   1  -3  11   29.10    8.30
  -1   3  11   43.50    7.80
  -1  -3 -11   33.50   13.20
   1   3 -11   63.49   17.10
  -3  -1  11   42.90    8.60
  -3  -1  11   35.50   11.80
   3   1  11   42.10   11.50
   3   1  11   31.40    8.00
  -1   3  11   21.90    7.80
   1  -3  11   31.20    8.20
  -3   1 -11   34.20   15.70
   3   1 -11   61.09   10.00
   3  -1  11   52.89    9.60
  -3  -1 -11   42.30    9.80
   3  -1  11   37.50    7.80
  -1   3 -11   43.10    8.70
  -3  -1 -11   11.60   13.80
  -1  -3  11   43.10    8.70
  -1  -3  11   46.20    9.90
   1  -3 -11   46.10    9.20
  -3   1  11   29.30    8.20
  -1   3 -11   31.70   15.60
   1   3  11   49.50    8.60
   3   1 -11   14.30   13.40
  -3   1  11   52.69    9.20
  -3   1  11   41.40    9.80
  -1  -3  11   32.30    8.10
   1   3  11   40.80    7.50
   1  -3 -11   18.00   11.30
   3  -1  11   38.90    8.60
   1  -3 -11   63.99   11.00
  -3   2 -11   23.10    8.70
   2   3 -11   32.00   15.90
  -2   3  11   25.50    7.90
  -2   3  11   39.30    8.60
  -3  -2  11   26.30    8.10
   3   2  11   30.40    7.90
  -2  -3 -11   23.10   12.60
   3  -2 -11   17.30   11.00
   2  -3  11   29.10    8.50
   2   3 -11   20.40    7.00
   3   2  11   13.00   10.50
  -3  -2  11   14.50    7.80
  -3   2 -11   31.00   14.70
   2  -3  11   36.20    7.80
   2  -3  11   41.70    8.50
   3   2  11   21.00    7.50
   3  -2 -11   17.20    6.80
   3  -2  11   20.10    8.20
  -2  -3  11   34.80    8.50
  -2  -3  11    6.60    7.00
   2   3  11   29.40    7.40
  -3   2  11   27.60    8.30
   2   3  11   31.10    7.80
   2  -3 -11   25.80   11.00
   3   2 -11   38.00   14.80
  -3  -2 -11   22.10   13.80
   3   2 -11   26.20    9.20
  -2   3 -11   33.20    8.60
   2  -3 -11   38.80    8.30
  -2   3 -11   35.90   16.30
   2  -3 -11   29.40   11.70
  -3   2  11   26.40    8.30
   3   2 -11   27.50    6.90
   3  -2  11   21.10    7.60
  -3   3  11   37.40    8.60
  -3   3 -11   17.70   15.10
  -3   3  11   49.70    9.00
   3   3  11   28.50    8.00
   3   3 -11   27.50    9.00
  -3  -3  11   28.90    8.60
  -3  -3 -11   46.20   14.00
   3  -3 -11   41.30   10.90
   3   3  11   35.10   15.40
   3  -3  11   38.00    9.30
   3  -3  11   59.49    8.70
  -3  -3  11   42.20    8.60
   3  -3 -11   35.60    7.50
  -3   3 -11   43.60    9.10
   3  -3 -11   50.99   11.00
   3   3  11   58.19    8.60
   3   3 -11   38.50    7.50
   4   0  11    8.60    6.90
   4   0 -11   13.60    5.80
   0   4  11   11.10    6.40
   0  -4 -11    5.80   10.10
   4   0  11   -3.60    8.30
  -4   0 -11   19.90   15.50
   0  -4  11    2.60    7.50
   4   0 -11   -2.80   12.20
   0   4  11    7.60    7.20
   0  -4 -11   -9.60   11.00
  -4   0 -11  -15.20    8.50
   0   4  11    5.40   13.30
  -4   0  11   -1.10    7.20
   0  -4  11    0.30    6.90
   0   4 -11    8.10    7.00
  -4   0  11   17.20    8.70
   0  -4  11   30.10   13.80
  -1   4  11   39.80    7.80
  -4  -1  11   27.90    8.60
   4  -1 -11   38.40    6.50
  -1  -4 -11   30.00   11.30
   1  -4  11   32.40    8.70
  -1   4  11   31.90    8.20
  -4   1 -11   23.50   11.40
   1  -4  11   34.20    9.20
   4   1  11   41.50    8.40
   4   1  11   18.20   10.50
   1   4 -11   33.90    7.40
  -4   1 -11    6.70   15.70
  -1  -4 -11   21.80   12.00
  -4   1 -11   29.40    9.10
   1  -4  11   42.40    9.10
  -4  -1  11   18.70    7.70
   4  -1 -11   22.10   11.90
  -4   1  11   46.90    9.10
  -1  -4  11   30.00    8.10
   1  -4 -11    4.60   10.30
  -4  -1 -11   23.80    9.60
  -1   4 -11   32.20   15.90
   4  -1  11   28.30    8.20
   4   1 -11   40.00   13.90
   1   4  11   32.80    7.90
  -4  -1 -11   39.10   14.30
  -1   4 -11   16.90    8.00
  -4   1  11   28.10   13.90
   4  -1  11   22.50    8.50
   4   1 -11   40.80   10.30
   1   4  11   19.40   14.70
   1   4  11   34.60    7.80
   1  -4 -11   16.40   10.60
  -1  -4  11   27.60    8.30
   4  -2 -11   16.10   12.40
   4   2  11   34.00   11.20
  -2   4  11   16.00    7.50
   2  -4  11   17.30    7.90
   4  -2 -11   23.10    6.40
   4  -2 -11   10.50   10.10
  -2  -4 -11   36.40   13.50
  -4   2 -11   15.40    7.90
  -4   2 -11    6.30   14.70
   4   2  11   22.00    7.70
   2   4 -11   17.90    7.00
   2  -4  11   13.30    7.80
  -4  -2  11   18.70    8.30
  -4   2 -11    8.60   10.80
   2   4 -11   22.80    8.70
  -2  -4 -11   10.00   11.90
  -2   4  11   11.90    7.30
  -4  -2  11   20.90    8.40
   4  -2  11   17.50    8.40
   2  -4 -11   18.60    8.40
  -2   4 -11   33.90   15.40
  -2  -4  11   25.20    8.40
  -2  -4  11   21.20    8.20
   4   2 -11   26.70    6.90
   4   2 -11   29.70    9.40
   2   4  11   19.50    7.60
   2   4  11    8.90    7.20
   2  -4 -11   16.70   10.40
  -4  -2 -11   33.60   14.90
   2  -4 -11   30.70    9.80
  -4   2  11   24.10    8.50
   4   2 -11   35.60   15.80
  -4   2  11   25.90    9.00
  -2  -4  11   23.70    7.90
   2   4  11   28.30   15.30
  -2   4 -11   32.40    8.80
   4  -2  11   25.90    7.60
  -4   3 -11   35.00   11.90
   4   3  11   28.80    8.20
   3   4 -11   44.80    9.50
  -4  -3  11   39.20    8.80
  -3  -4 -11   19.80   12.80
   3  -4  11   19.70    8.20
   4  -3 -11   30.40    9.80
   4  -3 -11   32.10    9.90
  -4  -3  11   31.00    8.00
  -3   4  11   41.80    8.80
   4  -3 -11   46.00    7.20
  -4   3 -11   22.90   15.60
   4   3  11   40.20   16.20
  -3   4  11   43.60    8.70
   3   4 -11   42.70    7.90
  -3  -4 -11   51.49   12.70
  -4   3 -11   32.40    9.10
   4   3  11   45.20    8.50
   3   4  11   24.40   15.70
   4   3 -11   35.80    8.90
  -4   3  11   30.60    8.90
  -4  -3 -11   51.79   14.30
  -4   3  11   52.49    9.50
  -3   4 -11   58.69   18.20
   4  -3  11   37.80    9.40
  -3  -4  11   41.60    8.70
   3  -4 -11   54.99    8.40
   4  -3  11   43.00    8.60
   4   3 -11   34.20    7.70
  -3  -4  11   30.50    8.30
   3   4  11   35.80    8.50
   3  -4 -11   43.00    9.50
  -3   4 -11   33.00    8.30
  -3   4 -11   34.90   12.60
   3  -4 -11   36.50   10.30
  -3  -4  11   27.40    9.00
   4  -4 -11  -13.40    8.70
   4   4  11    8.10   10.30
  -4   4 -11    6.80    7.80
  -4  -4  11    0.20    7.80
  -4   4  11    9.90    8.30
   4  -4 -11  -18.00   10.70
  -4   4 -11    4.10   15.90
   4  -4  11    4.90    8.30
  -4   4  11    2.00    7.30
  -4  -4 -11  -12.20   13.10
   4   4 -11   -1.20    6.80
   4   4  11   11.50   16.70
   4  -4 -11    1.30    6.40
  -4  -4 -11    5.60   11.80
   4  -4  11   -2.60    7.20
  -4  -4  11    6.90    6.80
   4   4 -11   13.20    8.80
   4   4  11   15.10    7.30
  -4  -4  11   -2.80    8.20
  -4   4 -11    2.30   11.20
  -5   0 -11    0.10    9.10
   0  -5 -11    5.40    9.50
   0   5 -11  -11.10    6.40
   0  -5 -11  -12.70   10.50
   5   0  11   -8.20    6.70
   5   0  11    3.90    8.80
  -5   0  11   12.40    7.80
   0  -5  11   -3.60    7.50
  -5   0 -11    4.60   14.90
   0  -5  11   -3.20    6.90
   5   0 -11   -2.00    5.50
  -5   0 -11   -4.30   14.20
   0   5  11   -4.20   14.10
   5   0 -11   -7.00    8.80
   0  -5  11    5.90    8.30
   0   5  11   -2.70    7.30
   5   0 -11   -2.50   11.90
   0   5  11   -0.70    6.50
   5   1  11   53.29   11.10
  -1   5  11   48.80    8.80
   5  -1 -11   47.60   10.50
   5  -1 -11   47.20    8.30
  -1   5  11   15.30   15.60
   5   1  11   40.40    8.40
  -1  -5 -11   46.60   11.60
   1   5 -11   42.40    8.00
  -5   1 -11   49.00   11.30
   1   5 -11   48.60    9.20
  -1   5  11   52.69    9.00
  -5   1 -11   43.70   10.10
  -1  -5 -11   32.30   11.80
   1  -5  11   40.20    9.30
   1  -5  11   51.99   10.30
  -5   1 -11   27.10   15.40
  -5  -1  11   42.60    9.30
  -5  -1  11   22.50    8.70
   5  -1 -11   55.59   11.00
   1  -5  11   23.50    9.10
  -5  -1 -11   62.29   12.10
   5  -1  11   22.20    9.00
  -5  -1 -11   46.60   15.30
  -1  -5  11   36.90    9.00
   1  -5 -11   25.90   11.30
   5   1 -11   35.20   14.30
   1   5  11   34.20    8.20
  -1  -5  11   40.00    8.70
  -1  -5  11   37.30    8.20
   1   5  11   26.80   15.00
  -5   1  11   37.50    9.50
   5   1 -11   43.10    7.10
   5   1 -11   43.90   10.00
  -1   5 -11   37.60    8.60
   1  -5 -11   25.30   10.20
   1   5  11   49.60    8.30
   5  -1  11   37.50    8.70
  -5  -1 -11   47.50   10.20
  -2  -5 -11    4.50   11.60
  -5  -2  11    9.40    8.20
   5  -2 -11    6.70    8.60
   5   2  11   12.20    7.20
  -2   5  11    1.20    7.10
  -2  -5 -11   18.70   11.80
  -5   2 -11   16.70   10.50
  -2   5  11   25.50    7.90
   2  -5  11   21.90    9.20
  -5   2 -11   11.60    9.20
   2   5 -11   27.00    8.60
   2   5 -11    5.30    6.80
   2  -5  11   12.90    8.10
   5   2  11   20.80   10.50
  -5  -2  11   18.70    7.40
  -5   2 -11   -5.70   16.20
   5  -2 -11   12.70    4.90
   5  -2  11   13.20    7.60
   5   2 -11    7.40    9.00
   2   5  11   11.00    7.20
  -2   5 -11   23.80    8.40
  -2  -5  11   24.20    8.20
   2   5  11   35.50   15.50
  -5   2  11   17.40    8.40
   2   5  11   19.40    7.50
   5  -2  11   22.30    9.30
  -2  -5  11    1.50    8.00
   2  -5 -11    8.70    9.40
  -2  -5  11   11.20    8.30
  -5  -2 -11   34.20   15.60
  -5  -2 -11   24.40   10.80
   5   2 -11   24.00   25.20
  -2   5 -11   -0.70   15.70
   5   3  11   33.50    8.40
  -5  -3  11   30.20    8.70
   5   3  11   39.50   16.30
   5  -3 -11   52.99    7.70
   5  -3 -11   23.50    8.00
  -3  -5 -11   18.40   12.30
   3   5 -11   31.70    7.90
  -5   3 -11   37.60   11.30
  -5   3 -11   18.60   15.60
   3  -5  11   39.90    9.00
  -5   3 -11   47.20   10.30
  -5  -3  11   38.00    9.40
  -3   5  11   40.30    8.50
  -3  -5 -11   41.50   13.40
   3   5 -11   51.39    9.40
  -3   5  11   54.49    8.90
   3  -5  11   36.60    9.60
  -3   5 -11   43.90   19.30
  -5   3  11   39.30    9.10
   3   5  11   45.20    8.20
  -3   5 -11   51.59   12.30
  -3  -5  11   41.00    9.20
  -3  -5  11   36.50    8.40
  -3   5 -11   43.90    9.50
   5  -3  11   25.40    8.40
  -3  -5  11   46.90    9.60
   5  -3  11   58.79    9.80
   3   5  11   48.90   16.80
   3   5  11   43.20    8.10
   5   3 -11   43.40   10.20
   3  -5 -11   44.00   10.00
   5   3 -11   30.50    8.00
  -5  -3 -11   28.00   16.20
   3  -5 -11   11.80   10.10
  -4  -5 -11   10.30   13.20
  -5   4 -11    3.80    7.90
  -4  -5 -11   -0.60   14.00
  -5  -4  11   -8.10    8.80
   4  -5  11    2.60    8.50
   5  -4 -11    6.10    5.20
  -5  -4  11    8.40    7.50
  -5  -4  11    5.20    8.80
   4   5 -11   14.90    7.70
  -4   5  11    3.50    7.80
   4   5 -11   11.40    8.40
   5   4  11    8.80    7.50
   4  -5  11   -1.00    7.50
   5  -4 -11    1.50    6.60
   5   4  11   39.20   17.70
  -5   4 -11    2.70   16.30
  -4   5  11    5.50    7.00
  -5   4 -11   14.60   10.60
  -4  -5  11    7.70    8.30
  -4  -5  11   22.70    9.00
   5   4 -11   22.70    9.50
  -4  -5  11    2.60    8.70
  -4   5 -11   18.10   11.50
   4   5  11  -10.00    6.00
  -5   4  11   -4.70    7.10
  -5  -4 -11   18.10   14.00
  -4   5 -11    1.50    8.70
   5   4 -11    5.30    7.40
   4  -5 -11  -14.10    8.80
   5  -4  11    0.60    8.20
  -4   5 -11    8.40   17.00
   5  -4  11    5.10    8.10
   4   5  11   18.30   16.80
   4  -5 -11    3.00    7.20
  -5  -4 -11    9.60   11.90
   5  -5  11    6.00    8.40
  -5  -5 -11   12.20   14.00
  -5  -5 -11    2.80   12.40
  -5   5  11    1.30    7.20
   5  -5  11    5.60   15.10
   5  -5 -11    4.60    6.30
  -5  -5  11    6.70    8.90
   5  -5 -11    4.20    6.60
  -5   5 -11   -5.40    8.40
   5   5  11    3.40    7.40
   5   5 -11  -11.70    8.80
   5   5  11   24.40   17.70
  -5  -5  11    0.70    7.20
   5   5 -11    3.40    7.80
  -5  -5  11    4.30    9.60
  -5   5  11    4.60    9.60
  -5   5 -11    2.30   10.10
  -6   0 -11   13.00    9.50
   0   6  11   33.40    8.30
   6   0 -11   14.50    5.80
   0  -6 -11    4.90   12.50
   0  -6  11   19.20    9.50
   0   6 -11   20.00    7.90
   0  -6 -11   34.40   10.70
   6   0 -11   23.40   10.00
  -6   0  11   31.20    8.60
   0  -6  11   16.80    9.00
   0   6  11   30.80    8.50
   0  -6  11   23.20    8.50
   6   0  11   29.80   11.30
  -6   0 -11    9.80   10.50
   6   0 -11   30.20   11.50
  -6   0 -11   23.70   16.80
   0   6  11   41.40   15.80
   6   0  11   28.10    8.30
  -1   6  11  193.38   24.20
   6   1  11  119.29   12.60
  -1  -6 -11  121.09   17.00
  -6  -1  11  139.39   13.60
   1  -6  11  102.09   14.90
   1   6 -11  129.89   12.60
  -6   1 -11   95.19   15.80
  -6   1 -11  109.19   18.50
   1  -6  11  132.79   14.20
  -6  -1  11  135.79   13.80
  -6   1 -11  135.99   16.10
  -1   6  11  132.89   11.90
   1   6 -11  127.59   13.30
  -1   6  11  141.39   12.80
   6  -1 -11  121.49    8.20
   6   1  11  161.68   17.20
   6  -1 -11  135.89   12.40
  -1  -6 -11  154.38   18.50
   6  -1 -11  135.49   13.90
   1  -6 -11  141.79   16.00
  -6  -1 -11  121.19   17.10
  -1  -6  11  127.89   13.30
   6   1 -11  105.79   10.70
  -6   1  11  124.19   13.70
   1   6  11  197.38   27.30
   1   6  11  157.18   12.80
   1  -6 -11  142.49   18.60
   6  -1  11  134.79   12.90
   6   1 -11  135.09   14.60
   1   6  11  144.89   12.90
   6   1 -11  121.69   20.50
  -1   6 -11  148.59   13.20
  -6  -1 -11  140.69   25.00
   6  -1  11  118.19   15.20
  -1  -6  11  132.49   13.80
  -1  -6  11  135.19   14.90
   6   2  11  130.89   18.00
   6   2  11  110.69   12.40
   6  -2 -11   93.29   12.20
  -6  -2  11   89.89   12.90
  -6   2 -11  102.39   19.40
  -2   6  11   89.39   11.50
  -2  -6 -11  104.79   16.80
   2  -6  11   98.59   13.00
  -2   6  11   87.69   27.60
  -6   2 -11  107.89   15.10
  -6   2 -11  118.99   15.80
   2   6 -11  100.39   12.60
   2   6 -11   99.89   11.80
  -2  -6 -11  110.89   18.70
  -2   6  11   93.29   12.20
  -2  -6  11   98.69   14.30
   2   6  11   95.19   12.30
   6  -2  11  100.29   12.20
   2  -6 -11  110.69   16.70
  -6  -2 -11   82.19   17.70
   2   6  11   91.19   11.30
  -2  -6  11  119.09   12.70
   6  -2  11  111.49   14.80
  -2   6 -11   96.19   12.70
   6   2 -11   94.09   13.70
   2  -6 -11  108.39   14.50
  -2  -6  11  112.29   13.50
   2   6  11   97.59   18.60
   6   2 -11   83.59   10.90
   6   2 -11   87.39   17.70
  -2   6 -11   89.89   14.90
  -6   2  11   96.09   12.40
   3   6 -11  110.09   12.40
  -3  -6 -11  145.59   20.00
  -6   3 -11  127.09   22.40
   3  -6  11  122.39   14.30
  -3   6  11  131.29   12.80
   3   6 -11  115.79   13.00
  -6  -3  11  133.69   21.80
  -3   6  11  125.19   13.10
  -3   6  11  119.19   17.40
  -6  -3  11  118.89   13.50
   6   3  11  109.69   19.20
  -6   3 -11  177.48   17.40
   6  -3 -11  133.19   15.00
   6   3  11  154.28   13.00
  -6   3 -11  122.09   15.70
  -3  -6 -11  129.79   17.60
   3  -6 -11  114.69   17.90
   6  -3  11  124.19   12.70
  -3   6 -11  130.79   17.90
  -6  -3 -11  127.09   18.00
   3   6  11  131.49   12.30
   3   6  11  194.38   27.50
  -3  -6  11  147.69   15.30
   6   3 -11  134.29   14.30
  -3  -6  11  124.79   15.20
   3  -6 -11  120.79   16.70
  -6  -3 -11  132.99   24.20
  -6   3  11  136.59   14.20
   6  -3  11  136.89   15.10
  -3   6 -11  156.78   14.00
  -3  -6  11  115.39   13.40
   6   3 -11  146.19   12.90
  -4   6  11   36.40    8.50
   4  -6  11   52.39    9.90
  -6  -4  11   43.70   10.40
  -4  -6 -11   60.09   13.80
  -6   4 -11   62.29   13.10
  -6   4 -11   27.10   10.30
   6   4  11   36.90   20.00
   4   6 -11   39.10    9.00
  -4   6  11   45.20    9.50
   6   4  11   54.29    9.20
   4   6 -11   51.19    9.80
  -6  -4  11   62.79   10.50
  -6  -4  11   50.09    9.80
  -4  -6 -11   41.00   14.70
   6  -4 -11   53.89   11.40
  -4  -6  11   59.79   10.50
   6   4 -11   43.00   10.30
   4   6  11   47.40    9.50
   4   6  11   27.40   16.80
   4  -6 -11   53.49   10.00
  -4   6 -11   32.00    8.80
   6  -4  11   67.49   10.30
  -4  -6  11   62.19   11.20
  -4   6 -11   49.99   12.50
  -6   4  11   50.29   10.00
   6  -4  11   39.80    9.70
  -4  -6  11   53.69   10.80
  -6  -4 -11   71.29   15.80
  -6  -4 -11   68.99   32.40
   6   5  11   41.60   13.10
  -5  -6 -11   42.80   13.30
  -6   5 -11   46.00   12.20
  -5   6  11   35.10   10.70
   5   6 -11   23.80    9.20
  -5   6  11   35.40    9.00
  -6  -5  11   30.40   10.60
  -6  -5  11   57.49   11.30
  -6  -5  11   33.60    8.50
   5  -6  11   31.80   10.90
   5   6 -11   26.30    9.50
  -5  -6  11   28.50    9.00
   6   5 -11   33.20    9.60
  -5  -6  11   51.99   11.10
  -5  -6  11   89.39   14.80
   5   6  11   64.89   20.00
  -5   6 -11   54.99   13.40
   5   6  11   44.60    9.20
  -6   5  11   38.50    9.70
   6   5 -11   25.90    9.80
   6  -5  11   34.50   10.60
   6  -6  11  128.09   14.90
   6   6 -11  131.49   15.80
  -6  -6  11  135.99   16.60
  -6  -6  11  128.39   18.10
   6   6 -11  149.09   15.00
  -6   6  11  130.29   14.80
   6   6  11  135.39   13.30
  -6  -6 -11  169.18   20.90
  -6   6 -11  149.09   17.70
  -6  -6  11  123.59   14.50
   0   7  11    6.40    7.00
   7   0  11   11.80   10.80
   0   7 -11   10.30    7.80
   0   7  11   16.50    8.50
   0  -7  11    8.00    8.90
  -7   0 -11   -7.70   10.60
  -7   0  11   -4.30    8.30
   0   7  11    3.10   16.50
   0  -7 -11   -4.70   11.40
  -7   0 -11    6.30    9.40
   7   0 -11    8.80    9.70
   0  -7 -11    9.70   10.10
   7   0  11    6.90    7.50
   0  -7  11    1.80    7.60
  -7  -1  11  125.89   14.30
   7   1  11  118.39   12.20
  -1  -7 -11  128.99   19.50
   7  -1 -11  131.99   15.40
  -1   7  11  124.59   19.10
  -1  -7 -11  138.69   17.30
  -7   1 -11  107.89   16.20
  -1   7  11  154.78   12.80
  -7   1 -11  153.38   19.30
   1   7 -11  103.49   13.20
  -1   7  11  118.99   11.80
   7   1  11  124.99   17.90
   1  -7  11   97.19   15.50
   1  -7  11   97.99   13.90
   1  -7 -11  108.19   18.30
  -1   7 -11  117.89   19.00
  -1  -7  11  114.09   14.00
   7   1 -11   90.69   11.50
   7  -1  11  120.69   16.10
   7  -1  11  127.19   12.80
   1   7  11  124.69   12.30
   7   1 -11   98.29   14.50
   7   1 -11  130.59   15.30
  -1   7 -11  109.99   12.90
  -1  -7  11  122.09   15.70
   1   7  11  139.79   20.20
  -7   1  11  118.69   14.30
  -1  -7  11  117.39   14.10
   1   7  11  114.99   13.00
  -7  -1 -11  104.59   18.00
   1  -7 -11  104.19   15.80
   2  -7  11  114.09   14.30
  -2  -7 -11  123.69   17.60
  -2  -7 -11  162.98   20.00
  -2   7  11  124.59   13.50
   7  -2 -11  117.09   15.70
  -7   2 -11  140.79   16.60
  -2   7  11  219.28   25.80
   2  -7  11  148.19   24.70
   2   7 -11  140.59   14.10
  -7  -2  11  133.49   15.30
   7   2  11  120.49   12.60
  -7   2 -11  147.39   23.50
  -2   7  11  137.39   13.10
  -2  -7  11  109.49   15.70
  -2  -7  11  128.69   14.50
   2   7  11  119.49   13.40
   7   2 -11  120.99   18.90
  -7   2  11   99.79   13.00
  -2   7 -11  151.28   18.60
   7   2 -11  135.79   15.00
   7  -2  11  140.69   13.40
  -2  -7  11  113.49   13.80
   2   7  11  111.49   13.40
   2  -7 -11  128.69   17.70
   7   2 -11  101.69   13.00
   2   7  11  100.39   19.80
   7  -2  11  149.79   16.80
   2  -7 -11  140.99   16.10
  -2   7 -11  136.59   13.50
  -7  -3  11   80.19   18.80
  -3   7  11  107.39   12.50
  -3  -7 -11   67.59   14.00
  -3   7  11   89.29   18.00
   3  -7  11  103.49   17.20
   3   7 -11  102.69   13.20
  -3  -7 -11  112.49   18.00
   7   3  11   93.69   12.30
  -7   3 -11  119.79   16.80
  -3   7  11   68.19   13.00
   7  -3  11  111.09   13.80
  -3  -7  11  118.89   15.80
   3  -7 -11  103.19   19.00
   3   7  11  102.99   19.30
   7  -3  11   50.09   17.30
   7   3 -11  101.59   14.50
   3  -7 -11   76.69   11.60
  -7   3  11  101.59   13.90
   3   7  11  104.89   13.50
  -3   7 -11  118.59   17.60
  -3  -7  11   84.69   13.60
  -7  -4  11   17.80    9.00
  -7   4 -11   24.80   11.90
  -7  -4  11   22.30   10.80
  -4   7  11   38.90    9.00
  -4  -7 -11   26.10   16.70
  -4   7  11   39.50   10.20
  -4  -7 -11   24.10   12.80
   7  -4 -11   28.50   10.40
   4   7 -11   28.20    9.10
   4  -7  11   23.00    9.00
   7  -4  11   40.60   11.10
  -4  -7  11   19.30   10.40
   7  -4  11   25.20   10.40
   4  -7 -11   34.90    9.70
  -4   7 -11   28.60   11.80
   4   7  11   23.30    8.40
   7   4 -11   40.50   10.50
  -7  -4 -11    6.90   13.20
  -4  -7  11   50.99   10.60
   7   4 -11    3.50    9.60
  -4  -7  11   45.50   10.70
   4   7  11   27.00   17.90
  -5  -7 -11   38.70   14.00
  -5   7  11   33.00   10.40
  -5   7  11   56.49   11.10
  -7   5 -11   27.80   12.50
   5  -7  11   38.50   10.10
   5   7 -11   32.40   10.80
   7   5  11   50.09    8.80
  -7  -5  11   20.50    8.90
   5   7 -11   31.40    9.70
  -7  -5  11   18.70   11.20
   7  -5 -11   25.80   10.90
  -5  -7  11   28.30    9.10
   7  -5  11   20.90    9.10
  -7  -5 -11   42.30   14.90
  -5  -7  11   40.70   11.20
  -5   7 -11   43.30   13.00
  -7   5  11   34.60    9.60
   7   5 -11   15.00   10.10
   7   5 -11   17.20   10.80
   5   7  11   36.80    8.70
   7  -5  11   57.49   12.00
  -5  -7  11   52.89   11.20
   6  -7  11   57.09   11.30
  -6  -7 -11   66.69   14.60
  -7  -6  11   92.89   13.50
   6   7 -11   63.09   11.80
  -7  -6  11   80.19   12.00
   7  -6 -11   73.39   12.40
  -7  -6  11   73.79   13.20
   7   6  11   95.39   12.60
  -7   6 -11   63.59   13.90
   6   7 -11   37.60   10.90
  -6   7  11   63.99   11.90
   7  -6  11   54.79   10.80
  -6  -7  11   49.50   10.80
   7   6 -11   68.39   12.80
  -7   6  11   61.09   10.70
  -7  -6 -11   75.89   15.80
  -6   7 -11   80.29   14.20
  -6  -7  11   80.49   13.10
   6   7  11   85.89   12.30
   7   6 -11   79.39   11.60
   7   7 -11   73.49   11.70
   7   7 -11   53.39   12.70
   7   7  11   50.59    9.70
   7  -7  11   68.09   12.10
  -7   7 -11   58.59   15.40
  -7  -7  11   75.69   13.90
   7  -7 -11   47.00   11.80
  -7  -7 -11   54.99   14.10
  -7  -7  11   37.80   11.00
  -7  -7  11   75.39   13.80
  -7   7  11   68.99   12.20
   8   0  11   70.39   13.40
   0   8  11   70.89   10.40
   8   0  11   79.69   10.60
   0  -8  11  101.19   12.40
   8   0 -11   54.99   11.90
  -8   0  11   65.19   11.00
   0  -8 -11  102.79   16.60
   0   8  11  110.49   20.30
   0   8  11   82.59   11.30
   0   8 -11   76.19   12.60
   0   8 -11   53.99   14.00
   0  -8 -11   64.79   13.70
  -1   8  11  223.18   15.10
   8   1  11  205.88   14.70
  -1  -8 -11  257.27   19.20
   8   1  11  209.98   20.20
  -1  -8 -11  247.08   22.20
   1   8 -11  219.58   15.70
   8  -1 -11  108.69   24.70
  -8  -1  11  186.18   16.70
  -1   8  11  252.77   29.50
  -1   8  11  209.38   14.80
   1   8  11  252.37   30.90
   1  -8 -11  234.78   20.20
  -1   8 -11  229.98   21.50
  -1  -8  11  211.48   22.10
   1  -8 -11  237.68   18.70
  -1  -8  11  213.38   16.30
   1   8  11  206.88   15.20
  -8   1  11  187.38   15.90
   8  -1  11  215.08   19.60
   8  -1  11  211.28   15.30
   8   1 -11  216.48   17.50
  -2   8  11  220.68   15.60
  -2   8  11  217.28   15.00
  -8   2 -11  241.28   19.60
   2   8 -11  224.28   15.60
   8   2  11  207.18   15.20
  -2  -8 -11  223.08   19.80
   2  -8  11  214.88   16.70
  -8  -2  11  197.98   16.60
   8  -2 -11  216.48   17.30
  -2   8  11  277.57   32.00
   2  -8 -11  216.68   18.10
  -2  -8  11  198.08   18.60
  -2   8 -11  185.98   22.40
   2   8  11  217.68   15.20
  -2  -8  11  223.98   16.30
  -2  -8  11  196.48   16.60
   8   2 -11  212.98   17.40
  -8   2  11  177.58   16.40
   2   8  11  215.58   30.70
   2  -8 -11  266.67   20.10
   8  -2  11  222.38   18.60
   8  -2  11  220.38   16.30
  -8   3 -11  188.68   21.00
   8   3  11  182.68   14.60
  -3  -8 -11  196.98   20.40
  -3   8  11  154.98   14.90
   8  -3 -11  168.68   16.10
   3   8 -11  155.38   14.80
  -8  -3  11  138.99   15.40
  -3  -8 -11  144.39   24.80
   3  -8  11  166.38   16.00
  -3   8  11  177.58   24.80
  -3   8  11  171.68   14.50
   8  -3  11  163.48   17.40
   3  -8 -11  204.88   18.30
   3  -8 -11  158.18   16.70
  -8  -3 -11  176.38   22.50
  -8   3  11  158.78   15.50
  -3  -8  11  183.48   15.90
  -3   8 -11  190.58   19.30
  -3  -8  11  167.58   16.00
   8   3 -11  175.88   16.20
  -3  -8  11  172.28   17.50
   3   8  11  171.88   14.10
   8  -3  11  223.08   16.50
   3   8  11  178.88   30.90
  -4  -8 -11   54.29   16.20
  -4   8  11   78.99   11.90
   4   8 -11   54.19   10.60
  -8  -4  11   43.40   10.40
   8   4  11   77.89   11.70
  -8   4 -11   90.79   14.90
   8  -4 -11   87.69   12.80
  -4   8  11   71.69   11.10
   4  -8  11   80.89   11.60
  -4  -8  11  103.19   15.50
   8  -4  11  112.59   14.70
  -8   4  11   80.09   12.10
  -4   8 -11   74.09   13.80
  -4  -8  11   83.79   12.00
   8   4 -11   88.69   12.00
   8  -4  11   94.99   16.10
   4   8  11   54.79    9.60
  -8  -4 -11   78.89   15.10
  -4  -8  11   77.89   12.20
  -5   8  11   46.60   10.80
  -8   5 -11   86.59   15.10
   8  -5 -11   48.40   11.90
   5  -8  11   75.59   12.70
  -5  -8 -11   59.89   14.40
   5   8 -11   92.79   16.40
  -8  -5  11   42.80    9.40
   8   5  11   59.79   10.00
  -5   8  11   62.99   15.00
  -5   8 -11   55.19   13.70
  -5  -8  11   47.60   10.00
  -5  -8  11   75.99   12.40
   5   8  11   69.99   10.90
   8   5 -11   74.59   11.80
   8  -5  11   41.60   10.40
  -8   5  11   47.80   10.80
  -8  -5 -11   71.99   17.10
   8  -6 -11  112.19   16.90
  -8  -6  11   50.89   10.10
  -6   8  11  110.79   14.70
  -6  -8 -11  118.99   19.50
   6  -8  11  133.19   15.70
   6   8 -11  117.19   17.60
  -8   6 -11  123.99   18.60
   8   6  11   82.09   12.00
  -8   6  11  104.39   14.50
  -6  -8  11   63.39   11.20
   6   8  11   84.69   12.20
  -6  -8  11  102.49   14.40
  -6  -8  11  130.39   19.10
  -8  -6 -11   89.99   15.60
   8  -6  11   53.69   10.60
  -6   8 -11   67.89   14.40
   8   6 -11   62.59   11.70
  -7  -8 -11   88.89   16.00
  -8  -7  11   40.40   10.30
   7   8 -11   61.59   14.40
  -7   8  11   64.59   11.80
   8   7  11   90.49   12.60
   8  -7 -11   65.39   12.60
   7  -8  11   91.39   15.20
  -8   7 -11   73.29   18.50
  -7   8 -11   62.99   13.80
  -7  -8  11   64.59   12.10
  -7  -8  11   96.29   15.00
   8  -7  11   90.59   13.50
   7  -8 -11   75.09   13.10
  -8   7  11   59.79   11.60
  -7  -8  11   79.09   14.20
  -8  -7 -11  130.39   21.60
   8   7 -11   70.89   12.50
   7   8  11   83.09   12.60
  -8   8 -11   88.09   15.60
   8   8  11   81.89   12.50
   8  -8 -11   59.79   12.60
  -8   8  11   66.49   11.20
  -8  -8  11   50.29   11.50
  -8  -8  11   84.29   17.70
  -8  -8 -11   77.79   16.30
   8  -8  11  118.79   16.40
  -9   0  11   78.59   12.20
   9   0  11   46.90   13.40
   9   0 -11   80.19   13.00
   0  -9  11   67.69   10.90
   0   9  11   61.69   10.80
   0  -9 -11   79.19   14.40
   0   9  11   76.59   10.70
   0  -9 -11   91.79   14.40
   0   9 -11   62.99   14.30
   0   9  11   64.99   20.20
   9   0  11   61.79   11.00
   1   9 -11  147.79   19.20
   1  -9  11  151.18   15.60
   9   1  11  149.19   20.60
  -1   9  11  168.68   13.70
   9  -1 -11  132.99   16.40
  -1  -9 -11  180.48   19.00
  -9  -1  11  134.29   15.60
  -1  -9 -11  153.68   22.40
   9   1  11  184.08   21.20
  -1   9  11  180.98   15.30
  -1   9  11  201.08   31.60
   1  -9 -11  148.39   18.00
  -1   9 -11  155.08   19.50
   1   9  11  144.49   14.30
   1   9  11  135.59   21.90
   9   1 -11  136.19   17.10
   9  -1  11  190.38   15.30
  -9   1  11  134.29   15.40
  -1  -9  11  189.98   15.90
   1  -9 -11  177.58   19.90
   9  -1  11  167.48   19.00
  -2   9  11  170.18   15.40
  -2   9  11  136.29   14.10
  -2   9  11  133.59   23.60
  -2  -9 -11  193.48   19.80
  -2  -9 -11  218.98   35.70
   9  -2 -11  146.69   16.10
  -9  -2  11  123.39   15.30
   9   2  11  153.78   14.50
   2  -9  11  163.48   15.60
   9   2 -11  165.98   17.30
  -9   2  11  146.29   15.40
  -2   9 -11  124.29   18.50
   2   9  11  114.69   22.00
   2   9  11  129.59   13.60
   9  -2  11  153.48   17.40
  -2  -9  11  146.29   16.10
   2  -9 -11  141.19   18.50
   9  -2  11  163.38   16.00
   2  -9 -11  148.69   17.20
   9  -3 -11  115.49   16.60
  -9  -3  11  135.09   15.40
   9   3  11  137.09   14.10
  -9   3 -11  152.38   24.10
   3  -9  11  146.19   16.00
  -3  -9 -11  116.09   17.50
  -3   9  11  161.68   14.50
  -3   9  11  161.38   15.10
   3  -9 -11  142.39   16.70
   9   3 -11  118.89   22.20
  -9  -3 -11  147.99   22.90
  -9   3  11  146.79   15.50
  -3   9 -11  159.08   18.30
  -3  -9  11  151.18   15.80
   3   9  11  143.19   13.10
  -3  -9  11  163.88   20.10
   9  -3  11  162.08   18.20
   9  -3  11  169.48   16.80
  -4   9  11   58.29   10.90
  -9  -4  11   45.40   10.70
   9   4  11   87.69   12.70
  -4   9  11   65.89   11.70
   4  -9  11   67.09   10.80
  -4  -9 -11   65.79   13.90
   9  -4 -11   72.99   12.40
   9   4 -11   75.19   21.90
  -9  -4 -11   51.89   14.60
  -4   9 -11   48.80   12.60
  -4  -9  11   50.39   10.70
   9  -4  11   80.99   12.40
  -9   4  11   66.99   11.60
  -4  -9  11   71.29   23.80
   9  -4  11   64.49   12.30
   4   9  11   49.70    9.40
  -5  -9 -11   74.99   14.20
  -9  -5  11   28.10    9.40
  -5   9  11   46.50   11.20
   5  -9  11   63.39   11.80
  -5   9  11   99.59   15.20
   9  -5 -11   60.09   12.50
   9   5  11   59.79   10.20
  -5  -9  11   95.09   19.70
  -9  -5 -11   49.50   15.50
   9   5 -11   53.39   13.90
  -9   5  11   46.50   10.50
   9  -5  11   52.29   11.50
   5   9  11   49.40    8.70
  -5  -9  11   45.00   10.50
  -5   9 -11   69.79   13.20
   9   6  11   72.09   10.90
   9  -6 -11   87.09   13.20
  -6  -9 -11  131.49   19.90
  -9  -6  11   44.40    9.70
   6  -9  11  104.89   15.30
  -6   9  11   76.29   12.40
  -9   6 -11   70.09   20.60
  -9   6  11   78.69   12.70
  -6   9 -11   75.29   13.70
  -6  -9  11  124.09   17.60
   9   6 -11   96.89   13.70
  -9  -6 -11   80.79   16.40
   6   9  11   63.69   10.00
  -6  -9  11   68.59   11.20
   9  -6  11   51.99   11.20
  -7  -9 -11   75.59   15.20
  -9  -7  11   31.70   10.20
  -9   7 -11   78.79   16.10
   9   7  11   54.09    9.60
   9  -7 -11   43.30   12.10
  -7   9  11   68.09   11.80
   7  -9  11   68.89   12.40
  -7  -9  11   56.49   11.80
   9   7 -11   62.79   13.00
   9  -7  11   84.79   14.00
  -7  -9  11   91.99   15.70
   7  -9 -11   65.49   13.30
  -7   9 -11   75.69   14.60
  -9  -7 -11   78.09   16.60
  -9   7  11   68.49   13.30
   7   9  11   55.29   10.50
   8  -9  11   46.10   11.20
   9   8  11   41.60   10.10
  -8   9  11   32.20   11.50
  -9   8 -11   55.69   15.30
  -8  -9 -11   40.30   14.50
  -9  -8  11   30.90   10.70
   9  -8 -11   44.20   11.80
  -9  -8 -11   51.69   14.50
  -8  -9  11   57.09   11.50
  -9   8  11   58.69   12.20
   9  -8  11   48.00   11.90
   8   9  11   54.49   10.20
  -8   9 -11   32.30   13.60
   9   8 -11   44.60   12.20
  -8  -9  11   94.49   16.60
   8  -9 -11   50.29   12.60
 -10   0  11   48.40   11.40
  10   0  11   45.50   11.10
   0 -10 -11   15.80   13.60
  10   0 -11   27.50   11.60
   0  10  11   46.60    9.20
   0 -10  11   32.80   10.00
   0  10 -11   31.60   12.20
  10   0  11   37.30   13.50
   0 -10 -11   34.10   12.90
  10   1  11   61.39   11.20
 -10  -1  11   55.09   11.30
  10  -1 -11   67.89   12.70
  -1  10  11   66.39   11.40
  -1  10  11   68.69   10.70
  -1 -10 -11   63.29   13.80
   1  10 -11   35.90   12.80
   1 -10  11   68.99   11.10
 -10   1  11   46.00   11.10
  -1  10 -11   39.80   12.50
  -1 -10  11   62.39   10.90
   1 -10 -11   89.89   14.00
   1  10  11   87.49   24.50
  10  -1  11   32.70   14.30
   1  10  11   61.79   10.20
  10  -1  11   68.89   13.10
  10   1 -11   65.99   12.80
   1 -10 -11   40.70   13.20
   2 -10  11   86.29   14.50
  -2 -10 -11   89.69   15.60
 -10  -2  11   61.89   11.70
   2  10 -11   57.49   13.90
  -2  10  11   69.19   10.80
  10  -2 -11   75.99   13.00
  -2  10  11   84.19   12.10
  10   2  11   62.79   10.80
  10  -2  11   81.89   12.90
  -2  10 -11   59.49   12.90
   2 -10 -11   71.99   13.20
   2  10  11   84.29   11.80
  10  -2  11   56.79   12.60
 -10  -2 -11   45.00   16.00
  10   2 -11   61.39   12.90
 -10   2  11   62.99   11.60
  -2 -10  11   78.89   12.00
  10  -3 -11   85.79   13.30
  -3  10  11   88.89   13.50
 -10  -3  11   61.39   11.60
   3 -10  11   98.59   14.90
  -3  10  11   99.19   13.40
  10   3  11   65.59   11.30
  -3 -10 -11   69.29   14.00
   3  10  11   87.39   12.80
  -3 -10  11   87.79   13.20
  10  -3  11   92.89   13.50
  -3  10 -11   61.89   12.70
 -10  -3 -11   64.79   16.30
 -10   3  11   64.59   12.40
  10  -3  11   72.89   13.50
  10   3 -11   66.69   12.70
  10  -4 -11   18.60   11.30
   4 -10  11   13.70    9.00
  -4  10  11   32.10   11.30
  10   4  11   25.40    9.30
  -4  10  11   18.70    9.00
  -4 -10 -11   24.70   13.40
 -10  -4  11   13.80    9.90
  -4 -10  11   43.70   11.30
 -10  -4 -11    9.70   14.90
 -10   4  11   22.90    9.40
  10  -4  11   23.80   11.80
  10   4 -11   31.00   11.90
  -4  10 -11   21.40   11.20
  10  -4  11   27.60   12.60
   4  10  11   32.20    9.10
  10  -5 -11    9.20   11.00
 -10  -5  11   13.80    9.70
   5 -10  11   16.20    9.30
  -5  10  11   21.50   10.50
  -5 -10 -11   13.60   12.00
  -5  10  11   20.30   10.50
  10   5  11   10.30    8.70
  10  -5  11   11.90   11.70
 -10  -5 -11    0.90   14.20
  -5  10 -11   16.50   11.30
  10   5 -11    7.70   11.40
 -10   5  11   23.70   10.60
  -5 -10  11   12.60   10.50
   5  10  11    9.40    8.50
  -5 -10  11   21.30   11.30
  10  -6 -11   29.80   11.80
  10   6  11   22.80    9.00
 -10  -6  11   31.60   10.40
  -6 -10 -11   20.80   13.20
  -6  10  11   35.80   11.00
   6 -10  11   50.79   11.40
 -10   6 -11   21.10   15.20
 -10   6  11   26.80   10.40
   6  10  11   33.00    9.00
  -6 -10  11   14.40   10.40
  10  -6  11   35.70   11.20
 -10  -6 -11   32.30   15.10
  -6  10 -11   35.90   12.50
  10   6 -11   12.00   11.50
  -6 -10  11   44.90   12.80
  11   0  11   13.60    9.80
   0  11 -11   -6.00   11.20
   0 -11  11    9.90    9.00
  11   0 -11    5.80   10.80
   0  11  11    5.90    8.00
 -11   0  11    0.30   10.00
  11   0  11   -1.10   14.40
  -1  11  11   27.40    9.20
   1 -11  11   19.40    9.90
  11   1  11   12.90    9.70
   1  11 -11   21.40   12.30
  11  -1 -11   -2.10   10.70
  -1 -11 -11   15.00   13.30
 -11  -1  11   20.70   10.80
   1 -11 -11   28.30   13.20
 -11   1  11   14.30    9.70
  11  -1  11   25.50   10.90
  -1  11 -11   12.80   11.10
   1  11  11   15.50    7.80
  -1 -11  11   28.90    9.90
  11  -1  11   16.50   13.10
  11   1 -11   24.50   12.10
  11   2  11   35.20   10.30
  -2  11  11   26.80    9.20
   2 -11  11   32.40    9.30
   2  11 -11   32.40   13.40
  -2 -11 -11   47.20   13.90
  11  -2 -11   29.60   11.60
 -11  -2  11   14.00   10.10
  -2  11  11   29.30   11.90
   2 -11 -11   16.70   12.50
  11  -2  11   20.20   12.00
 -11  -2 -11   -2.10   14.70
  11   2 -11   38.60   12.30
  -2 -11  11   47.80   11.30
  11  -2  11   38.90   14.60
 -11   2  11   13.80    9.70
   2  11  11   33.80    9.00
  -2  11 -11   25.00   11.10
  -3 -11 -11   46.70   14.20
  -3  11  11   40.10   14.50
  11  -3 -11   13.60   11.40
   3  11 -11   11.00   12.50
 -11  -3  11   13.50    9.90
  11   3  11   22.80    9.40
  -3  11  11   26.10    9.10
   3 -11  11   29.70   10.60
   3  11  11   49.80   10.50
  11  -3  11    9.80   12.70
  -3 -11  11   30.20   10.80
 -11  -3 -11   28.50   14.30
 -11   3  11   -2.20    9.60
  -3  11 -11   24.20   11.80
  11   3 -11   25.80   12.00
 -11  -4  11   13.70   10.50
  11   4  11    4.00    9.00
  -4 -11 -11    3.10   12.20
  11  -4 -11    4.50   10.90
   4 -11  11    6.90    9.10
  -4  11  11    9.20    9.20
  -4  11  11   11.80   10.70
   4  11  11    4.10    7.50
  11  -4  11    9.10   11.00
  -4 -11  11    2.30   10.00
  -4  11 -11   -3.00   10.10
  11  -4  11   22.40   13.30
  11   4 -11  -11.80   11.30
 -11  -4 -11   31.90   16.60
 -11   4  11    3.60   10.00
 -11  -5  11    3.50   10.00
   5 -11  11   13.50    9.80
  -5  11  11    6.10    9.70
  11  -5 -11   13.60   11.60
  -5 -11 -11    2.40   13.70
  -5  11  11    0.30   10.30
  11   5  11   12.50    9.00
  11  -5  11   19.10   12.40
   5  11  11    8.20    8.30
 -11  -5 -11    3.10   15.00
  11   5 -11    1.90   11.40
  -5  11 -11   20.30   10.90
  -5 -11  11    0.50   10.80
 -11   5  11   10.50    9.40
 -12   0  11   33.80   12.10
   0  12  11   29.30    8.80
  12   0  11   30.80   11.30
   0 -12 -11   49.60   15.10
   0  12 -11   39.30   12.40
   0 -12  11   56.59   11.00
  12   0 -11   45.40   12.70
   1  12 -11   48.90   13.10
   1 -12  11   69.79   11.50
 -12  -1  11   44.90   11.70
  12  -1 -11   61.79   13.10
  -1  12  11   56.59   10.80
  12   1  11   73.09   12.20
  -1 -12 -11   71.69   15.40
  12  -1  11   78.69   12.90
   1  12  11   52.49    9.50
   1 -12 -11   66.69   15.20
 -12  -1 -11   34.10   16.60
 -12   1  11   46.20   11.90
  -1  12 -11   55.89   13.10
  12   1 -11   41.00   12.50
  12  -1  11   66.69   15.90
  -1 -12  11   64.69   11.60
   0   0  12   -4.40    9.10
   0   0  12    3.40    7.10
   0   0 -12    8.90    8.40
   0   0 -12   18.80   14.90
   0   0  12   -7.10    7.30
   1   0  12  418.16   19.20
   0   1  12  440.46   19.50
   0  -1  12  412.46   19.40
   0  -1 -12  519.85   22.00
   0   1 -12  464.35   20.80
   1   0  12  446.86   21.30
   1   0  12  448.46   19.50
   0  -1  12  446.96   19.70
   0  -1 -12  487.25   28.90
   1   0 -12  457.45   29.00
   0   1  12  438.66   19.50
  -1   0  12  445.36   19.40
  -1   0 -12  426.86   29.20
  -1   0  12  465.25   21.40
  -1   0 -12  453.95   20.70
   1   0 -12  468.45   20.70
   0  -1  12  474.05   21.30
  -1   0  12  431.96   19.60
   0   1 -12  452.35   29.70
   0   1  12  442.46   22.10
   1  -1  12 1339.17   40.90
  -1   1  12 1336.37   41.90
   1   1 -12 1394.56   49.99
   1   1  12 1373.56   43.60
  -1  -1 -12 1407.16   43.40
  -1  -1  12 1384.46   41.80
  -1   1 -12 1360.06   49.50
   1  -1  12 1438.76   43.00
  -1  -1 -12 1421.46   49.00
   1  -1 -12 1443.56   42.60
  -1   1  12 1369.76   43.00
   1   1  12 1346.47   41.50
  -1   1 -12 1393.96   42.90
   1   1 -12 1406.86   42.10
   1  -1 -12 1464.95   48.20
   1  -1  12 1371.76   41.90
  -1   1  12 1341.47   41.70
   1   1  12 1375.66   41.60
  -1  -1  12 1280.67   41.70
  -1  -1  12 1394.76   42.30
   0  -2  12  183.48   15.40
   0  -2  12  123.69   13.20
   0   2  12  160.68   12.40
   2   0  12  162.58   13.20
  -2   0 -12  167.68   24.00
   0  -2  12  149.09   13.50
   0   2  12  123.49   17.00
  -2   0 -12  170.28   16.10
   0   2 -12  121.79   18.40
   2   0  12  175.08   15.70
  -2   0  12  172.38   15.60
   0   2 -12  172.78   14.60
   0   2  12  149.69   12.80
   2   0 -12  154.38   23.90
  -2   0  12  160.98   13.60
   0  -2 -12  189.68   16.30
  -2   0  12  149.69   14.00
   2   0  12  145.59   13.30
   0  -2 -12  179.68   22.70
  -2  -1  12  750.32   26.70
  -1   2  12  684.23   25.20
   2  -1 -12  675.53   32.40
  -2  -1  12  663.53   25.80
   2   1  12  741.43   28.20
  -2  -1  12  673.93   26.00
  -1  -2 -12  653.73   31.70
  -1   2  12  671.43   25.40
   2   1  12  682.63   25.20
   1  -2  12  665.23   25.50
   2   1  12  676.63   25.10
   1   2 -12  659.03   35.90
   1  -2  12  725.33   25.10
   2  -1 -12  707.13   25.60
  -1   2  12  699.73   28.40
  -1  -2 -12  756.32   27.90
   1  -2  12  704.53   26.80
  -2   1 -12  703.73   27.00
   1   2 -12  675.03   25.00
   2   1 -12  713.53   25.30
   1  -2 -12  709.93   26.90
   1   2  12  707.83   28.40
   2  -1  12  702.13   26.90
   1   2  12  691.83   25.20
  -1  -2  12  665.23   25.70
   1  -2 -12  716.53   32.10
   2   1 -12  714.33   34.10
  -2   1  12  685.43   25.60
   1   2  12  660.13   24.70
  -2   1  12  689.83   25.80
  -1  -2  12  698.33   25.90
  -1   2 -12  662.43   34.00
  -2   1  12  707.83   27.10
   2  -1  12  705.53   25.40
   2  -1  12  679.93   25.40
  -1   2 -12  710.63   26.50
  -2  -1 -12  734.63   27.80
  -2  -1 -12  713.23   33.50
  -1  -2  12  707.53   26.40
  -2  -2 -12  297.77   24.40
   2  -2  12  292.47   17.80
  -2   2 -12  255.67   26.60
   2   2  12  277.47   15.50
   2   2  12  293.57   19.90
   2  -2  12  253.27   15.80
  -2   2  12  255.07   16.00
  -2  -2  12  259.07   17.30
   2   2 -12  274.87   27.40
   2  -2 -12  275.07   23.00
  -2  -2 -12  274.47   18.60
  -2   2 -12  283.87   17.60
  -2   2  12  259.57   15.70
   2  -2 -12  271.07   16.60
   2  -2  12  292.97   16.00
   2   2 -12  281.77   15.60
  -2  -2  12  268.67   15.80
   2   2  12  273.27   15.50
   0   3  12   80.39   11.60
   0  -3 -12   76.49   11.50
  -3   0 -12   71.59   11.70
   3   0 -12   65.19   11.50
   0  -3 -12   58.09   16.20
   0   3  12   80.39   11.20
   3   0  12   79.59   10.30
  -3   0 -12   82.49   18.50
   3   0  12   75.49   11.10
  -3   0  12   46.50    9.10
   3   0  12   88.09   12.50
   0  -3  12   86.39   12.20
   0   3 -12   51.29    9.20
  -3   0  12   98.29   12.30
   0  -3 -12   54.59   12.90
   0  -3  12   57.49   10.00
  -3   0  12   63.69   10.50
   0   3 -12   51.59   17.00
   0  -3  12   86.69   13.30
  -1  -3 -12  474.45   28.10
  -3   1 -12  456.55   30.90
   3   1  12  452.05   19.70
   3   1  12  480.55   23.20
   3  -1 -12  401.96   26.20
   1  -3  12  511.05   20.20
   1  -3  12  458.05   21.60
  -3   1 -12  466.55   21.70
   1   3 -12  459.65   30.80
   3   1  12  450.85   19.50
   1  -3  12  421.96   20.00
  -3  -1  12  418.86   20.10
  -1   3  12  435.06   19.20
  -1   3  12  435.16   19.70
  -3  -1  12  416.46   20.70
   3  -1 -12  477.75   19.40
  -1  -3 -12  460.25   22.80
   1   3 -12  485.35   20.10
   1  -3 -12  497.45   24.10
  -3   1  12  409.46   20.20
  -1  -3  12  453.35   21.10
   1  -3 -12  412.26   25.70
  -3  -1 -12  460.65   22.60
  -1   3 -12  431.36   30.20
   1  -3 -12  502.05   22.30
  -3   1  12  444.56   20.90
   3  -1  12  442.26   19.30
   3   1 -12  446.86   29.40
  -3  -1 -12  443.46   29.60
   3  -1  12  463.75   22.10
  -1   3 -12  474.05   20.90
   3   1 -12  459.55   19.20
   1   3  12  453.55   19.70
   1   3  12  440.76   19.60
   3  -1  12  443.66   20.50
  -1  -3  12  438.86   20.60
  -1  -3  12  432.96   20.30
  -2  -3 -12  162.18   22.70
   2  -3  12  206.58   14.90
  -3   2 -12  223.38   17.00
  -3   2 -12  235.88   26.70
   3  -2 -12  235.98   23.00
   2  -3  12  199.58   15.10
   2  -3  12  212.78   16.40
   2   3 -12  207.08   14.10
  -2   3  12  196.18   14.60
  -3  -2  12  180.98   14.40
   3   2  12  200.98   18.50
   3  -2 -12  233.18   15.50
   3   2  12  195.58   14.30
   3   2  12  173.68   14.40
   2   3 -12  211.18   28.70
  -2   3  12  172.48   13.70
  -3  -2  12  223.78   16.50
  -3   2  12  188.98   14.90
  -2  -3  12  193.38   14.70
  -2   3 -12  203.38   15.50
   2   3  12  214.58   14.50
  -2  -3  12  220.08   15.90
   3   2 -12  202.18   26.30
  -3   2  12  185.18   15.20
   2   3  12  186.68   13.30
   3   2 -12  219.28   13.80
   3   2 -12  174.98   16.00
  -3  -2 -12  223.68   24.10
   2  -3 -12  233.08   16.40
  -3  -2 -12  165.48   18.40
   3  -2  12  193.28   15.90
  -2   3 -12  192.38   26.30
   2  -3 -12  201.68   21.00
   2  -3 -12  237.88   18.60
   3  -2  12  203.28   14.80
   3   3 -12  143.49   12.90
   3  -3 -12  133.19   15.50
  -3   3  12  126.89   12.90
   3   3 -12  155.48   14.90
   3   3  12  118.79   12.80
   3   3  12  113.69   12.20
  -3  -3  12  168.68   15.20
  -3  -3 -12  117.29   18.20
  -3   3 -12  178.78   15.30
  -3  -3  12  138.19   13.20
   3  -3  12  149.59   15.80
   3  -3  12  164.18   14.50
  -3   3 -12   96.19   19.10
  -3   3  12  150.58   13.60
   3   3 -12  175.08   28.30
   3  -3 -12  138.39   19.30
   0   4  12   46.30    9.30
   4   0  12   50.09    9.30
   0   4 -12   41.80    8.70
   4   0  12   39.10   11.40
   0  -4  12   53.49   11.80
   0  -4 -12    2.40   12.80
   0  -4  12   35.60    9.40
  -4   0 -12   30.90    9.90
   0   4 -12   50.59   22.90
  -4   0  12   34.60   10.70
   0  -4 -12   46.50   12.70
   4   0 -12   49.80   15.30
   0   4  12   32.90    8.40
  -4   0  12   37.90    9.30
   0  -4  12   26.90    8.80
  -4   0 -12   40.20   17.00
   1  -4  12  239.28   16.90
  -4  -1  12  249.48   17.10
  -1  -4 -12  250.97   20.70
  -4   1 -12  243.48   28.00
  -4   1 -12  217.28   20.30
   4   1  12  272.67   19.80
   1  -4  12  258.17   16.50
  -4  -1  12  234.18   15.90
   1  -4  12  274.37   16.40
   1   4 -12  246.58   15.60
   4  -1 -12  268.07   14.20
  -1  -4 -12  235.98   22.10
   4   1  12  250.17   15.30
  -1   4  12  241.48   15.30
  -4   1 -12  238.08   18.10
   1   4 -12  313.67   28.50
   4  -1 -12  260.07   22.50
  -1   4  12  255.57   14.80
   4   1 -12  203.18   32.50
  -4  -1 -12  260.67   27.00
  -1   4 -12  276.97   29.40
  -1  -4  12  265.87   16.30
   4   1 -12  245.18   17.70
  -1  -4  12  263.47   16.80
   1  -4 -12  257.97   20.90
   1   4  12  257.47   15.10
   1  -4 -12  237.98   21.80
  -1   4 -12  239.48   16.10
  -4  -1 -12  240.38   18.70
   4   1 -12  247.98   14.90
   4  -1  12  235.18   18.10
   4  -1  12  247.98   15.70
   1  -4 -12  246.28   18.50
   1   4  12  245.58   15.60
  -4   1  12  249.28   16.40
  -4   2 -12   64.69   14.10
   4   2  12   81.69   13.60
  -2   4  12   83.69   12.70
   4  -2 -12   88.49   13.10
   2   4 -12   62.89   11.00
   2   4 -12   49.90    8.50
   4   2  12   79.89   11.60
   4  -2 -12   63.89   11.00
  -4   2 -12   93.49   15.40
  -2   4  12   76.39   11.30
  -2  -4 -12  106.59   18.20
  -4   2 -12   76.09   19.20
  -4  -2  12   59.59   10.90
   4  -2 -12   71.19   13.20
   2  -4  12   87.69   11.60
  -4  -2  12   80.49   11.60
   2  -4  12   66.99   10.50
  -2  -4 -12   80.19   15.50
   4   2 -12   55.39   17.60
  -2   4 -12  101.49   13.60
  -4  -2 -12   57.79   11.50
  -2  -4  12   55.59   10.00
   2  -4 -12   66.79   12.40
   2  -4 -12   98.19   15.00
   2   4  12   70.19   10.00
  -2   4 -12   66.59   18.40
   4  -2  12   91.09   14.50
   4   2 -12   95.29   13.80
   2   4  12   66.69   18.10
   2  -4 -12   64.09   12.90
   4   2 -12   83.69   12.40
  -4   2  12   75.99   12.00
  -2  -4  12  107.49   14.60
   2   4  12   82.39   12.40
  -4  -2 -12   68.59   17.30
   4  -2  12  103.09   12.80
  -4   2  12   84.69   12.90
  -3   4  12   36.00    9.50
   3   4 -12   48.20   10.60
   4  -3 -12   48.50   11.80
   4   3  12   44.70    9.20
  -4   3 -12   34.70    9.90
   3  -4  12   35.10    9.80
  -3  -4 -12   43.30   14.60
   4  -3 -12   62.09   12.20
  -4   3 -12   42.00   13.50
  -3  -4 -12   50.49   13.90
  -4  -3  12   57.09   10.30
  -4  -3  12   46.70   10.30
   4   3  12   56.99   10.70
  -3   4  12   55.59   10.10
  -4   3 -12   47.90   16.50
   3  -4  12   70.49   10.80
   4  -3 -12   87.09   11.60
   3   4 -12   38.40    8.60
  -4  -3 -12   67.89   17.90
   3   4  12   48.60    9.50
  -3   4 -12   44.00   13.80
  -3  -4  12   51.29    9.30
   4   3 -12   49.90   19.60
   4   3 -12   37.90    8.30
  -3  -4  12   53.29   10.30
   3   4  12   69.19   10.10
   3  -4 -12   44.20   12.30
   3   4  12   70.99   18.20
   3  -4 -12   56.59   17.50
   4  -3  12   23.50    9.00
  -4   3  12   53.79    9.70
   3  -4 -12   52.89    9.90
  -4   3  12   74.39   11.30
  -3   4 -12   50.09   17.30
   4   3 -12   75.39   11.00
   4  -3  12   54.39   10.40
  -3   4 -12   55.49   10.00
  -4   4 -12   16.80   12.10
   4  -4 -12    5.70    8.00
  -4   4 -12    9.60    8.30
   4   4  12   14.10    8.20
   4  -4  12   19.50    9.00
  -4  -4  12    8.50    9.40
  -4   4  12   15.50    9.30
   4   4  12   49.20   17.10
   4  -4 -12    1.50   11.40
  -4   4  12   18.10    8.50
  -4  -4 -12   38.80   13.70
  -4  -4 -12    4.80   14.40
   4   4 -12   13.80   10.10
   4   4 -12   10.90    8.10
  -4  -4  12   12.50    8.60
   4  -4  12   12.10    9.80
   5   0 -12   19.50   10.60
   0  -5 -12   17.70   11.40
   0  -5  12   22.40    9.10
   5   0 -12    5.80   13.80
   0  -5 -12    3.20   12.40
  -5   0 -12   17.80   10.00
  -5   0 -12   51.39   13.20
   0   5  12   16.90    8.70
  -5   0  12   35.90    9.50
   0   5  12   31.20   17.00
   0  -5  12   29.90    9.20
   5   0  12    5.70   10.10
   5   0  12   20.10    8.00
   0   5 -12   29.00    8.90
   5   0 -12   35.50    7.20
  -5   0 -12   24.90   17.00
   0   5  12   24.80    8.80
   5  -1 -12  176.98   16.20
  -5  -1  12  160.68   14.40
  -1   5  12  190.08   14.50
  -5   1 -12  199.48   28.10
  -5   1 -12  167.48   18.30
   5  -1 -12  206.48   12.60
   5   1  12  192.58   19.30
  -5   1 -12  190.88   17.80
   5   1  12  153.18   13.80
  -1   5  12  206.28   15.00
   1  -5  12  173.18   16.00
  -1  -5 -12  189.38   19.40
   1   5 -12  164.68   14.40
  -1  -5 -12  186.28   21.50
   5  -1 -12  199.78   20.30
   1  -5  12  176.88   15.10
   1   5 -12  197.38   14.80
   5   1 -12  187.88   16.30
  -5  -1 -12  187.68   18.40
  -5  -1 -12  208.88   22.20
   5  -1  12  183.58   16.60
  -1   5 -12  163.08   28.10
   5  -1  12  174.08   13.80
   1   5  12  156.78   21.60
   1   5  12  173.18   14.40
  -1  -5  12  174.48   14.40
  -5  -1 -12  175.28   25.10
   5   1 -12  138.69   24.30
   1  -5 -12  155.78   20.40
   1   5  12  171.88   14.30
  -1   5 -12  178.58   14.70
  -1  -5  12  165.48   15.50
  -5   1  12  180.48   15.20
  -5  -2  12   58.19   10.30
  -2   5  12   73.29   12.10
  -5   2 -12   52.99   10.40
  -5   2 -12   96.99   23.60
   2  -5  12   58.09   10.30
   2   5 -12   52.69   10.60
  -5  -2  12   98.09   16.40
   5   2  12   86.39   11.80
  -2   5  12   57.69    9.40
   5  -2 -12   67.99   11.90
  -5   2 -12   71.29   14.00
   5   2  12   67.09   13.10
  -2  -5 -12   75.09   15.20
   5  -2 -12   80.69    9.60
  -2  -5 -12   71.19   14.70
   2   5 -12   64.59   11.60
   2  -5  12   89.99   12.40
   5   2 -12   64.19   11.20
   2   5  12   71.39   10.10
   2  -5 -12   47.20   11.80
  -2  -5  12   87.59   15.10
  -2   5 -12   62.39   10.20
   5   2 -12   51.39    8.70
  -5   2  12   67.79   11.00
   2  -5 -12   64.99   13.20
   5  -2  12   67.29   10.80
  -2  -5  12   47.00    9.50
  -5  -2 -12   39.30   15.50
   5  -2  12   77.89   10.60
  -2   5 -12   56.29   20.30
  -5  -2 -12   73.89   12.70
  -2  -5  12   84.99   14.40
   2   5  12   75.49   19.00
  -3  -5 -12   31.40   14.50
  -5  -3  12   36.20   10.50
  -5   3 -12   48.40   12.70
   3   5 -12   34.50   10.30
   3  -5  12   14.70    9.10
  -3   5  12   21.20   10.20
  -3  -5 -12   33.40   13.60
   5   3  12   25.30    8.40
   5  -3 -12   17.30    6.30
  -5  -3  12   13.80    8.30
   5  -3 -12   23.80   10.50
  -5   3 -12   34.70   10.50
  -3   5  12   18.40    8.90
   3   5 -12   14.00    7.90
  -5  -3 -12   18.90   16.00
  -3   5 -12   23.80   12.70
  -3  -5  12   11.40   10.10
   3  -5 -12   22.50   10.10
  -3  -5  12   11.90    8.50
  -3  -5  12   37.60    9.90
   5   3 -12   26.50   10.30
   5  -3  12   30.40   10.00
   3   5  12    9.20    8.00
   5  -3  12   19.20    9.50
   5   3 -12   38.90   28.70
   3  -5 -12  -17.10   11.20
   5   3 -12   15.60   10.10
  -5   3  12   21.40    9.10
  -3   5 -12   31.90    9.60
   3  -5 -12    9.60   10.70
   3   5  12   51.29   18.70
  -5   4 -12    6.70   12.00
   4   5 -12   17.80    8.30
  -5  -4  12    2.90    8.00
  -4   5  12   11.20    8.90
  -4  -5 -12  -12.70   15.10
  -4  -5 -12   -0.50   13.60
  -5  -4  12    8.40    9.70
   4   5 -12   27.60   10.20
   5   4  12    6.20   18.60
   5   4  12    3.30    7.90
  -4   5  12  -12.60    8.40
  -4   5 -12    3.10   12.40
   4   5  12   27.50   18.90
   5   4 -12    2.20    8.40
  -4  -5  12    8.10    9.70
   5  -4  12   -4.20   12.30
   4  -5 -12   -7.30   10.90
  -5   4  12   -9.40    7.70
  -5  -4 -12   26.20   13.40
  -4  -5  12   -9.90    8.30
   5  -4  12    7.60   10.30
  -4  -5  12   -4.70   10.10
   5   4 -12    9.60    9.90
   4   5  12   -1.00   10.40
   5   5 -12   17.30    9.20
   5   5  12   21.30    9.30
  -5  -5  12   12.00    8.50
   5  -5  12   23.40    9.30
  -5  -5  12   30.90   11.20
  -5  -5  12   18.70   10.80
   5   5 -12   -0.80   10.00
  -5   5  12   19.20    9.00
  -5   5 -12   22.30   12.50
   0   6  12   93.99   19.50
  -6   0 -12   79.69   15.30
   6   0 -12   79.09   14.70
   0  -6  12   97.79   16.00
   6   0 -12   92.99   12.90
  -6   0  12   91.49   13.60
   6   0 -12  103.19   11.40
   0  -6  12  102.59   14.30
   6   0  12  120.59   17.70
   6   0  12  105.69   12.60
   0   6  12   82.99   13.30
   0  -6 -12  102.99   17.30
   0   6 -12  107.09   13.10
   0  -6  12  112.69   14.20
   0  -6 -12  124.99   20.30
   1  -6  12  357.56   19.60
  -1  -6 -12  357.06   25.10
   1   6 -12  340.67   18.40
   6   1  12  330.17   22.10
  -1   6  12  302.97   32.10
   6   1  12  333.27   17.60
  -6  -1  12  359.56   24.80
   6  -1 -12  313.67   19.40
  -6   1 -12  332.97   22.00
  -1  -6 -12  337.97   22.00
  -1   6  12  269.67   22.30
  -1   6  12  317.27   18.20
   6   1 -12  294.07   27.30
   6   1 -12  332.07   19.10
  -6  -1 -12  403.76   26.10
  -1  -6  12  320.77   20.60
  -1  -6  12  322.37   18.80
  -1   6 -12  340.87   17.90
   6  -1  12  330.37   17.90
   1  -6 -12  325.97   21.10
   1   6  12  372.36   32.30
   6  -1  12  412.86   32.70
  -6   1  12  297.47   18.60
   1  -6 -12  314.07   24.40
  -1  -6  12  357.56   19.10
   6   1 -12  291.37   15.50
   1   6  12  342.07   18.30
  -6   2 -12  266.37   20.10
  -6  -2  12  271.17   18.30
   2   6 -12  275.87   16.70
  -2   6  12  262.07   16.60
   2  -6  12  262.67   18.20
  -2  -6 -12  243.38   21.00
  -6  -2  12  221.28   19.30
   6   2  12  288.57   16.60
  -2   6  12  235.18   15.80
  -2  -6 -12  254.97   23.30
   6  -2 -12  276.67   21.20
   6   2 -12  222.18   30.20
  -6   2  12  238.88   17.10
   6  -2  12  201.38   26.30
  -2  -6  12  225.38   19.20
   2  -6 -12  249.08   21.00
   2   6  12  199.88   30.00
   6  -2  12  274.17   16.30
  -2   6 -12  262.57   17.50
  -2   6 -12  230.88   21.70
   6   2 -12  266.37   18.10
   2   6  12  248.58   16.80
  -2  -6  12  264.17   18.20
   2  -6 -12  249.48   19.50
   2   6  12  261.07   23.60
  -3  -6 -12   77.69   15.60
   3   6 -12   81.19   12.10
   3  -6  12   76.29   15.80
  -6   3 -12   89.99   14.50
  -3   6  12  103.89   13.30
  -3  -6 -12  134.79   19.50
  -6  -3  12   89.89   13.80
   3   6 -12  105.79   14.50
  -3   6  12   95.19   13.60
   6   3  12   92.89   12.60
   6  -3 -12   78.89   13.00
   6  -3  12  112.59   16.00
   3  -6 -12  111.39   17.90
   3  -6 -12   90.89   22.40
   6   3 -12   87.59   22.40
  -6  -3 -12   57.69   17.20
  -3  -6  12   84.19   13.80
   3   6  12  105.89   13.00
   6  -3  12  119.39   14.00
   6   3 -12   98.29   13.40
   3   6  12   87.39   19.60
  -3  -6  12  124.89   17.20
  -6   3  12   87.59   13.60
  -3  -6  12  108.69   15.30
  -3   6 -12  131.39   19.30
   6   3 -12  114.69   15.10
   4   6 -12   46.10   10.10
  -6   4 -12   54.79   13.90
   4   6 -12   39.50   11.10
  -4   6  12   53.09   10.90
  -4   6  12   67.79   11.00
   6   4  12   58.19   10.00
   6  -4 -12   57.69   12.20
   4  -6  12   63.99   12.00
  -6  -4  12   40.50   10.20
  -4  -6 -12   76.09   15.70
   6  -4  12   41.80   11.20
  -4  -6  12   40.80   10.30
   6   4 -12   72.19   12.00
  -4  -6  12   46.70   11.80
   6   4 -12   41.10   10.10
   6  -4  12   86.89   12.20
  -4  -6  12   54.19   11.10
   4   6  12   49.30   10.30
  -4   6 -12   35.00   13.30
   4   6  12   56.59   21.90
  -6  -4 -12   30.30   15.50
  -6   5 -12   55.79   14.40
   5   6 -12   57.79   11.80
  -5  -6 -12   43.30   14.10
  -6  -5  12   69.39   13.00
  -5   6  12   45.30   10.20
  -6  -5  12   60.99   12.60
   5  -6  12   36.80    9.70
  -6  -5  12   48.50   10.50
  -5   6  12   57.19   11.30
   5   6 -12   56.29   11.20
   6   5  12   49.40   10.00
  -5   6 -12   69.89   14.60
  -6   5  12   42.00   10.30
  -5  -6  12  117.49   17.30
  -6  -5 -12  107.49   18.00
  -5  -6  12   29.70    9.20
   6  -5  12   83.99   13.40
   6   5 -12   41.40   10.90
   6   5 -12   57.09   11.30
  -5  -6  12   61.39   12.60
   5   6  12   46.70    9.60
   6  -5  12   53.59   11.60
   6  -6  12   72.29   12.50
  -6  -6  12   83.99   13.50
  -6  -6 -12   61.99   14.70
   6   6  12   70.29   10.60
  -6   6 -12   76.39   15.00
  -6  -6  12  128.19   18.60
  -6   6  12   75.99   11.60
  -6  -6  12   88.99   14.10
   6   6 -12   59.89   12.10
   6   6 -12   31.70   11.60
   0   7  12   75.59   11.40
   7   0 -12   43.10   11.80
  -7   0  12   51.89   11.30
   7   0  12   49.80   13.30
   7   0  12   48.50   10.30
   0  -7 -12   56.09   13.20
   0   7  12   59.19    9.70
   0   7  12   88.49   19.60
   0  -7 -12   50.79   14.00
   0  -7  12   67.39   11.60
   0   7 -12   46.60    9.70
  -1   7  12  122.19   21.00
   1   7 -12  191.78   15.10
   7   1  12  155.38   19.70
  -1  -7 -12  190.68   24.00
  -7  -1  12  125.89   15.10
  -1   7  12  198.08   15.50
   7  -1 -12  167.18   18.60
  -1   7  12  168.18   14.40
  -1  -7 -12  231.88   20.00
   7   1  12  171.68   14.80
  -1  -7  12  178.28   16.10
   7   1 -12  196.48   17.50
   1   7  12  200.08   30.80
   7  -1  12  153.98   14.80
   1  -7 -12  185.78   21.30
  -7   1  12  164.08   16.50
   1  -7 -12  213.18   19.00
  -1  -7  12  164.78   16.80
  -1  -7  12  178.28   20.20
   1   7  12  162.18   14.10
  -1   7 -12  156.48   21.70
   7  -1  12  175.08   18.40
   1   7  12  176.08   16.90
  -7  -2  12   89.19   14.50
   7   2  12  134.99   13.90
  -2   7  12  126.69   13.40
  -2   7  12  181.68   30.10
  -2  -7 -12  148.49   19.30
  -2   7  12  127.89   14.30
  -2  -7 -12   88.79   17.20
  -7   2 -12  118.59   18.70
   7  -2 -12  119.19   16.20
   2   7 -12  104.69   13.90
   2  -7  12  105.59   15.70
   7  -2  12  128.89   17.10
   7  -2  12  165.78   14.50
   2  -7 -12  116.39   15.70
  -2  -7  12  130.09   15.70
   7   2 -12  120.69   16.30
  -2   7 -12   80.99   16.10
   2  -7 -12  134.69   18.50
  -2  -7  12  105.49   14.30
  -7   2  12  100.79   14.40
  -2  -7  12  105.89   18.20
   2   7  12  116.19   12.80
   2   7  12  141.99   22.40
  -3  -7 -12   30.80   14.00
  -3   7  12   44.20   10.30
   3   7 -12   50.19   10.10
  -7   3 -12   64.19   21.80
   7  -3 -12   28.30   11.30
   3  -7  12   37.10   11.00
  -7  -3  12   31.10    9.90
   7   3  12   28.30    9.60
  -3   7  12   25.40    8.70
   7  -3  12   64.99   11.60
  -3   7 -12   38.40   14.60
  -3  -7  12   49.80   11.00
   7  -3  12   43.90   12.30
   3   7  12  110.99   21.30
   3   7  12   47.20    8.90
  -3  -7  12   41.80   12.00
  -7  -3 -12   40.60   15.00
  -7   3  12   40.00   10.70
  -3  -7  12   31.70    9.80
   3  -7 -12   26.70   14.90
   3  -7 -12   55.69   14.20
   7   3 -12   61.49   11.40
  -7   4 -12   20.60   12.90
   7  -4 -12   32.90   11.10
   4  -7  12   30.10    9.70
  -4  -7 -12   27.10   15.10
  -4   7  12   35.50   10.10
   4   7 -12   32.40   10.00
   7   4  12   39.40    9.20
  -7  -4  12   18.30    9.00
  -4   7  12   22.00    9.30
  -7  -4  12   54.39   21.50
   4   7  12   23.40    8.70
  -7   4  12   29.10   10.40
  -7  -4 -12   10.80   14.40
  -4  -7  12   39.10   11.20
   7  -4  12   42.90   11.90
  -4   7 -12   31.10   13.50
   7   4 -12   10.70   10.80
  -4  -7  12   31.70   12.30
  -4  -7  12   30.90    9.00
   7  -4  12   24.30    9.90
   7  -5 -12   29.10   11.10
  -7  -5  12   34.60   10.20
   5   7 -12   19.00   10.50
  -7   5 -12   33.40   13.60
  -5  -7 -12   26.80   13.90
   5  -7  12   26.40   10.30
  -5   7  12   45.90   11.60
  -5   7  12   41.10   11.40
   7   5  12   46.00   10.00
  -7  -5 -12   54.69   15.60
   7   5 -12   33.20   11.60
   7  -5  12   17.60    9.40
  -5  -7  12   71.49   13.00
  -7   5  12   41.70   10.90
   5   7  12   33.90    8.60
  -5   7 -12   43.90   13.90
  -5  -7  12   33.70   12.90
  -5  -7  12   12.50    8.80
   7   6  12   36.40    9.50
  -6  -7 -12   26.90   14.40
   6  -7  12   28.90    9.40
   7  -6 -12   28.50   11.20
  -6   7  12   30.60    9.80
   6   7 -12   14.90   12.20
  -7   6 -12   30.40   14.70
  -7  -6  12   45.80   11.00
  -6  -7  12   50.59   13.70
  -6  -7  12   69.39   14.60
   6   7  12   43.10    9.40
  -7   6  12   29.90    9.50
   7  -6  12   35.10   10.30
  -6  -7  12   26.60    9.40
  -7  -6 -12   23.90   13.80
   7   6 -12   15.50   11.20
  -6   7 -12   27.10   14.20
  -7   7 -12   16.30   14.30
   7   7  12   26.30    9.00
  -7   7  12   16.10    9.90
  -7  -7  12   28.30   10.40
   7  -7  12    8.20    9.60
   7  -7 -12   21.30   11.50
  -7  -7 -12   38.40   14.60
   8   0  12  103.79   14.30
   0   8  12   96.99   15.90
   8   0  12   80.69   13.70
   0   8  12  112.09   13.40
   0  -8 -12   96.59   16.20
  -8   0  12   93.99   14.70
   0  -8  12  107.19   15.40
   8   0 -12   99.69   13.70
   0   8  12  100.99   22.50
   0   8 -12   88.69   16.10
  -1   8  12  174.38   24.40
  -8  -1  12  154.38   15.30
  -1   8  12  191.98   16.30
   1  -8  12  187.68   16.60
   8   1  12  198.58   21.30
  -1   8  12  194.48   15.00
  -1  -8 -12  167.18   19.90
  -1  -8 -12  176.68   23.20
   8  -1 -12  151.88   18.20
   1  -8 -12  158.48   22.00
   8  -1  12  172.78   20.00
  -8   1  12  181.88   16.60
   1   8  12  201.98   33.20
   8   1 -12  179.28   18.20
   1   8  12  169.38   14.90
   8  -1  12  184.68   16.30
  -1  -8  12  154.88   16.60
   1  -8 -12  182.28   20.00
  -2  -8 -12   91.79   22.70
  -2   8  12   85.69   13.70
  -8   2 -12   91.69   18.80
  -2   8  12  111.89   23.60
  -8  -2  12   93.89   14.60
   8  -2 -12   88.69   13.50
   8   2  12  117.29   14.30
  -2   8  12  103.29   13.20
  -2  -8 -12  140.39   19.80
   2  -8  12  102.39   15.30
  -2  -8  12   78.69   12.00
   8  -2  12  117.29   13.60
   2  -8 -12  116.69   21.20
   2  -8 -12  108.29   18.60
  -8   2  12   88.29   14.40
   2   8  12   93.59   12.60
   8  -2  12  110.99   16.50
   8   2 -12   92.99   17.40
   2   8  12  105.19   23.30
  -2   8 -12   58.29   14.50
  -3  -8 -12   40.80   16.10
  -8   3 -12   73.09   18.10
   3  -8  12   20.10    9.30
   8   3  12   34.60    9.50
  -3   8  12   35.60    9.10
  -3   8  12   47.70   10.70
   8  -3 -12   57.09   11.60
  -8  -3  12   57.49   11.70
  -8  -3 -12   50.19   15.30
  -3  -8  12   53.29   10.50
  -3   8 -12   38.20   12.40
   3   8  12   44.30    9.60
   8  -3  12   64.49   11.80
  -3  -8  12   48.10   17.40
  -8   3  12   50.39   10.80
   8  -3  12   73.89   12.80
   8   3 -12   45.40   17.70
   4   8 -12   26.40   11.10
  -4   8  12   43.70   10.30
  -4   8  12   52.09   11.00
   8   4  12   14.60    8.30
   4  -8  12   34.40   11.10
  -4  -8 -12   33.50   15.20
   8  -4 -12   37.70   11.40
  -8  -4  12   15.80   10.10
   4   8  12   43.20    9.90
  -4   8 -12   42.10   13.10
  -8  -4 -12   25.60   14.10
  -8   4  12   19.20    9.80
   8  -4  12   46.50   12.20
  -4  -8  12   57.69   12.80
  -4  -8  12   24.30    9.50
   8   4 -12   37.60   11.40
  -5   8  12   25.70   10.50
   5  -8  12   31.80   10.40
   8   5  12   32.90    8.60
  -8  -5  12   31.40   10.30
  -8   5 -12   54.49   17.10
  -5   8  12   63.69   12.10
   8  -5 -12   14.50   11.20
  -5  -8 -12   35.60   14.30
   5   8 -12   22.60   11.10
   5   8  12   37.20    9.60
  -8  -5 -12   48.70   16.60
  -5  -8  12   57.29   12.70
  -8   5  12   25.00   10.00
  -5  -8  12   35.70    9.80
   8   5 -12   19.20   11.60
  -5   8 -12   52.09   13.90
   8  -5  12   57.29   12.50
   6   8 -12   36.20   13.20
   8   6  12   38.50    9.20
  -6   8  12   54.79   11.60
   8  -6 -12   38.70   12.50
   6  -8  12   35.40   10.60
  -6  -8 -12   32.90   14.50
  -8   6 -12   44.40   16.10
  -8  -6  12   38.80   10.50
   8  -6  12   28.20   10.20
  -6   8 -12   45.10   13.80
  -8   6  12   42.40   10.70
  -6  -8  12   45.80   10.60
  -8  -6 -12   47.40   15.10
   6   8  12   68.79   11.10
  -6  -8  12   68.09   14.40
   8   6 -12   27.50   13.00
  -7  -8 -12   12.30   13.30
   8   7  12   31.20    9.50
  -8   7 -12   18.10   15.30
   8  -7 -12   26.80   11.20
  -7   8  12   37.90   11.50
   7  -8  12   26.00   10.80
  -8  -7  12   20.00    9.70
   7  -8 -12   45.80   12.50
  -7  -8  12   51.59   16.00
   8   7 -12   31.40   12.50
   8  -7  12   34.90   11.40
  -7  -8  12   27.90   10.10
  -8  -7 -12   50.49   15.00
  -7   8 -12   34.10   13.70
  -8   7  12   30.20   11.20
   7   8  12   33.80    9.30
   0  -9 -12   25.10   15.00
   0  -9 -12   57.99   14.40
   0   9 -12   15.80   12.50
   9   0  12   52.79   11.70
   0  -9  12   43.00   11.30
   0   9  12   22.70    8.40
   9   0  12   25.60   12.40
  -9   0  12   20.30    9.80
   9   0 -12   33.90   12.00
  -1   9  12   54.49   11.70
  -1   9  12   81.69   26.00
   9  -1 -12   24.00   11.70
  -1   9  12   47.00    9.20
  -1  -9 -12   45.50   14.80
  -9  -1  12   40.30   11.40
   9   1  12   43.80   10.70
   1   9 -12   52.09   14.80
  -1  -9 -12   22.50   25.60
   1  -9  12   64.89   12.00
   1   9  12   44.80   23.30
  -9   1  12   44.20   11.40
   1  -9 -12   36.70   13.80
   1   9  12   41.10    8.70
   9  -1  12   50.19   11.40
  -1  -9  12   38.90   11.60
   1  -9 -12   61.09   15.40
   9   1 -12   44.60   12.60
  -1   9 -12   21.00   12.20
   9  -1  12   32.10   12.50
  -2   9  12   51.69   11.20
   9  -2 -12   67.19   12.40
  -9  -2  12   24.10    9.50
   2  -9  12   48.60   10.20
   9   2  12   58.69   10.70
  -2  -9 -12   35.50   14.90
  -2   9  12   46.80    9.70
   9  -2  12   65.89   13.40
   9   2 -12   40.70   12.00
   2   9  12   39.40    9.50
  -2   9 -12   42.70   13.30
  -2  -9  12   74.99   12.50
   9  -2  12   40.50   12.20
  -9   2  12   42.20   11.20
  -3   9  12   16.10   11.10
  -9  -3  12   21.70   10.10
   3  -9  12   39.10   10.20
  -3  -9 -12   10.00   13.50
   9   3  12   33.80    9.30
   9  -3 -12   31.30   11.30
  -3   9  12   37.70    9.90
  -9  -3 -12   28.60   15.00
   9  -3  12   16.30   10.40
  -9   3  12   28.60   10.40
   3   9  12   29.40    8.80
   9   3 -12   10.20   11.70
  -3  -9  12   27.60   10.90
  -3   9 -12   28.40   12.30
   9  -3  12   38.60   12.40
  -3  -9  12   29.70   10.60
   9  -4 -12   14.70   11.40
  -9  -4  12   13.00   10.00
   9   4  12    9.00    8.30
  -4   9  12   22.60    9.60
   4  -9  12   16.90   10.00
  -4  -9 -12   11.40   12.30
  -4   9  12   18.70   11.10
  -4   9 -12   25.40   12.20
  -4  -9  12    7.00    9.60
   9   4 -12    0.70   11.20
  -4  -9  12   27.00   11.50
   4   9  12   16.90    9.30
  -9   4  12   18.50   10.30
  -9  -4 -12   -4.10   13.40
   9  -4  12   21.90   10.60
  -5  -9 -12   21.70   13.50
  -9  -5  12    7.60    9.30
  -5   9  12   13.40   11.40
   5  -9  12   15.70   10.20
   9  -5 -12   17.80   11.80
  -9   5 -12    7.20   15.60
   9   5  12   13.20    8.40
  -5   9  12   18.20   10.70
  -5   9 -12   21.90   13.00
  -9  -5 -12    9.00   14.60
  -5  -9  12   18.90   10.30
  -5  -9  12   24.60   12.80
   5   9  12   -0.10    8.70
   9  -5  12  -11.40   10.00
   9   5 -12  -16.10   11.80
  -9   5  12   15.70   10.10
   9   6  12   25.30    8.70
  -9   6 -12   38.60   18.00
  -6   9  12    1.70   10.50
  -6  -9 -12   11.70   14.20
  -9  -6  12    3.00    9.30
   9  -6 -12   24.70   11.80
   6  -9  12   28.80    9.90
  -6   9 -12   41.40   13.80
   9  -6  12   11.80   11.60
   9   6 -12   35.40   13.30
  -9  -6 -12    5.70   14.20
  -6  -9  12   17.80   10.50
  -9   6  12   12.00    9.00
  -6  -9  12   28.20   14.20
   6   9  12   23.10    8.80
  10   0  12   -1.80    9.90
   0  10  12   15.30    8.00
  10   0  12   -1.30   12.40
  10   0 -12    6.70   11.60
 -10   0  12    3.30    9.80
   0  10  12   13.60   25.50
   0 -10  12   16.50    9.40
   0 -10 -12  -24.00   12.70
   0  10 -12    6.50   12.20
  -1  10  12   21.00    9.00
 -10  -1  12   13.30    9.70
  10  -1 -12   32.20   12.10
  -1 -10 -12   28.90   15.00
   1 -10  12   33.20    9.60
   1  10 -12   19.90   12.90
  10   1  12   19.50   10.10
 -10   1  12   23.00   10.50
   1 -10 -12   24.20   14.30
  10  -1  12    7.80   13.30
  10   1 -12   19.00   11.90
   1  10  12    9.00    8.00
  10  -1  12   23.90   11.60
  -1 -10  12   21.90   10.00
  -1  10 -12   21.70   12.60
  -2 -10 -12   46.70   15.40
  -2  10  12   15.30    8.70
  10  -2 -12   30.00   12.20
  10   2  12   14.30    9.70
   2  10 -12   17.50   12.60
 -10  -2  12   15.30    9.90
  -2  10  12   24.30   11.70
   2 -10  12   17.20   10.00
 -10  -2 -12    8.40   16.60
  -2 -10  12   26.40   10.50
  10  -2  12   34.70   14.00
   2  10  12   12.30    8.90
  10   2 -12   19.60   11.60
  -2  10 -12   21.10   11.80
  10  -2  12    1.50   12.00
 -10   2  12   21.00   10.70
  -3  10  12   -1.60   20.20
 -10  -3  12    6.10    9.50
  10   3  12   -0.90    8.80
  -3 -10 -12   14.30   13.90
   3 -10  12   15.40    9.50
  10  -3 -12    5.90   11.00
  -3  10  12   11.70    8.60
 -10   3  12    0.00    9.30
  -3 -10  12   23.60   10.60
  -3  10 -12   -3.00   11.40
 -10  -3 -12   -2.30   15.30
  10  -3  12   -3.50   11.20
  10  -3  12  -11.70   12.40
  10   3 -12    1.30   11.80
   3  10  12    9.40    8.60
 -10  -4  12    9.20   10.10
  10  -4 -12    5.30   11.60
  -4  10  12   14.80    9.10
  -4  10  12   -4.70   10.40
  10   4  12   11.80    8.70
   4 -10  12    7.30    9.30
  -4 -10 -12   -7.20   13.10
 -10  -4 -12   24.30   16.30
   4  10  12    2.40    7.80
  -4 -10  12   16.20   11.20
  -4  10 -12   -5.00   11.60
 -10   4  12   10.60    9.90
  10   4 -12  -17.10   11.20
  10  -4  12   12.70   11.80
   5 -10  12    3.10   10.30
  -5  10  12    2.20   10.80
 -10   5 -12  -36.40   20.30
  10  -5 -12   -6.80   11.20
  10   5  12    1.10    8.30
  -5  10  12   26.50   10.50
  -5 -10 -12   -2.70   13.90
 -10  -5  12    4.60    9.30
  -5 -10  12   -2.40   12.10
  10  -5  12   11.10   10.90
  10   5 -12   -1.10   12.30
 -10   5  12    5.30   10.30
  -5 -10  12    3.90   10.10
 -10  -5 -12    6.50   14.20
  -5  10 -12   -9.10   11.00
   5  10  12   -9.10    7.70
   0 -11  12    6.10    9.30
  11   0  12    2.70   10.60
   0 -11 -12    4.90   14.90
  11   0 -12   14.50   11.70
 -11   0  12   -7.20    9.90
   0  11 -12   11.00   12.40
   0  11  12   -1.10    7.60
 -11  -1  12  -12.50    9.50
   1  11 -12    6.40   12.20
  -1  11  12    8.50    8.40
  -1 -11 -12  -13.60   13.50
  11  -1 -12   17.30   11.80
   1 -11  12    7.40    9.10
  11   1  12    2.10   10.10
  11  -1  12    7.40   11.50
  -1  11 -12   12.50   11.90
  -1 -11  12   11.80    9.70
   1 -11 -12   -8.90   17.20
  11   1 -12   -7.20   11.40
   1  11  12   -7.50    7.60
 -11   1  12   11.30   11.00
  11  -1  12  -10.20   14.10
  11  -2 -12   17.90   11.80
   2  11 -12   -3.10   11.60
   2 -11  12    4.20    9.40
  -2  11  12   -5.00   12.40
  -2  11  12   -2.80    8.30
  -2 -11 -12    5.00   14.40
 -11  -2  12   14.20   10.20
  11   2  12    8.40   10.00
  11  -2  12   22.30   13.90
   2  11  12   -1.60    8.60
  11   2 -12   15.20   12.10
 -11   2  12   10.60   10.40
  -2 -11  12   14.90   10.40
  -2  11 -12    3.80   10.90
 -11  -2 -12  -29.90   14.80
  11  -2  12   10.10   12.30
   0   0 -13   11.30    9.40
   0   0  13   16.30   10.30
   0   0 -13  -36.50   16.20
   0   0  13  -13.90    8.20
   0   0  13   -6.90    7.60
  -1   0 -13   -5.10    9.10
   0   1 -13   19.60    9.40
   0   1  13    5.90    8.00
  -1   0 -13   -9.20   16.50
  -1   0  13   24.60   10.30
   0  -1  13   13.80    8.10
   0  -1 -13   17.70   16.70
   0   1  13    2.40   11.20
  -1   0  13   15.90    9.00
   1   0  13   20.40    8.60
   0   1  13   21.00    8.80
  -1   0  13   -4.20    7.40
   0  -1  13   14.50    9.80
   1   0  13   10.00    8.50
   0  -1  13   21.60    9.10
   0  -1 -13    1.40    9.30
   1   0 -13   18.20    9.40
   1   0 -13  -12.50   16.70
   1   0  13   14.70   10.50
   0   1 -13   16.90   18.20
   1  -1  13   46.00    9.80
   1  -1 -13   26.90    9.70
  -1  -1  13    6.40    9.90
   1  -1  13   23.10   10.30
   1   1  13   30.70    9.20
  -1  -1 -13  -33.20   15.40
  -1  -1  13   15.10    8.10
  -1   1 -13   14.80   17.60
   1   1 -13   19.70   17.90
   1  -1 -13    8.20   15.80
   1   1 -13   14.10    8.80
  -1   1  13   10.00    8.70
  -1   1 -13   -3.80    8.90
   1   1  13    9.50   11.90
  -1   1  13   15.70    8.70
  -1   1  13   38.30   12.80
  -1  -1  13   32.20   10.20
  -1  -1 -13   27.50   10.20
   1  -1  13   17.20    8.60
   1   1  13   23.90    9.10
   0  -2  13   16.90    9.90
   0  -2 -13   20.90   10.20
  -2   0 -13   21.20   17.10
   0  -2  13    4.10    8.10
   2   0  13    8.40    8.80
   0   2 -13   -5.40    8.30
   0   2  13  -20.70   11.80
   0   2 -13    1.70   16.10
   2   0 -13    0.50   16.90
   2   0  13    5.60    9.80
   0  -2  13   11.80    9.90
   0  -2 -13   16.40   15.70
  -2   0  13   -0.90    9.20
   2   0 -13   21.10    8.80
   2   0  13   11.10    8.90
  -2   0  13    2.60    8.30
   0   2  13   -6.00    7.80
  -2   0 -13   -3.60    9.10
  -2   0  13   -1.80   10.90
   0   2  13    5.40    7.90
  -1   2  13   13.80    8.30
   2   1  13   17.80    9.20
   1  -2  13    4.20    9.90
   2  -1 -13  -10.50   15.80
   2  -1 -13   41.00    9.90
  -1  -2 -13   44.60   11.30
  -2   1 -13   18.80   10.10
   1   2 -13   10.60    8.60
  -2  -1  13   43.30   11.20
   1   2 -13   23.40   17.60
  -2   1 -13   20.50   18.20
   2   1  13   17.00    9.00
  -1   2  13   14.40    8.20
  -1  -2 -13    1.80   15.80
   1  -2  13   17.00    8.50
  -2  -1  13    9.00    8.40
   2   1  13   32.30   12.00
  -2  -1  13   23.80   10.70
   1  -2  13   29.30   10.00
   1   2  13   31.60    8.90
  -1   2 -13    9.60   16.30
   1  -2 -13   29.20   10.00
   1  -2 -13   49.50   15.80
   2   1 -13   39.30    9.10
  -1   2 -13   10.10    9.20
  -2   1  13    0.00    8.90
  -2   1  13   30.10   12.60
  -1  -2  13   24.00   11.30
   2   1 -13    8.20   18.10
  -2  -1 -13   18.80   10.40
   2  -1  13   34.90    9.40
  -1  -2  13   29.60    9.20
   1   2  13   20.70   12.70
   2  -1  13   28.80    9.30
  -2   1  13   32.20    8.80
   1   2  13   31.60    9.00
   2  -1  13   40.20   10.70
  -1  -2  13   39.90   10.50
  -2  -1 -13    7.50   15.60
  -2   2  13   29.80    9.30
   2  -2  13   28.40   10.10
   2   2  13   22.80    9.10
  -2   2 -13   26.70   10.10
   2   2  13   29.10   10.00
  -2   2 -13  -13.30   18.50
   2  -2 -13   35.50   10.30
   2   2 -13   35.90    8.60
   2  -2  13   17.30    9.90
   2  -2  13   42.10    9.90
  -2   2  13   37.10    9.70
  -2  -2 -13   26.20   16.60
   2  -2 -13   22.00   15.30
  -2  -2  13   31.00    9.40
   2   2  13   18.80   12.80
  -2  -2 -13   21.00   10.90
   2   2 -13   19.70   17.40
  -2  -2  13   23.80   10.20
   0   3  13   31.80    9.00
  -3   0 -13   29.90   10.40
   0  -3 -13   11.00   13.30
   0  -3 -13  -10.90   14.90
  -3   0 -13    8.70   17.20
   0  -3  13   13.30    9.10
   3   0  13   33.10    9.70
   0   3 -13   31.10   17.80
   0  -3  13   15.20   11.40
  -3   0  13   27.60    9.00
  -3   0  13   34.70   11.10
   0   3  13   21.10    8.30
   3   0 -13   12.90   10.60
   3   0  13   33.20   10.60
   3   0  13   29.40   10.60
   3   0 -13   11.00   17.70
   0  -3  13   35.20    9.60
   0   3 -13   21.50    8.80
   0  -3 -13   26.30   11.10
  -3   0  13    4.40   11.30
   3   1  13   13.20    9.50
   3  -1 -13   27.60   16.90
   1  -3  13   43.00   10.90
   3  -1 -13    8.40    8.70
   1   3 -13   33.70   18.10
  -3  -1  13   27.10    9.60
  -1  -3 -13   24.30   11.70
  -1  -3 -13   -4.30   14.90
  -1   3  13   18.30    9.00
  -3  -1  13   12.50   10.90
   1  -3  13   32.50   10.10
  -3   1 -13   31.10   11.10
   1  -3  13   16.30    9.30
   1   3 -13   27.90    9.00
   3   1  13   27.10    9.10
  -1  -3 -13  -14.60   12.60
  -3   1 -13   25.60   18.50
  -1   3  13   37.80    9.40
   3   1  13    6.40   11.50
   3  -1  13   18.80    9.30
  -1  -3  13   18.20   10.20
   1  -3 -13   30.80   10.60
  -1  -3  13   16.90    8.70
   1  -3 -13   64.09   13.90
   3  -1  13   15.70   10.00
   3   1 -13   17.70   18.60
   3  -1  13   17.00   10.20
  -3   1  13   38.00    9.20
   1  -3 -13   34.30   14.90
   1   3  13   12.60    8.30
   1   3  13   16.00    8.80
  -1   3 -13   22.60    9.10
  -3  -1 -13   19.70   11.40
  -3  -1 -13  -19.40   17.80
  -3   1  13  -11.90   12.70
  -3   1  13   23.80   10.60
  -1   3 -13   16.50   18.70
   3   1 -13   42.60    8.80
   3   2  13    3.60    8.40
   2  -3  13   14.10    9.50
   2  -3  13   16.70    9.90
   2   3 -13    1.90    7.90
  -2  -3 -13    0.50   15.70
  -3  -2  13    4.90   10.50
   2   3 -13  -21.90   18.90
   3   2  13   19.70   12.60
  -3   2 -13   23.20   17.40
   2  -3  13    7.20    9.90
  -2   3  13   19.40    8.70
  -2   3  13   10.90    8.10
  -2  -3 -13   15.60   10.90
   3   2  13   -4.30    9.50
   3  -2 -13    7.60   15.40
  -3  -2  13    1.60    7.60
  -3   2 -13   12.60    9.90
   3  -2 -13   34.80    9.40
  -2   3 -13    4.70    9.00
  -3  -2 -13   27.70   16.70
   2   3  13    2.60    8.00
  -3   2  13   13.10    9.10
   3   2 -13    6.60   10.80
   2   3  13   19.30    9.90
   3   2 -13   46.50   18.40
   3  -2  13    2.40    9.40
  -3   2  13    5.80    9.20
  -3  -2 -13   11.70   11.00
   2  -3 -13    9.20   13.50
   2  -3 -13   27.80   14.50
   2  -3 -13    6.40    9.80
   3  -2  13   33.60   10.30
  -2  -3  13    6.90    8.20
   3   2 -13    2.10    8.10
  -2   3 -13    5.10   16.70
  -2  -3  13  -20.70    9.40
   3  -3 -13   14.50   16.50
   3   3 -13    9.30   20.00
  -3  -3  13   11.90   10.50
   3  -3  13   -3.20    9.90
  -3  -3 -13   20.90   11.30
  -3   3  13   16.40    9.10
   3  -3 -13   23.70   13.80
   3   3  13    7.20    8.50
  -3  -3 -13  -27.30   15.90
   3   3 -13    6.00   10.40
   3  -3  13   -3.20   10.20
  -3   3 -13   -0.60   10.10
   3  -3 -13   13.20    9.80
  -3   3  13   18.40    9.10
  -3  -3  13    0.10    8.10
   3   3 -13   -2.40    8.10
   0   4 -13   22.60    8.90
   4   0  13   17.90   11.50
   0  -4 -13   35.10   12.10
  -4   0 -13   31.60   20.30
  -4   0  13   12.00    8.60
   4   0 -13   46.90    8.80
   0  -4  13   27.10   10.20
   0  -4 -13   52.19   14.70
   0  -4  13   27.50    9.40
   0   4 -13   11.10   19.40
   0   4  13   24.50    9.20
   0  -4 -13   -6.60   14.00
   4   0  13   33.70    9.60
   0   4  13   33.90    8.70
  -4   0 -13    1.20   11.30
  -1   4  13   14.90    9.30
   4   1  13   15.00    8.90
   4  -1 -13   22.40    8.20
  -1   4  13   31.10   11.30
   4  -1 -13   35.50   16.00
  -1  -4 -13    8.50   14.30
   1   4 -13   16.50    8.50
   1  -4  13   11.20    9.40
  -4  -1  13   17.40    9.00
   1  -4  13   22.40    9.70
   1   4 -13   25.20   20.20
  -4   1 -13    4.20   18.70
  -1  -4 -13   13.60   13.40
  -4   1 -13   16.90   10.40
   4   1  13    3.50   12.00
  -1  -4 -13   21.90   11.70
   1  -4  13   10.40   12.00
   1  -4 -13   -7.80   13.70
  -1  -4  13   17.80    9.70
   4  -1  13    7.10    9.30
  -4   1  13   18.80    9.40
   1   4  13   19.80    8.60
  -1  -4  13   24.10    9.30
  -1   4 -13  -13.10   19.00
   4   1 -13   32.00   11.30
   4   1 -13   41.70   19.90
  -4  -1 -13   21.20   11.30
  -4  -1 -13   10.60   19.60
   1  -4 -13    6.30   11.20
   1   4  13   13.50    9.50
   4  -1  13   17.30   11.20
   1  -4 -13   -1.60   13.20
   4   1 -13   31.80   14.40
  -1   4 -13   16.10    8.90
   4   2  13   16.00   13.00
  -2   4  13   15.30   10.80
   2   4 -13   -5.90   10.50
  -4  -2  13   26.40   11.90
  -4   2 -13   14.80   10.70
   2  -4  13    8.50   11.10
   2   4 -13   53.99   21.10
   2   4 -13   13.50    8.70
  -4   2 -13    4.90   13.70
   4  -2 -13  -15.00   14.00
  -2  -4 -13    3.40   14.70
   4   2  13    5.30    8.80
  -2  -4 -13    1.10   13.60
  -2   4  13   11.70    8.70
   2  -4  13   19.50    9.80
  -4  -2  13    0.70    8.50
  -2  -4  13   12.40    9.10
  -4  -2 -13   25.50   21.10
   4   2 -13   19.60   10.50
   2  -4 -13  -12.80   13.20
   2  -4 -13   21.90   11.00
   2   4  13   15.60   10.30
   4  -2  13   -4.30   10.00
   4  -2  13   -8.40    9.30
  -2   4 -13   50.29   21.30
  -4  -2 -13  -11.80   11.00
   2  -4 -13   15.80   13.40
  -2   4 -13   24.10   10.30
   4   2 -13   10.40    8.30
  -4   2  13   15.00    8.70
   4   2 -13    9.10   18.50
  -2  -4  13   14.70    9.70
   3   4 -13   35.60   10.90
   4  -3 -13   -2.50   15.40
   3   4 -13   39.30   21.90
  -3  -4 -13   12.60   16.60
  -4  -3  13   13.00    9.30
  -4   3 -13   16.30   14.30
   4   3  13    9.80    9.20
  -3   4  13   -2.90    8.40
   3  -4  13    4.50   11.00
   3   4 -13   16.70    9.40
  -3   4  13   12.20    9.20
  -4  -3  13  -13.60   10.40
  -3  -4 -13   16.20   14.60
   3  -4 -13   32.20   10.40
   3  -4 -13   12.20   16.20
  -3  -4  13    9.10    9.20
   3  -4 -13  -24.40   15.40
   4   3 -13   -0.20    8.40
  -3  -4  13   14.10   10.20
   4  -3  13   28.40   11.10
   4   3 -13    0.60   21.20
  -4  -3 -13    3.00   11.40
   3   4  13    5.00   10.20
  -4   3  13    8.40    9.20
   4   3 -13   20.00   10.60
  -3   4 -13   11.50   13.90
  -4   3  13   19.90   11.10
   4  -3  13   13.90   14.80
  -4  -4  13    3.40    8.40
   4   4 -13    1.90   10.20
  -4   4  13    0.60    9.30
  -4  -4  13   32.60   10.90
   4   4  13   -4.90    8.00
  -4  -4 -13    8.30   17.80
   4   4 -13   50.39   24.00
  -4   4 -13   -1.00   13.70
   4   4 -13   17.90    9.40
  -4   4  13   10.10    9.20
   4  -4  13   -0.60   10.00
   5   0 -13   13.50   17.90
   0  -5 -13  -13.20   14.00
   5   0  13    8.30    9.10
   0   5 -13   13.50    8.80
   5   0 -13   23.30   11.40
   0   5  13   20.90    8.90
   0  -5  13   15.00    9.40
   0  -5  13   21.70   10.10
   0   5  13   29.80   10.10
   0  -5 -13   28.90   13.50
  -5   0 -13   32.80   15.50
   0   5 -13   21.10   21.00
  -5   0  13    4.00   13.30
  -5  -1  13   11.10    9.40
   5  -1 -13   13.80   11.50
  -5   1 -13   12.40   14.00
   5   1  13   18.80    9.10
  -1   5  13    6.50    9.40
   1  -5  13   23.60    9.80
   1   5 -13    4.90    8.60
   1  -5  13    3.50    9.90
  -1  -5 -13   24.40   13.30
   1   5 -13   -7.80   11.30
  -1  -5 -13   -0.40   13.50
   1   5 -13   27.00   21.40
  -1   5  13    8.80    8.00
   5   1 -13    9.30    8.10
   1   5  13   16.70    9.60
  -5   1  13   33.30   13.10
   1  -5 -13   13.20   11.90
   1  -5 -13    0.60   13.80
  -1   5 -13  -10.20    8.80
   1  -5 -13  -25.60   11.90
   5  -1  13    6.40   12.20
   1   5  13    6.80    8.90
   5  -1  13    0.90    9.70
   5   1 -13    8.80   10.60
  -1  -5  13    9.70    9.60
   5   2  13    7.10    8.80
  -2   5  13    9.30    8.90
   2   5 -13    4.30   10.90
  -2  -5 -13   19.30   15.20
  -2   5  13    1.50    8.40
  -5  -2  13    9.70    9.80
  -2  -5 -13   -9.90   13.10
   2   5 -13    8.90    8.10
   5  -2  13   11.50    9.90
   5   2 -13  -12.60   20.00
   5   2 -13   19.10   10.40
  -5   2  13    3.50   14.90
   2   5  13   18.20    9.00
   2  -5 -13    2.10   11.50
   2  -5 -13  -16.50   13.60
  -2  -5  13   10.90    8.80
   2   5  13   21.50   19.10
   2  -5 -13   13.50   12.70
  -2  -5  13   26.50   10.40
   5  -2  13   20.10   10.00
  -5   3 -13   27.60   13.60
   3   5 -13   -4.00    8.60
  -3  -5 -13   36.60   18.10
  -3   5  13   10.80    8.60
   3   5 -13   23.10   11.30
  -5  -3  13   28.40   12.00
  -5  -3  13   14.50    8.30
  -3   5  13    1.70    9.00
   3  -5  13   15.90    9.50
   5   3  13   12.30    9.10
  -3  -5 -13   21.00   15.00
   5  -3  13   13.10    9.40
  -3   5 -13   -5.20   13.80
   3   5  13   16.90   20.20
  -3  -5  13   15.00   10.30
   5   3 -13   23.90   22.70
   5   3 -13   15.80   11.20
   5   3 -13   -3.10    9.60
   3   5  13   19.10    9.30
   5  -3  13   28.70   11.60
   3  -5 -13   -9.70   16.30
  -5  -3 -13   -8.80   14.40
  -3  -5  13    4.10    8.60
   5   4  13    6.60    8.60
   4   5 -13   29.20   10.10
   4  -5  13   -9.00    9.10
  -5  -4  13   -3.70    8.00
  -4   5  13   11.90    9.40
  -4  -5 -13   14.60   17.40
  -5   4 -13  -14.30   13.40
  -4   5  13    3.50    8.90
  -5  -4  13   12.10   11.60
   4   5 -13    1.60   11.30
  -4  -5  13   -2.50    8.60
   5  -4  13    3.60   10.00
   5   4 -13   20.30    9.80
  -4  -5  13   15.90   11.00
  -5   4  13   -6.50   11.40
  -5  -4 -13  -13.00   14.60
   5   4 -13   19.00   11.30
  -4   5 -13   19.00   14.30
   5   4 -13   -8.70   24.50
   4   5  13   -0.70    8.10
  -5   5 -13   23.30   14.20
   5  -5  13    6.30   10.00
  -5  -5 -13   13.20   16.10
   5   5 -13   -1.60    9.90
  -5  -5  13   -3.20    8.70
  -5  -5  13   24.60   12.10
   5   5 -13   10.50   11.30
  -5   5  13   -0.80    9.50
   5   5  13  -10.50    7.40
   0  -6 -13  143.49   19.40
   6   0 -13   99.69   21.90
   0   6  13  103.29   21.90
   0  -6 -13   74.09   16.50
   0   6  13  109.19   12.90
   6   0  13   96.99   12.50
   0  -6  13  112.89   16.60
   0   6  13  105.19   15.30
   6   0  13  130.29   18.80
   0   6 -13   80.99   13.80
   0  -6  13   96.99   15.30
  -6   0  13  103.59   14.10
   6   1  13  142.19   19.90
   1   6 -13  104.49   15.50
  -1  -6 -13   99.09   15.80
  -1   6  13  111.09   13.00
  -1   6  13  107.59   15.10
   6   1  13  119.79   14.30
  -6  -1  13   95.29   14.50
   1  -6  13  115.49   19.40
  -1  -6 -13  168.48   25.00
   6  -1 -13   83.79   13.00
   6  -1  13  136.99   14.90
   1  -6 -13   89.79   16.70
   6  -1  13  118.19   17.40
   1  -6 -13  137.19   19.80
  -6   1  13   90.19   14.80
   6   1 -13  115.49   16.00
  -1  -6  13  104.29   16.00
   1   6  13   92.19   13.10
   1   6  13   60.39   21.60
   1   6  13  144.29   21.50
  -1  -6  13  122.09   15.10
   2   6 -13   42.50   10.10
  -6  -2  13   47.50   10.70
  -2  -6 -13   23.00   13.30
   6  -2 -13   38.80   11.90
   2  -6  13   30.50   10.20
   6   2  13   66.19   12.10
  -2   6  13   32.90    8.90
  -2   6  13   66.39   11.40
  -2  -6 -13   58.19   16.80
  -6   2 -13   93.69   15.80
  -2  -6  13   60.79   11.80
  -2  -6  13   47.00   10.50
   2   6  13   45.30   10.30
   2  -6 -13   29.60   14.60
  -2   6 -13   42.00   15.40
   2  -6 -13   59.79   14.20
   6  -2  13   60.59   12.30
   6   2 -13   53.49   12.30
   2   6  13    9.60   20.80
  -6   2  13   52.59   11.70
   6  -2  13   79.89   12.60
   3   6 -13   21.70   10.10
  -3   6  13   41.00    9.70
  -6  -3  13   38.00    9.80
  -3   6  13   47.60   10.70
   3  -6  13   23.50    9.50
   6   3  13   34.20    9.70
   6  -3 -13   38.20   11.80
   3   6  13   40.70    9.60
  -3  -6  13   41.90   11.20
  -6  -3 -13   40.00   16.90
  -3  -6  13   45.10   12.70
   6   3 -13   66.49   12.20
   6  -3  13   31.70   11.90
   6  -3  13   37.90   10.50
  -3  -6  13   40.30    9.80
  -6   3  13   35.30   11.10
  -3   6 -13   38.80   15.40
   4   6 -13   32.90   10.80
  -4  -6 -13   35.40   16.00
  -4   6  13   46.50   11.50
  -4   6  13   52.99   10.90
   6   4  13   60.29   10.40
   4  -6  13   33.40   10.20
  -6   4 -13   52.09   15.50
  -6  -4  13   20.10    8.50
   6  -4 -13   27.80   11.50
  -4   6 -13   62.29   15.80
  -6   4  13   55.59   11.60
   6  -4  13   70.69   12.10
  -4  -6  13   40.20   10.30
   6   4 -13   49.99   12.20
  -4  -6  13   42.40   13.50
   4   6  13   52.39   10.20
  -4  -6  13   76.89   13.30
  -6  -4 -13   45.10   15.10
   6  -5 -13   45.00   11.60
   6   5  13   40.40    9.70
   5   6 -13   23.60   11.70
   5   6 -13    8.90   17.50
  -6  -5  13   26.00    9.70
  -5   6  13   24.20   11.10
   5  -6  13   24.60   10.80
  -5   6  13   51.49   11.60
  -5  -6 -13   16.30   13.90
  -6   5 -13   39.00   15.90
  -5  -6  13   28.50    9.90
  -5  -6  13   28.60   13.70
   6  -5  13   32.50   10.90
   6   5 -13   18.10   11.50
  -5   6 -13   32.90   15.30
  -5  -6  13   39.20   13.30
  -6  -5 -13   16.70   16.50
  -6   5  13   53.19   11.50
   5   6  13   26.40    9.10
  -6  -6  13   28.30   10.50
  -6  -6 -13   32.90   14.50
   6  -6  13   13.10    9.20
  -6   6 -13   19.40   15.70
  -6   6  13   42.00   11.30
   6   6  13   50.89   10.10
   6   6 -13   24.50   14.00
   0   7  13   80.99   42.50
   0  -7 -13   36.10   15.60
   0  -7 -13   77.09   15.00
   7   0  13  108.29   18.50
   0  -7  13   89.89   13.30
   7   0  13  111.89   15.40
  -7   0  13   55.59   10.40
   0   7  13   83.59   11.50
   0   7  13  100.69   19.00
   7   0 -13   83.49   14.10
  -1   7  13  124.49   15.80
   1  -7  13  103.59   16.20
  -1  -7 -13  122.99   20.50
  -1   7  13  100.79   12.90
   7   1  13  120.99   16.80
   7   1  13   81.89   16.00
  -7  -1  13   97.99   14.10
   7  -1 -13   63.69   13.10
  -1  -7 -13   64.79   17.80
   1  -7 -13   88.69   16.80
   7  -1  13  112.39   15.50
  -1   7 -13   68.69   16.20
   7   1 -13  125.69   17.20
   1   7  13   87.79   22.70
  -1  -7  13   93.39   13.60
   1   7  13  101.59   12.40
   1  -7 -13  100.19   15.90
  -1  -7  13   63.69   11.80
   7  -1  13   89.49   14.80
  -7   1  13   96.09   15.10
  -2   7  13   38.80    9.10
  -2  -7 -13   57.39   15.00
  -2   7  13   39.60   11.30
   7  -2 -13   51.89   12.40
  -7  -2  13   33.10    9.30
   2  -7  13   41.40   11.00
   7   2  13   35.50   10.00
  -7   2  13   36.60   11.10
   7  -2  13   47.40   12.40
  -2   7 -13   47.50   15.00
   2   7  13   53.99   10.20
   7   2 -13   53.09   14.40
  -2  -7  13   32.70   10.30
   2   7  13   49.20   23.60
   2  -7 -13   47.40   16.60
   7  -2  13   59.99   12.50
   3   7 -13   13.40   11.00
  -7  -3  13   29.50   10.40
  -3   7  13    7.70   10.50
   7  -3 -13   35.60   11.40
   3  -7  13   22.40   10.60
   7   3  13   26.50    9.70
  -3   7  13   21.00    8.30
  -3  -7 -13   27.10   15.40
  -7   3  13   23.40   10.50
   7   3 -13   21.80   13.90
   7  -3  13   54.39   12.70
   7  -3  13   25.50   10.50
  -3  -7  13   23.30    9.80
  -3  -7  13   12.30   11.40
  -3   7 -13   40.30   14.70
  -7  -3 -13   16.30   14.90
   3   7  13   23.00    9.20
  -4  -7 -13   18.50   15.60
  -4   7  13   28.70   10.30
   4   7 -13   31.70   11.10
   7  -4 -13   43.50   11.90
   4  -7  13   23.30   10.30
   7   4  13   42.50   10.00
  -4   7  13   35.00   12.80
  -7  -4  13   35.10    9.90
  -7  -4 -13   39.70   15.80
  -4  -7  13   56.29   14.10
   7  -4  13   15.80    9.90
  -4  -7  13   22.20    9.60
   4   7  13   33.30    9.20
   7   4 -13   51.39   12.60
  -7   4  13   30.70   10.60
  -4   7 -13   35.80   14.00
  -5   7  13   48.80   11.50
  -5  -7 -13   17.50   14.20
  -5   7  13   48.20   11.90
   5  -7  13   36.30    9.80
   5   7 -13   24.50   12.20
  -7  -5  13   34.50    9.60
   7  -5 -13   52.39   12.20
   7   5  13   39.10    9.80
  -7   5 -13   40.50   15.10
  -5  -7  13   34.60   10.30
   7   5 -13   26.00   12.80
  -7   5  13   29.60   10.80
   7  -5  13   30.00   10.40
  -5  -7  13   50.99   16.10
  -7  -5 -13   47.10   15.30
  -5  -7  13   47.80   14.00
  -5   7 -13   25.70   14.60
   5   7  13   36.40    9.60
   7  -6 -13   27.00   11.70
   6  -7  13   41.90   11.40
  -6  -7 -13   31.90   15.80
  -6   7  13   28.20   10.20
  -7  -6  13   22.10    9.70
   7   6  13   37.50   10.10
  -7   6 -13   34.10   15.70
   7  -6  13   51.79   12.10
  -6   7 -13   47.80   15.90
  -7   6  13   36.30   11.00
  -7  -6 -13   15.00   14.80
   6   7  13   44.00    9.90
  -6  -7  13   16.70    9.40
   7   6 -13   24.50   12.90
  -6  -7  13   41.80   15.50
  -7   7  13   36.10   11.20
   7   7  13   18.80    9.20
  -7  -7 -13   26.40   15.90
  -7  -7  13   23.80   10.70
  -7   7 -13   34.00   15.20
   7  -7 -13    9.20   10.80
   7  -7  13   22.50    9.90
   0  -8 -13  166.78   21.50
   0  -8  13  173.78   17.80
   8   0 -13  185.68   18.40
   0   8  13  177.88   14.80
   8   0  13  172.48   21.20
   0   8 -13  127.79   21.10
  -8   0  13  107.19   15.40
   8   0  13  159.78   17.20
   0  -8 -13  117.89   18.90
   8  -1 -13  157.78   18.00
  -8  -1  13  152.08   15.60
  -1   8  13  201.68   26.00
  -1  -8 -13  150.78   21.30
   8   1  13  169.88   21.90
  -1   8  13  141.29   14.50
   8   1  13  203.08   17.10
   1  -8  13  152.18   17.20
  -8   1  13  118.79   16.10
   1   8  13  233.08   38.50
   8  -1  13  151.18   19.60
   1  -8 -13  141.99   22.50
   1   8  13  147.49   14.40
   8   1 -13  183.98   18.50
  -1  -8  13  182.38   18.50
  -1   8 -13  140.39   21.00
   8  -1  13  161.28   16.90
  -8  -2  13   45.80   10.40
   8  -2 -13   79.19   13.10
   2  -8  13   62.29   11.40
   8   2  13   97.79   12.50
  -2  -8 -13   72.99   16.90
  -2   8  13   67.69   10.20
  -2   8  13   88.09   13.50
  -2  -8  13  109.19   18.20
   8   2 -13   55.69   13.60
  -2   8 -13   54.49   14.70
  -8   2  13   88.09   13.00
   8  -2  13  108.89   14.70
  -2  -8  13   96.29   14.90
   8  -2  13   70.79   13.70
   2   8  13  105.09   13.20
   8  -3 -13   65.59   12.90
  -3   8  13   59.79   10.50
  -3  -8 -13   85.79   17.30
   8   3  13   75.29   11.40
   3  -8  13   98.19   16.00
  -8  -3  13   53.49   11.80
  -3   8  13   78.79   12.80
  -3   8 -13   65.59   15.00
  -8   3  13   38.40   10.60
   8  -3  13   99.89   14.50
   8  -3  13   76.19   13.10
   3   8  13   65.59   10.60
  -3  -8  13   93.69   15.20
  -3  -8  13   74.49   13.40
  -8  -3 -13   46.80   16.30
   8   3 -13   57.79   14.00
   8   4  13   47.60   10.20
  -8  -4  13   56.19   10.80
  -4   8  13   62.89   12.80
   8  -4 -13   52.59   13.00
  -4  -8 -13   76.39   16.60
  -4   8  13   50.69   10.60
   4  -8  13  101.49   15.60
  -4   8 -13   69.69   15.20
  -4  -8  13   47.80   11.10
  -4  -8  13   58.09   14.30
   8   4 -13   44.20   13.40
  -8  -4 -13   56.59   17.00
   8  -4  13   56.79   12.20
   4   8  13   63.89   10.30
  -8   4  13   66.29   12.10
  -5  -8 -13   54.39   17.00
   8   5  13   54.59   11.00
  -8   5 -13   58.29   18.90
   5  -8  13   49.80   11.10
  -5   8  13   52.69   11.40
   8  -5 -13   46.00   12.50
  -5   8  13   50.29   12.00
  -8  -5  13   34.80    9.90
   5   8  13   38.50    9.60
  -8   5  13   39.40   11.30
  -5  -8  13   38.50   11.10
  -5  -8  13   46.00   14.80
  -5   8 -13   39.70   15.50
  -8  -5 -13   56.39   18.10
   8  -5  13   41.20   12.10
   8   5 -13   37.70   13.70
  -8   6 -13   58.59   18.30
   6  -8  13   41.30   10.70
  -8  -6  13   54.19   11.60
  -6   8  13   43.60   10.90
  -6  -8 -13   30.70   14.60
   8  -6 -13   69.19   14.00
   8   6  13   54.39   10.60
  -6   8 -13   47.00   15.40
  -8   6  13   51.69   12.20
   6   8  13   61.79   11.00
   8  -6  13   47.10   12.10
  -6  -8  13   66.09   15.90
  -6  -8  13   47.40   11.10
  -8  -6 -13   22.70   15.20
   8   6 -13   23.90   15.80
   0   9  13  100.49   12.80
   9   0  13   74.69   15.60
   9   0 -13   72.89   13.90
   9   0  13   86.59   12.90
   0  -9 -13   82.79   17.30
   0  -9  13   62.19   11.90
   0   9 -13   68.69   15.70
  -9   0  13   85.59   13.50
   9   1  13   62.09   11.90
   1  -9  13   58.69   11.10
   9  -1 -13   48.00   12.90
  -9  -1  13   67.69   12.80
  -1   9  13   84.49   11.90
   1   9 -13   52.29   14.50
  -1  -9 -13  120.19   18.90
  -1   9 -13   38.10   13.90
  -1  -9  13   68.79   13.00
  -9   1  13   73.19   12.70
   9   1 -13   53.19   14.00
   1  -9 -13   88.19   17.00
   9  -1  13   94.19   14.80
   1   9  13   68.59   10.40
   9  -1  13   35.50   13.70
   2  -9  13   41.80   10.50
  -2   9  13   87.19   14.30
  -2  -9 -13   62.19   16.50
   9  -2 -13   41.90   12.80
   9   2  13   34.70   11.00
  -9  -2  13   24.90   10.40
  -2   9  13   48.20   10.00
   9  -2  13   20.10   13.10
   9   2 -13   32.40   12.70
  -2  -9  13   61.39   12.50
  -9   2  13   42.10   11.90
  -9  -2 -13   43.70   17.40
  -2   9 -13   39.50   14.10
   2   9  13   61.39   11.20
  -3  -9 -13   67.19   15.50
  -3   9  13   41.00    9.90
  -3   9  13   48.20   13.50
   9  -3 -13   45.90   12.70
   9   3  13   28.10   10.20
  -9  -3  13   35.90   11.30
   3  -9  13   46.10   11.50
   9  -3  13   55.49   13.70
  -3  -9  13   25.30   10.90
   3   9  13   41.80    9.80
   9  -3  13   29.00   14.20
  -9  -3 -13   28.50   17.40
   9   3 -13   31.20   13.10
  -3  -9  13   46.60   12.50
  -3   9 -13   42.30   14.30
  -9   3  13   36.30   11.90
  -9  -4  13   24.20   10.10
   4  -9  13   28.30   11.30
   9  -4 -13   34.60   12.30
   9   4  13   14.60    9.40
  -4   9  13   43.10   11.50
  -4   9  13   31.20   11.50
  -4  -9 -13   35.10   15.10
   9  -4  13   43.60   13.00
  -4  -9  13   26.30   10.60
  -4   9 -13   24.60   14.20
  -4  -9  13   12.20   12.50
  -9  -4 -13   35.10   16.50
  -9   4  13   27.80   10.10
   4   9  13   28.00    9.30
   9   4 -13   22.60   12.40
   0  10 -13   42.70   15.00
 -10   0  13   48.80   12.20
   0  10  13   65.79   11.00
  10   0  13   78.49   13.00
  10   0 -13   78.39   14.20
   0 -10 -13   84.19   18.40
   0 -10  13   52.69   12.80
  10   0  13   71.39   16.20
  10  -1 -13   57.69   13.70
  10   1  13   57.89   12.90
  -1  10  13   46.90   10.60
  -1 -10 -13   48.20   17.20
   1 -10  13   65.29   12.70
 -10  -1  13   49.10   11.70
   1  10 -13   38.20   14.80
  10   1 -13   43.80   12.90
  10  -1  13   38.00   14.50
 -10   1  13   37.90   10.70
  -1 -10  13   53.79   12.20
  -1  10 -13   52.29   14.20
   1 -10 -13   69.29   16.80
  10  -1  13   46.40   13.80
   1  10  13   47.50   10.10
   0   0 -14   14.60   10.70
   0   0  14   -5.50    9.40
   0   0  14  -10.20    8.40
   0   0  14   -4.40   11.00
   0   0 -14  -11.40   17.90
  -1   0  14  111.79   18.50
   0   1 -14   66.39   21.00
   0   1 -14  118.79   16.20
   0   1  14  109.19   13.10
   0  -1  14  101.09   14.50
   0  -1 -14  107.09   17.00
  -1   0 -14   77.89   19.20
  -1   0  14   90.29   13.40
   1   0  14   86.99   13.80
   0   1  14   99.59   13.50
   0  -1  14   97.29   14.10
  -1   0 -14   62.69   12.10
  -1   0  14  119.89   14.60
   1   0 -14   86.09   19.90
   0  -1 -14   52.39   20.10
   0   1  14   91.99   15.70
   0  -1  14  126.79   17.50
   1   0 -14  149.19   17.10
   1   0  14   90.19   14.00
   1   0  14   95.39   14.50
  -1  -1  14    2.50   11.30
  -1   1 -14   39.30   25.40
   1  -1  14  -11.80    9.00
  -1   1  14  -11.00    8.00
  -1  -1 -14   12.90   10.70
  -1   1  14   -9.80   13.20
  -1  -1  14  -19.70   10.90
   1  -1 -14   21.80   11.00
   1   1  14   -4.00    9.20
   1  -1  14   10.00   10.20
   1  -1  14    2.80   11.30
   1   1  14   -5.90   12.80
  -1   1 -14   12.10   10.70
   1  -1 -14  -34.90   18.80
  -1   1  14  -11.60    8.80
   1   1 -14   18.90   20.30
  -1  -1 -14  -44.60   18.30
   1   1  14  -11.90    8.70
   1   1 -14    7.00    9.50
  -1  -1  14   18.20    9.40
   0  -2 -14   55.19   18.80
   2   0  14   73.69   11.70
   0  -2  14   54.49   12.20
  -2   0 -14   40.90   11.70
   0   2 -14   38.60   10.40
   0  -2 -14   59.49   12.60
   0   2 -14   -4.30   19.20
  -2   0  14   64.99   14.10
   2   0  14   41.80   11.50
  -2   0  14   51.49   12.20
   2   0 -14   57.79   19.90
   0  -2  14   45.80   12.10
  -2   0  14   40.30    9.90
   0  -2  14   52.59   10.70
  -2   0 -14   50.29   19.80
   2   0  14   44.10   12.60
   2   0 -14   43.00   10.50
   0   2  14   43.80   10.30
   0   2  14   51.49   10.50
   1  -2  14   -4.00   10.20
   2   1  14    2.60   12.80
  -1  -2 -14   22.00   11.70
  -1   2  14   -5.90    8.90
   1   2 -14    6.10    9.80
   1  -2  14    2.30   10.60
   2  -1 -14   18.60   10.30
  -1  -2 -14  -22.60   16.90
  -2   1 -14  -19.50   10.50
   2   1  14  -14.10    9.90
   1  -2  14   -0.50    9.40
  -1   2  14   -2.90    9.10
  -2  -1  14    5.80    8.90
   2  -1 -14    5.40   18.90
   1   2 -14   -6.30   20.10
  -2  -1  14    5.80   11.80
  -2  -1  14   -5.90   11.90
  -2   1 -14   -0.90   20.70
   2   1  14  -13.10    8.70
   1  -2 -14    3.30   18.20
  -1  -2  14   21.40   12.20
  -2   1  14    1.70    8.90
  -2   1  14  -12.30   13.80
  -2  -1 -14    9.60   11.10
   2  -1  14   -9.90    9.50
  -1   2 -14  -26.50   18.40
   1   2  14   17.10    9.60
   2  -1  14   22.50   11.20
  -2  -1 -14   36.10   19.90
  -2   1  14    1.10   10.00
   2   1 -14   14.20    9.90
  -1  -2  14   -8.50    8.50
   1  -2 -14   -8.80   10.30
   2   1 -14   -6.30   20.90
   1   2  14   -6.60    8.40
  -1  -2  14   14.30   10.90
  -1   2 -14   -8.90    9.70
   2  -1  14   -4.00    9.60
   2   2  14   14.80   10.80
   2   2  14   14.60    9.20
  -2  -2  14  -16.90   11.30
  -2   2 -14   11.40   10.30
   2  -2  14    4.10   10.80
  -2   2  14   -0.90    8.40
   2  -2  14  -27.00   10.10
  -2  -2 -14   16.70   12.40
   2   2 -14   23.80    9.30
   2   2 -14  -29.90   20.00
  -2  -2  14   -5.70    8.40
   2  -2 -14   -5.70   18.10
   2  -2  14    9.10   10.50
  -2  -2 -14    8.40   17.60
   2  -2 -14   23.50   11.10
  -3   0 -14   26.70   12.00
   3   0  14   33.30   12.80
   0  -3 -14    4.30   17.60
   3   0  14   15.00   11.70
   0  -3  14   41.90   13.30
   0  -3 -14   26.70   15.30
   3   0 -14    9.10   19.60
   0   3 -14   39.50   21.50
   0   3 -14   18.20   10.40
   3   0  14   34.90   11.00
   3   0 -14   35.00   10.10
   0   3  14   15.30    9.10
   0  -3  14   16.90   10.90
  -3   0  14   42.50   10.50
   0  -3  14   31.00   10.20
   0   3  14   38.00   10.70
   0  -3 -14   33.60   12.60
  -3   0  14   31.60   14.10
   1   3 -14   25.40    9.80
   3   1  14    9.10    9.60
   3   1  14   11.30   11.80
  -1   3  14   -1.50    9.00
  -3   1 -14   26.90   14.60
  -1  -3 -14   28.40   13.20
  -3  -1  14   25.80   13.40
   3  -1 -14   27.10   18.80
  -1  -3 -14    3.70   15.10
   1  -3  14   28.10   10.80
  -1  -3 -14   -3.60   17.50
   3   1  14   15.00   13.10
  -1   3  14    7.40    9.30
   1  -3  14   54.79   13.00
   1  -3  14    9.70   10.70
   1   3 -14   41.90   22.50
   3  -1 -14   29.90   10.40
  -3  -1 -14   34.70   12.40
   3  -1  14   22.60   12.90
  -3   1  14    4.30   16.70
  -1  -3  14   -1.50   11.20
  -1  -3  14   34.10   10.90
   3   1 -14   32.20   21.40
  -3   1  14   32.60   12.50
  -1   3 -14   21.00   10.50
   1  -3 -14   23.40   16.70
   3   1 -14    4.50    9.00
   1  -3 -14   27.60   14.60
   1   3  14   23.30    9.70
   1  -3 -14   54.09   12.40
   1   3  14   10.30    9.70
   3  -1  14   29.30   11.10
  -1   3 -14   30.60   28.90
  -3   1  14   27.90    9.90
   2   3 -14   -0.50   12.10
   3  -2 -14   12.80   15.90
   2   3 -14   -1.40   22.10
   2  -3  14   14.80   11.90
   2   3 -14  -12.80    8.90
   2  -3  14   -5.30   10.00
  -2   3  14   24.60    9.30
   3  -2 -14    6.20   18.30
  -2  -3 -14  -11.30   12.20
  -3  -2  14    6.00    8.30
  -2   3  14   17.30    9.50
  -2  -3 -14   -7.50   18.00
   3   2  14   11.40   11.80
   3  -2 -14   23.80   15.10
  -2  -3 -14   -5.20   14.30
  -3  -2  14    2.20   12.20
   2  -3 -14   12.80   16.80
   2   3  14   12.80    9.60
   2  -3 -14   22.70   15.70
  -3  -2 -14   25.20   12.60
   3  -2  14    8.30   18.50
  -3   2  14    0.00    8.90
   3   2 -14  -24.40   21.00
   2   3  14   29.80   11.00
   3   2 -14    9.60   12.20
   2  -3 -14   19.30   11.60
  -2  -3  14   38.10   12.40
  -2  -3  14   17.40   10.20
   3  -2  14   18.10   11.20
   3   2 -14   24.40    9.50
  -3   2  14    9.30   11.00
   3   3 -14  -52.19   22.60
   3   3 -14   -3.40    9.30
   3  -3  14  -11.40   11.70
   3  -3 -14    2.50   18.40
  -3  -3  14   -3.60    9.00
  -3  -3 -14  -48.10   22.80
  -3  -3  14    1.60   12.10
  -3   3  14    3.50    9.50
   3   3  14   -3.60    9.50
  -3  -3 -14  -19.20   12.80
   3  -3  14  -10.30   10.30
   3   3 -14   12.90   11.50
  -3   3  14  -17.70    8.50
   4   0  14   -8.30    9.60
  -4   0  14   -8.80    9.40
  -4   0  14   -1.30   18.20
   0  -4 -14  -23.70   14.50
   0  -4  14  -18.10   15.10
   0  -4  14   12.80   10.70
   0   4  14   14.20    8.80
   4   0 -14   -5.40   13.80
   4   0  14   -7.30   12.10
   0  -4 -14  -33.30   12.30
   0   4  14   10.50    9.90
   0  -4 -14   -9.10   16.30
   0   4 -14    8.60    9.70
  -1   4  14   57.19   11.50
   1  -4  14   64.99   19.30
   1   4 -14   63.09   14.00
  -1   4  14   56.79   11.00
   1   4 -14   46.70   10.40
  -1  -4 -14   71.49   15.90
   1  -4  14   39.50   11.80
   4   1  14   70.39   15.50
   1   4 -14   41.80   22.20
  -4  -1  14   34.90   10.10
  -1  -4 -14   24.30   17.20
  -1  -4 -14   61.79   14.60
   4   1  14   70.99   11.80
   1  -4  14   63.99   13.30
  -4   1 -14   36.40   17.30
   4  -1  14   62.89   13.90
  -4   1  14   42.90   11.20
   1   4  14   54.89   11.40
   4   1 -14   74.19   13.40
   1  -4 -14   64.09   14.10
   1   4  14   61.89   10.40
   1  -4 -14   37.90   16.00
  -1  -4  14   45.90   12.00
  -1  -4  14   42.40   10.60
   4  -1  14   85.39   12.70
   1  -4 -14   26.20   16.30
   4   1 -14   53.19   24.80
  -2   4  14   48.40   10.10
  -4  -2  14   14.70    9.30
   2   4 -14   71.69   13.20
   2  -4  14   31.60   11.50
  -2  -4 -14   28.10   13.60
   2   4 -14   84.89   24.80
  -2  -4 -14   13.00   18.00
  -2   4  14   23.20   10.40
   4   2  14   58.99   11.40
  -2  -4 -14   27.00   15.30
  -4   2 -14   35.20   16.50
   2   4 -14   20.60    9.90
   4   2 -14   44.80   11.20
  -2  -4  14   30.40   10.10
   4  -2  14   70.89   13.20
   2   4  14   34.40   10.70
  -4   2  14   34.20   12.10
   4   2 -14   53.19   12.30
   4   2 -14   37.70   23.70
   2  -4 -14   12.40   16.90
   2  -4 -14   26.40   15.60
   4  -2  14   47.10   12.50
  -2  -4  14   36.70   11.90
   2  -4 -14   68.69   16.00
  -3  -4 -14  -12.10   21.60
  -4   3 -14   11.50   14.70
   3   4 -14   40.80   25.50
  -4  -3  14    3.30   12.90
   3   4 -14   12.30   10.10
  -3   4  14    5.10    9.40
  -3   4  14   11.60   10.40
   4   3  14   26.60    9.70
   3  -4  14   -5.80   10.00
   3   4 -14   26.50   12.00
  -4  -3  14    8.20    8.40
  -4  -3 -14   26.40   16.40
  -4   3  14   16.10   10.70
  -3  -4  14    1.50    8.40
  -3   4 -14   23.10   16.00
  -3  -4  14   24.00   12.30
   3   4  14   -0.90    8.40
  -4   3  14    4.70   10.60
   4   3 -14   23.60   25.20
   4   3 -14   12.90    9.90
   4   3 -14    9.20   11.50
   4  -3  14   26.60   11.80
   4  -3  14    5.00   12.00
   4   4 -14   21.50   12.50
   4   4 -14   77.29   28.20
   4   4  14    0.70    9.00
  -4  -4 -14    6.80   15.90
   4  -4  14    1.20    9.80
  -4  -4  14   -2.70    8.40
  -4   4  14  -11.80    9.70
  -4   4 -14   21.60   16.10
   4   4 -14  -16.70   18.90
  -4   4  14    0.90   10.10
  -4  -4  14   -1.70   12.00
  -5   0  14    0.50    8.90
   0  -5 -14    8.40   14.80
   0  -5 -14   -4.20   16.50
   0  -5  14   -5.50   10.00
   0  -5 -14   -7.30   13.60
   5   0 -14  -11.90   11.50
  -5   0 -14    3.80   24.60
   0   5  14   16.90   10.70
   5   0  14    9.30   12.10
   0   5  14    8.20    8.60
   5   0  14   -8.40   10.10
  -1   5  14   37.40   12.40
  -1  -5 -14   59.99   14.90
   1  -5  14   37.90   11.90
  -1  -5 -14   51.89   16.00
   5   1  14   41.30   14.30
   1   5 -14   28.10   10.50
  -5  -1  14   15.90    9.20
  -1  -5 -14   44.10   17.50
   5  -1 -14   10.10   12.10
  -1   5  14   52.19   10.30
  -1  -5  14   43.80   10.70
  -1  -5  14   36.30   11.80
   1  -5 -14   14.00   17.20
   1   5  14   28.90   12.90
   5  -1  14   37.90   12.00
   1   5  14   48.20   10.60
   5  -1  14   73.99   13.00
   1  -5 -14   15.30   14.60
   1  -5 -14   38.60   14.60
  -5   1  14   24.90   10.20
   2   5 -14   20.80   10.40
   2   5 -14   21.50   26.10
  -2   5  14   18.70    8.70
   5   2  14    8.40    9.80
  -2  -5 -14   14.20   15.30
  -5  -2  14   39.70   10.60
   5  -2 -14   17.30   11.20
  -2   5  14   28.10   11.10
   2  -5  14    4.10   10.30
   2  -5 -14    7.70   17.80
  -5   2  14   26.40   10.50
   5  -2  14    4.90   10.60
  -2  -5  14   29.30   12.00
   2   5  14   10.50    9.10
   5  -2  14   16.50   12.00
  -2  -5  14   22.80    9.70
   5   2 -14   32.50   12.10
  -3  -5 -14    5.20   17.60
   3   5 -14   28.60   26.80
  -5  -3  14   -0.70    7.80
   3  -5  14   -5.20    9.10
  -3   5  14   12.90    8.80
   3   5 -14   42.40   17.30
   3   5 -14   -0.20   10.00
  -3   5  14   -4.70   10.10
   5   3  14   33.40   10.30
   5  -3  14   20.90   12.60
   5   3 -14    6.10   11.80
  -3  -5  14    4.70    9.00
  -5   3  14   11.40   10.00
  -3  -5  14    6.60   11.70
   5  -3  14    7.20   10.40
   3   5  14   -3.80    8.00
  -5  -3 -14   16.90   15.50
  -3   5 -14   -5.90   16.20
   4  -5  14   -8.30    8.90
  -5   4 -14   20.30   15.70
  -5  -4  14   -0.30    9.00
   4   5 -14   20.00   11.10
   4   5 -14  -15.50   29.20
   5   4  14   -1.20    9.20
   4   5 -14   11.60   13.60
  -4   5  14    6.60   10.00
  -4   5  14   13.10   11.30
  -4  -5 -14   13.50   16.30
  -4  -5  14   -0.80   12.60
   4   5  14   20.20    8.70
  -5   4  14    9.00   10.40
  -4   5 -14   -2.20   15.90
   5   4 -14   26.90   12.60
   5  -4  14    1.60    9.60
  -4  -5  14  -15.10    8.20
  -5  -4 -14   -3.20   15.30
  -5  -5 -14   17.10   15.40
  -5  -5  14   11.00    9.20
   5   5 -14   -0.70   13.10
   5   5  14   11.10    9.20
   5  -5  14   -2.00    9.40
  -5   5 -14   14.00   16.40
  -5   5  14   11.70   10.50
   0  -6  14   16.90   11.00
   6   0  14    5.40   12.50
   0   6  14   18.60    9.00
   0  -6 -14    9.60   17.70
   6   0 -14   -1.60   11.80
   0  -6  14   33.40   11.30
   0  -6 -14   64.29   15.80
  -6   0  14   17.40    9.30
  -6  -1  14   -9.30    8.90
  -1   6  14    5.20   10.60
   1  -6  14  -13.60   10.00
   6   1  14   13.40   13.50
   6  -1 -14   -1.90   11.50
  -1  -6 -14    6.60   17.40
   6   1  14  -10.90   10.30
  -1   6  14  -12.20    8.30
  -1  -6 -14  -25.70   14.10
  -6   1  14    3.00    9.90
  -1  -6  14   14.90   11.70
   6  -1  14   28.20   12.40
  -1  -6  14   -0.40    9.40
   1   6  14    7.10    9.00
   6  -1  14   10.10   11.70
   1  -6 -14  -18.30   14.80
   6   1 -14   12.60   12.00
  -2   6  14   -2.60    8.50
  -2   6  14    2.40   11.00
   2  -6  14   -1.50    9.50
   6   2  14    8.40   10.00
   6  -2 -14    8.70   11.10
  -6  -2  14   -2.60    9.10
  -2   6 -14   -4.50   14.60
  -6   2  14   11.00    9.90
   2   6  14   -3.90    8.70
   6   2 -14   -3.60   13.20
   6  -2  14  -22.10   11.20
  -2  -6  14   12.30    9.10
   6  -2  14   -6.60   10.80
   3   6 -14   25.70   11.50
  -3   6  14   -0.20   12.10
   6   3  14   -1.10    9.50
  -6  -3  14    8.30    8.60
  -3   6  14   23.80    9.40
  -3  -6 -14   23.80   16.50
   6  -3 -14   11.10   11.50
   3  -6  14   18.30   10.00
   6  -3  14   24.80   16.60
  -3   6 -14    8.60   14.60
  -3  -6  14   32.60   13.30
  -6  -3 -14    6.80   15.20
  -3  -6  14    7.20    9.00
   3   6  14    7.80    8.60
  -6   3  14   26.50   11.20
   6  -3  14    5.20   10.40
   6  -4 -14   13.10   12.10
   6   4  14   24.00   10.50
   4  -6  14   24.40    9.90
  -4   6  14   29.90   10.60
  -4  -6 -14   24.00   15.50
   4   6 -14   10.30   11.90
  -4   6  14   36.10   12.20
  -6   4 -14   17.90   17.70
  -6  -4  14   20.10    9.60
   4   6  14   28.40    9.90
  -4  -6  14   29.50   10.30
  -6  -4 -14    2.80   16.50
  -4  -6  14   49.50   14.20
   6  -4  14   17.20   10.40
  -6   4  14   25.50   10.50
  -4   6 -14   54.79   15.30
   6   4 -14   19.60   12.90
  -5  -6 -14   19.00   16.40
  -6   5 -14   35.90   18.10
   6  -5 -14   18.30   12.00
  -6  -5  14   21.00    9.60
  -5   6  14   20.30   11.20
   5  -6  14   13.80   10.30
   6   5  14   28.60    9.90
   5   6  14   11.10    9.30
  -5  -6  14   14.10   22.30
  -5   6 -14   17.10   16.20
   6  -5  14   27.30   11.10
  -6  -5 -14   42.10   16.40
   6   5 -14   24.00   13.70
  -5  -6  14   17.00   10.10
  -6   5  14   29.70   11.30
  -6  -6  14   38.50   11.00
  -6   6  14   35.20   11.70
   6   6  14   25.00   10.40
   6  -6  14   21.40   10.70
  -6  -6 -14   56.89   17.30
   6  -6 -14   15.30   11.50
  -6   6 -14   26.00   16.90
   7   0  14    3.60   13.30
   7   0  14    1.50   11.40
   0  -7  14    3.10   10.80
   0  -7 -14   17.90   19.60
   7   0 -14   11.50   12.10
   0   7  14    8.20    8.50
   0  -7 -14    6.00   15.40
  -7   0  14   11.70    9.80
   1  -7  14   14.60   10.40
   7   1  14   -9.20   13.60
  -1  -7 -14   -8.00   17.10
  -7  -1  14   -6.60    8.90
  -1   7  14   -2.00    8.80
  -1   7  14   10.50   13.30
   7  -1 -14    3.30   11.90
   7   1  14   -0.60   10.40
  -1  -7  14   -3.30   10.00
  -1  -7  14    3.30   11.30
   7   1 -14    9.60   11.90
   1  -7 -14    9.00   16.00
  -1   7 -14   -6.80   13.50
  -7   1  14   -5.80    9.50
   1   7  14   -2.00    8.20
   7  -1  14   -7.70   11.50
  -7  -2  14   21.20   10.30
   7   2  14   -4.00    9.80
  -2  -7 -14   11.50   16.00
  -2   7  14    8.20    9.10
   2  -7  14    8.50   10.90
  -2   7  14   14.10   12.10
   7  -2 -14   -2.60   11.30
   7  -2  14    8.10   12.50
  -7   2  14   -2.90   10.00
   2   7  14    3.60    8.90
   7   2 -14   11.50   12.70
  -2  -7  14    4.90   11.30
  -2  -7  14   -0.10    9.50
  -2   7 -14    7.60   15.50
   7  -2  14   -0.90   11.20
  -7  -3  14   13.70    9.10
   7  -3 -14    3.50   11.30
  -3   7  14    9.10   13.70
   3  -7  14   -8.70    9.40
  -3   7  14    0.60    8.70
   7   3  14    4.80    9.90
  -3  -7 -14   17.60   15.60
   7  -3  14   34.20   15.70
   3   7  14    1.90    8.80
   7   3 -14   -8.20   12.60
  -3   7 -14   11.40   14.20
  -7  -3 -14   -3.30   15.00
  -3  -7  14   -1.60   12.80
   7  -3  14   11.60   10.40
  -7   3  14   12.60   10.50
  -3  -7  14    4.50    9.40
   7  -4 -14   23.50   12.00
   7   4  14    4.30    8.90
  -4  -7 -14   12.10   16.40
  -7  -4  14    3.10    8.30
  -4   7  14   17.60   10.50
  -4   7  14   11.60   11.60
   4  -7  14   17.00   10.40
  -7   4 -14   14.60   22.00
  -7   4  14    3.50   10.30
  -4  -7  14    3.20   14.00
   7   4 -14   20.90   14.20
  -4  -7  14   14.10    9.20
  -4   7 -14   -6.50   14.50
   4   7  14   16.10    8.90
  -7  -4 -14    4.90   15.90
   7  -4  14    9.40   11.30
  -5  -7 -14    0.20   15.80
   7  -5 -14    6.10   11.10
   7   5  14    5.60    9.40
   5  -7  14   28.00   11.60
  -5   7  14   35.80   12.00
  -7  -5  14    2.90    9.30
  -7   5 -14    8.40   17.00
   5   7  14    5.50    8.70
  -5  -7  14    7.80    9.30
   7  -5  14   16.40   10.60
  -5   7 -14    5.50   15.20
  -5  -7  14   28.50   17.10
  -7  -5 -14   34.50   17.80
   7   5 -14   -9.10   14.00
  -7   5  14   23.40   11.30
  -8   0  14   12.10   10.30
   8   0  14   10.60   13.30
   0   8  14    0.40    8.20
   0   8 -14    7.40   14.10
   0  -8  14   -7.50   10.90
   0  -8 -14    3.70   16.00
   8   0  14   16.50   11.20
   8   0 -14    0.00   12.10
  -1   8  14    1.60    8.80
  -8  -1  14    6.80    9.70
   8  -1 -14   -1.00   11.90
   1  -8  14    6.30   10.80
   8   1  14    8.30   10.90
  -1  -8 -14   14.80   17.10
   8  -1  14   -1.70   12.90
  -8   1  14    4.50   10.50
   1  -8 -14  -28.50   21.80
  -1   8 -14    7.00   13.90
  -1  -8  14   -3.20   10.90
   8   1 -14   15.60   12.70
   1   8  14    3.50    9.10
   8  -1  14    3.60   13.00
  -8  -2  14   14.00   10.00
  -2   8  14    5.50    9.30
   8  -2 -14   16.10   12.60
   2  -8  14    3.30    9.70
  -2   8  14   26.70   13.20
  -2  -8 -14   -4.20   16.00
   8   2  14   23.40   11.10
  -2  -8  14    6.70   10.30
   8  -2  14  -10.90   20.50
  -8   2  14   -3.30   10.10
  -2  -8  14    8.00   11.60
  -2   8 -14   15.70   15.50
   8  -2  14   29.10   12.90
   8   2 -14    8.20   12.60
   2   8  14   -4.30    8.80
   3  -8  14   16.20   10.40
  -3  -8 -14   38.00   17.40
  -8  -3  14   38.80   11.00
   8  -3 -14   38.20   12.20
  -3   8  14    8.60   12.80
   8   3  14   25.80   11.00
  -3   8  14   17.90    9.40
  -8   3  14   29.90   10.90
  -8  -3 -14   15.30   15.70
   3   8  14   28.30   10.40
  -3   8 -14   33.90   14.00
   8   3 -14   43.70   13.40
  -3  -8  14   30.00   10.90
   8  -3  14   17.60   11.10
  -3  -8  14   31.50   13.20
   8  -3  14   54.59   22.20
   0   0  15    8.40   13.90
   0   0  15   10.80   10.50
   0   0 -15  -28.40   21.30
   0   0 -15   27.10   12.50
   0   0  15   17.30   10.90
   0   1  15    1.50   14.90
   0  -1 -15  -20.30   21.90
   1   0 -15  -38.60   21.70
  -1   0  15    0.90    9.90
  -1   0 -15  -76.19   39.70
   0  -1  15   14.40   12.70
  -1   0 -15   23.90   13.30
   1   0 -15    1.40   11.80
   1   0  15   10.10   11.10
   1   0  15   25.90   11.50
   0  -1  15   -9.00   10.10
   0   1 -15   13.60   23.40
   0   1  15   12.00   10.80
  -1   0  15  -10.90   16.30
   0  -1 -15   -3.60   12.70
   1   0  15   -6.50   13.60
   0  -1  15   12.20   11.60
   0   1 -15   11.80   11.50
  -1   0  15   -9.40   12.50
   0   1  15    1.00   10.40
  -1   1  15    5.30   10.70
  -1  -1 -15  -14.20   12.60
  -1   1  15   -5.90    9.70
   1  -1 -15   11.70   21.70
   1   1  15   23.80   11.60
   1   1  15   -3.10   10.50
   1   1  15   21.70   14.80
  -1  -1  15   32.40   14.00
   1   1 -15   19.20   11.40
   1  -1 -15   47.80   13.30
   1  -1  15    0.90   10.20
  -1   1 -15   -1.00   12.00
   1  -1  15   15.80   11.70
   1  -1  15   27.20   13.10
  -1  -1 -15  -43.50   24.30
   1   1 -15   10.00   24.50
  -1   1  15    7.40   15.40
   0   2  15    1.30   10.40
  -2   0  15    4.00   15.50
   2   0 -15  -25.70   23.10
   0  -2  15   -1.60   13.20
   2   0  15  -15.80   10.10
   0   2 -15   12.10   38.30
  -2   0  15    4.90    9.90
   0   2 -15    5.10   11.50
   2   0 -15    1.80   11.60
   2   0  15   20.30   12.50
   0   2  15   -1.40   10.50
   0  -2 -15    8.70   12.80
   0  -2  15   -7.20   12.70
  -2   0  15   31.70   19.10
   0  -2 -15  -42.00   20.30
   2  -1 -15   25.40   24.90
  -1   2  15    8.80   10.00
   2   1  15   13.20   11.20
  -1  -2 -15   23.50   13.30
  -2  -1  15   -7.70    9.30
   1  -2  15    6.10   10.60
   1   2 -15   23.80   25.30
   2   1  15   10.90   11.40
  -1   2  15    9.70   10.20
   2   1  15  -14.80   18.40
  -2  -1  15   -4.50   13.30
   1   2 -15   -2.00   11.10
  -1  -2 -15   -0.10   22.40
   1  -2  15   26.10   13.00
   1  -2 -15   38.50   16.60
   2   1 -15    8.40   11.50
  -1  -2  15    8.40   13.30
  -1  -2  15   26.50   14.80
   2  -1  15    6.50   11.60
   2   1 -15    5.70   25.00
   1   2  15   11.40   11.30
  -1  -2  15   -4.50    9.80
   2  -1  15   13.70   13.80
   1  -2 -15   17.70   22.30
   1   2  15    7.70   10.20
   2  -1  15    1.10   11.70
  -2   1  15   23.30   12.20
   2  -2  15   -1.70   12.30
   2   2 -15  -46.10   25.50
  -2   2  15  -14.20   10.20
   2   2  15   -2.60   10.00
  -2  -2  15  -30.40   13.20
  -2  -2  15    0.30    9.20
   2  -2  15  -17.30   12.00
   2  -2  15   13.20   12.50
   2  -2 -15   54.09   28.50
   2   2 -15   25.30   11.10
  -2   2  15    5.20   10.10
   0  -3  15    6.50   10.50
   0  -3 -15  -26.60   15.30
   0  -3 -15  -22.80   19.00
   3   0  15   19.60   13.60
  -3   0  15    9.00    9.70
   3   0  15   39.30   14.50
   0  -3 -15   28.80   14.10
   0  -3  15   20.10   14.70
   0   3  15   14.20   10.70
   0   3  15   11.30    9.10
   0  -3  15    2.80   13.70
   3   0  15   11.70   12.30
   0   3 -15   19.40   17.10
   1   3 -15   34.80   11.50
   1  -3  15   27.40   12.40
   1  -3  15   12.00   12.90
  -1  -3 -15    7.90   22.80
  -3  -1  15    7.20    8.90
  -1  -3 -15  -13.60   16.70
   3   1  15    7.80   11.50
   3   1  15    7.60   14.80
  -1  -3 -15   54.39   14.70
   1  -3  15   59.69   15.30
  -1   3  15   48.20   11.80
   1   3 -15   25.20   39.60
  -1   3  15   28.90   10.10
  -1  -3  15   36.20   13.90
   1  -3 -15  -19.90   20.10
   1   3  15   27.20    9.70
  -3   1  15   37.50   13.40
   3  -1  15   17.80   12.40
   1  -3 -15   27.30   17.80
   3  -1  15   23.70   13.40
  -1  -3  15   19.10   10.60
  -3   1  15   33.40   11.70
   1  -3 -15   32.10   17.60
   1   3  15   19.90   16.30
   2  -3  15   -3.50   11.50
   3   2  15   10.30   10.90
  -3  -2  15   22.50    9.90
  -2   3  15    0.30   10.40
  -2   3  15    8.10   10.00
   2  -3  15   25.90   14.20
   2   3 -15   14.60   10.80
   2   3 -15   -1.70   13.70
   2   3 -15   17.80   25.20
  -2  -3 -15   29.10   19.80
  -3   2  15   15.00   11.90
   2   3  15    9.90   10.00
   3  -2  15   24.50   13.00
  -2  -3  15   12.80   10.40
   3   2 -15   -0.20   13.40
  -2  -3  15   26.10   13.90
  -3   2  15   12.70   10.90
   3  -2  15   15.40   12.30
   3   3 -15   44.90   31.30
  -3   3  15    8.60   11.20
   3   3  15   21.60   10.90
   3   3 -15    5.70   12.70
  -3  -3  15   29.30   10.10
  -3   3  15   23.20   11.60
  -3   3 -15   12.30   18.10
  -3  -3 -15   42.90   18.40
   3  -3  15   21.00   12.10
  -3  -3  15   49.40   19.50
   0  -4 -15    5.90   19.30
   0  -4  15    8.20   12.40
   4   0  15   22.30   13.90
   0  -4 -15   13.10   15.50
   0   4  15    5.30    9.20
   0  -4 -15   16.80   17.30
  -4   0  15    9.50   10.40
   4   0 -15    3.90   12.80
   4   0  15   12.50   13.70
   0  -4  15    8.80   10.70
   0   4  15   22.80   11.40
  -1  -4 -15   67.49   18.60
   4   1  15   56.09   15.60
   4   1  15   48.60   12.80
   1  -4  15   54.79   13.20
  -1   4  15   73.79   12.90
  -1  -4 -15   70.99   16.70
   1   4 -15   87.09   28.30
  -4  -1  15   61.79   11.90
  -1   4  15   99.29   14.40
   1  -4  15   81.19   14.60
  -4   1  15   69.79   12.50
   1   4  15   88.29   12.20
  -1  -4  15   62.29   12.40
   4  -1  15   68.39   14.50
  -1  -4  15   48.10   23.10
   4   1 -15   68.99   15.40
   1  -4 -15   26.40   18.00
   4  -1  15   88.49   14.90
  -2  -4 -15   42.50   18.70
  -2   4  15   38.30   11.90
  -2   4  15   25.70   10.10
  -4  -2  15   25.20    9.50
   4   2  15   37.70   11.60
   2   4 -15   24.20   11.60
   2   4 -15   22.80   14.40
   2  -4  15   27.10   12.60
   4  -2  15   30.40   13.50
   4   2 -15   31.90   16.10
   4  -2  15   28.00   12.80
  -2  -4  15   29.20   14.00
  -2  -4  15   24.50   10.10
  -4   2  15   16.60   10.50
   2   4  15    9.70    9.60
   3   4 -15   26.10   13.50
   3  -4  15   13.40   11.20
  -4   3 -15   38.10   18.00
  -3  -4 -15    7.30   16.60
  -3   4  15   12.10   10.10
   4   3  15   30.30   10.80
  -4  -3  15   14.40    9.50
   3   4 -15  -11.50   30.80
  -3   4  15   15.50   11.40
  -4  -3 -15   11.90   17.10
   4  -3  15   27.00   11.90
  -4   3  15    9.50   10.90
   3   4  15   16.30   10.80
  -3  -4  15   12.50   13.80
   4   3 -15   27.00   13.20
  -3   4 -15    9.50   17.80
  -3  -4  15   13.30    9.80
   4   4 -15   29.40   14.40
  -4   4  15    0.20   10.80
  -4   4  15   12.80   11.80
   4  -4  15    5.10   11.70
   4   4  15    4.30    9.90
  -4  -4 -15   20.00   16.70
  -4  -4  15    5.90    9.30
  -4   4 -15   20.20   19.10
   0  -5 -15  -24.40   30.20
   0  -5 -15   46.90   17.60
   0   5  15   31.90   10.10
   0  -5  15   46.40   13.40
   0  -5  15   32.80   11.90
   5   0 -15   22.20   12.40
   5   0  15   30.00   14.90
  -5   0  15    1.40    9.80
   5   0  15   21.30   12.90
   5  -1 -15   68.29   14.60
   5   1  15   78.59   16.00
   1  -5  15   62.29   13.10
  -1   5  15   60.69   13.00
  -1  -5 -15   97.59   31.20
   5   1  15   92.29   14.00
  -1  -5 -15   55.89   18.70
  -5  -1  15   66.59   12.50
  -1   5  15   71.89   11.40
   1  -5 -15   41.50   19.90
  -1  -5  15   76.29   12.80
   5  -1  15   92.99   21.30
   1   5  15   71.39   11.10
   5   1 -15   86.99   14.60
  -1  -5  15   64.99   14.60
  -5   1  15   62.19   11.80
   5  -1  15   91.99   16.30
  -5  -2  15   23.90   10.10
  -2   5  15   40.10   10.60
   5   2  15   44.50   12.10
   2  -5  15   36.00   11.90
  -2   5  15   29.10   12.40
   5  -2 -15   24.20   13.00
  -2  -5 -15   52.29   18.80
   2   5  15   35.30   10.20
  -2  -5  15   41.90   11.40
   5  -2  15   46.30   12.70
  -5   2  15   27.50   10.80
  -2  -5  15   12.10   15.00
   5   2 -15   31.00   13.80
   5  -2  15   43.60   14.80
  -2   5 -15   36.90   17.50
  -5   3 -15   49.10   19.00
  -3  -5 -15   43.80   17.90
  -3   5  15   37.40   12.90
  -3   5  15   23.20   11.10
   3  -5  15   32.90   12.00
  -5  -3  15   15.80    9.60
   5   3  15   22.50   11.40
  -3  -5  15   35.40   10.80
  -3   5 -15   21.90   17.40
   5  -3  15   31.50   12.80
  -5   3  15   32.10   11.80
  -3  -5  15   28.30   15.10
  -5  -3 -15   52.59   18.60
   3   5  15   33.30   10.10
   5   3 -15   22.60   14.60
   4  -5  15   14.90   12.10
  -4   5  15   11.20   11.40
  -4   5  15   20.50   12.10
  -5   4 -15   27.80   19.00
  -4  -5 -15   18.50   18.30
  -5  -4  15   19.40    9.80
   5   4  15    4.30   10.10
   5  -4  15   18.50   11.30
   4   5  15    4.40    9.40
  -5  -4 -15   11.70   17.00
  -4   5 -15   17.10   17.20
  -5   4  15   26.00   11.30
  -4  -5  15    6.80   15.70
  -4  -5  15    2.80    9.20
   5  -5  15    9.70   11.40
  -5   5  15    7.50   11.90
  -5  -5  15   20.90   10.60
   5   5 -15    4.50   15.40
  -5  -5 -15   30.40   19.00
  -5   5 -15   52.29   17.40
   5   5  15   16.00   10.10
  -6   0  15   14.30   10.50
   6   0  15   21.40   14.20
   6   0 -15   26.80   13.00
   6   0  15   32.80   13.40
   0  -6  15   11.00   11.20
   0   6  15   25.20    9.80
   0  -6 -15   67.19   18.80
  -1   6  15   44.20   10.80
  -6  -1  15   45.40   11.40
   6   1  15   53.19   13.30
   6   1  15   72.19   16.20
   1  -6  15   36.10   12.90
  -1  -6 -15   40.80   18.90
   6  -1 -15   32.30   13.00
   6  -1  15   29.60   13.90
   1   6  15   45.00   10.10
  -1  -6  15   27.60   11.80
  -1  -6  15   56.59   13.40
   6   1 -15   57.79   14.40
   6  -1  15   48.10   15.10
  -6   1  15   39.40   11.60
  -2  -6 -15   20.80   17.00
   6   2  15   12.70   11.90
   6  -2 -15   16.30   11.90
  -2   6  15   13.60    9.10
   2  -6  15    4.20   10.90
  -6  -2  15   16.80    9.40
  -6   2  15   -7.70   10.40
   6  -2  15   38.40   14.70
  -2  -6  15   15.00   13.60
  -2  -6  15    9.40   10.20
  -2   6 -15   -3.70   16.40
   6   2 -15   15.50   12.90
   6  -2  15   30.10   12.90
   2   6  15   34.30   10.40
   6   3  15   39.60   11.50
   6  -3 -15   29.90   13.20
  -6  -3  15   21.40   10.90
  -3  -6 -15   30.60   17.70
  -3   6  15   31.30   12.80
  -3   6  15   17.60    9.90
   3  -6  15   31.70   11.00
  -3  -6  15    7.70   14.30
  -3   6 -15   25.60   16.80
  -6  -3 -15   17.50   17.00
   3   6  15   10.10   12.00
  -3  -6  15   17.20    9.90
   6  -3  15   19.40   11.30
   6   3 -15   24.80   14.70
  -6   3  15   28.60   11.10
   4  -6  15   10.30   11.60
   6   4  15   17.50   10.70
  -4   6  15   21.70   11.20
  -6  -4  15    9.20   10.10
   6  -4 -15    6.40   11.70
  -6   4 -15   13.60   20.20
  -4   6  15   34.60   13.20
  -4  -6 -15   -2.40   17.30
  -4  -6  15   25.00   16.00
  -4  -6  15   14.70    9.90
   6   4 -15  -19.60   14.50
   6  -4  15   22.50   11.50
  -6  -4 -15    6.50   17.30
   4   6  15   22.20    9.90
  -4   6 -15   -0.70   16.70
  -6   4  15   11.50   11.30
   7   0  15   11.10   13.90
   7   0  15   15.90   13.40
   0  -7  15   24.30   12.30
   0   7  15   16.10    9.70
   7   0 -15   31.10   13.10
  -7   0  15   20.30   10.30
  -7  -1  15   42.30   11.80
   7   1  15   26.60   12.10
   1  -7  15   29.00   12.10
  -1   7  15   31.40   10.00
   7  -1 -15   39.30   13.20
  -1  -7 -15   48.80   19.50
  -1  -7  15   30.80   12.70
  -7   1  15   33.20   10.90
   7  -1  15   60.59   15.30
   7   1 -15   28.70   13.40
   7  -1  15   37.70   14.60
   1   7  15   27.70    9.30
  -1   7 -15   35.50   16.30
   0   0  16  238.48   21.80
   0   0  16  313.87   22.00
   0   0 -16  298.47   28.20
   0   0  16  327.57   29.20
   0   1  16  211.48   28.40
   0  -1  16  137.99   33.60
   1   0  16  174.08   26.20
  -1   0  16  216.28   27.90
   0   1  16  209.88   20.80
   0  -1  16  206.28   21.10
   0   1  16  206.78   18.20
  -1   0  16  170.48   18.30
   0  -1  16  202.58   19.60
   1   0  16  194.08   19.50
  -1   0  16  204.68   20.10
   1   0  16  206.58   19.50
   1  -1  16  100.29   17.50
   1  -1  16   84.39   17.20
   1   1  16  121.39   15.40
  -1  -1  16  117.79   18.50
  -1   1  16  126.79   15.90
  -1  -1  16   96.39   18.10
   1   1  16   93.49   20.40
  -1  -1  16   90.49   14.40
   1  -1  16  134.09   19.00
  -1   1  16  158.48   18.70
   1   1  16  120.09   19.10
   2   0  16  106.99   17.00
   0  -2  16  116.59   17.10
   2   0  16   99.29   17.90
   0  -2  16  142.89   21.10
  -2   0  16  114.19   16.90
   2   0  16  149.79   19.20
  -2   0  16   90.19   17.30
   0   2  16  136.49   17.10
   0  -2  16  113.19   18.70
   0   2  16  112.79   15.90
  -2  -1  16   53.39   12.40
  -1   2  16   56.29   14.10
   1  -2  16   38.60   14.10
   1  -2  16   35.00   14.70
   2   1  16   58.29   17.90
   1  -2  16  101.19   17.10
  -1   2  16   75.49   13.80
   2   1  16   91.09   14.30
  -2   1  16   54.09   11.70
   1  -2 -16  101.89   22.30
  -1  -2  16   87.49   20.40
   2  -1  16   69.79   15.60
   2  -1  16   60.19   15.50
   1   2  16   67.79   18.90
  -2   1  16   69.69   14.50
   2  -1  16   79.59   16.40
   1   2  16   95.39   14.20
  -1  -2  16   64.79   12.80
  -2   2  16   29.60   12.40
   2  -2  16   38.80   15.40
   2  -2  16   45.00   16.10
  -2  -2  16   16.50   11.10
   2  -2  16   28.30   13.80
   2   2  16   10.30   10.90
  -2   2  16   50.99   13.60
  -2  -2  16   68.79   19.90
  -3   0  16  197.68   17.40
   3   0  16  175.78   18.70
   0  -3  16  211.28   23.50
   0   3  16  169.78   20.10
   0  -3 -16  119.49   23.10
   0   3  16  208.88   18.30
   0  -3  16  156.58   18.10
   3   0  16  184.98   23.70
   1  -3  16  179.48   30.80
   1  -3  16  165.98   21.30
   3   1  16  163.68   24.60
   1  -3  16  151.68   19.40
  -1  -3 -16  122.19   22.60
  -1   3  16  137.49   17.00
   3   1  16  132.99   17.80
  -3  -1  16  121.09   17.00
  -3   1  16  102.59   16.20
   1  -3 -16  105.89   22.80
  -1  -3  16  138.29   22.80
   1   3  16  146.59   16.90
   3  -1  16  164.78   22.10
  -1  -3  16  130.99   16.80
   3   1 -16  113.99   17.50
   3  -1  16  169.08   18.60
  -2  -3 -16   85.19   21.20
   3   2  16   84.39   13.90
   2  -3  16   80.39   15.00
  -3  -2  16   58.19   12.10
  -2   3  16   81.39   13.70
  -2   3  16   59.09   13.80
   2   3 -16   49.60   18.70
   3   2 -16   93.19   17.00
   3  -2  16   93.79   17.50
  -3   2  16   77.59   13.40
  -3   2  16   61.79   14.60
  -2  -3  16  103.49   19.50
   3  -2  16   76.29   15.70
   2   3  16   64.89   12.30
  -2  -3  16   78.59   12.90
  -3   3  16  104.59   15.70
  -3   3  16  133.49   18.20
  -3  -3 -16  102.39   21.20
  -3  -3  16   81.09   13.90
  -3   3 -16  128.49   23.80
   3   3 -16  119.29   18.50
   3   3  16  122.69   16.60
   3  -3  16  160.68   21.40
   0   4  16  166.18   17.40
   0  -4 -16  146.79   36.40
   4   0  16  194.08   19.40
   0  -4  16  175.18   19.10
   0  -4  16  179.18   22.40
   4   0 -16  160.88   22.00
  -4   0  16  144.49   17.00
   4   0  16  155.18   23.50
  -4  -1  16   59.29   11.50
   4   1  16  125.79   15.90
  -1  -4 -16   83.29   23.10
   1  -4  16   92.49   15.60
  -1   4  16  122.99   16.00
   4   1  16  102.39   18.90
   1  -4  16  122.39   19.10
  -1  -4  16   75.19   13.40
  -1  -4  16   83.29   17.00
   4  -1  16  140.79   21.70
   4  -1  16  119.19   17.20
   1  -4 -16  120.49   29.30
   4   1 -16   87.89   16.20
   1   4  16  118.49   15.20
  -4   1  16   71.19   13.30
   2  -4  16   59.09   14.60
  -2   4  16   39.00   11.50
  -2   4  16   82.79   15.00
   4   2  16   72.49   13.80
  -2  -4 -16   53.79   21.20
  -4   2 -16   39.40   23.40
  -4  -2  16   39.20   11.30
  -4   2  16   44.70   12.80
   4  -2  16   70.89   14.90
  -2  -4  16   40.70   11.60
   2   4  16   77.29   12.70
   4   2 -16   67.09   16.00
   0   0   0    0.00    0.00



_computing_structure_solution     'SHELXT 2014/5 (Sheldrick, 2014)'
_computing_structure_solution     'SHELXT 2014/5 (Sheldrick, 2014)'
_computing_structure_solution     'SHELXT 2014/5 (Sheldrick, 2014)'
;
_shelx_hkl_checksum              98324
_shelx_fab_checksum              82340
_shelx_fab_file
;
    1    1    0     31.48      0.45
    0    2    0   -142.33      0.30
    1    2    0     36.55     -0.22
    2    2    0     67.31      0.83
    0    3    0     55.22      0.00
    1    3    0     -8.54     -0.26
    2    3    0    -35.28     -1.25
    3    3    0     12.95      2.61
    0    4    0     23.54     -0.24
    1    4    0     -7.81     -0.15
    2    4    0     -8.85      0.35
    3    4    0      8.50     -0.73
    4    4    0     -5.37      0.68
    0    5    0    -28.27      0.40
    1    5    0      0.44      0.11
    2    5    0     15.80      0.07
    3    5    0     -3.52     -0.37
    4    5    0      5.89     -0.09
    5    5    0     -5.57      0.24
    0    6    0     15.29      0.00
    1    6    0     -1.41      0.14
    2    6    0     -5.99      0.04
    3    6    0      4.53     -0.02
    4    6    0     -5.87     -0.07
    5    6    0     -5.93     -0.12
    6    6    0     10.77     -0.05
    0    7    0     19.48     -0.26
    1    7    0     -1.00     -0.37
    2    7    0    -10.45      0.35
    3    7    0      1.33      0.39
    4    7    0      2.21     -0.15
    5    7    0     -0.61     -0.09
    6    7    0      2.58      0.15
    7    7    0      0.29     -0.33
    0    8    0    -15.70     -0.69
    1    8    0      0.07      0.39
    2    8    0      7.67     -0.05
    3    8    0     -3.99     -0.36
    4    8    0      4.72      0.19
    5    8    0      2.54      0.10
    6    8    0     -7.12      0.11
    7    8    0     -2.21      0.03
    8    8    0      4.94      0.00
    0    9    0    -12.72      0.80
    1    9    0      4.57     -0.26
    2    9    0      5.54     -0.03
    3    9    0     -3.22      0.11
    4    9    0     -4.37     -0.34
    5    9    0      3.67      0.45
    6    9    0     -1.35     -0.40
    7    9    0     -2.26      0.24
    8    9    0      0.55     -0.09
    9    9    0     10.72     -0.72
    0   10    0      7.33      0.03
    1   10    0      0.96      0.16
    2   10    0     -3.05     -0.12
    3   10    0     -2.30     -0.18
    4   10    0      0.76     -0.56
    5   10    0      1.01      1.07
    6   10    0      2.12     -0.26
    7   10    0      2.74     -0.29
    8   10    0     -0.26     -0.60
    9   10    0     -7.52      1.47
   10   10    0      0.10     -0.66
    0   11    0      0.38      0.80
    1   11    0     -0.75     -0.89
    2   11    0     -1.11     -0.30
    3   11    0      1.24      0.69
    4   11    0      0.48      1.68
    5   11    0      0.78     -2.67
    6   11    0     -0.79      0.74
    7   11    0     -0.78      0.15
    8   11    0      1.26     -0.40
    9   11    0     -2.45      0.87
   10   11    0      2.34     -0.60
   11   11    0      0.22     -0.17
    0   12    0     -3.17     -1.67
    1   12    0     -1.53      1.47
    2   12    0      2.83      0.30
    3   12    0      0.90     -0.81
    4   12    0     -0.87     -0.40
    5   12    0     -1.83      0.66
    6   12    0      1.51     -0.49
    7   12    0     -2.32      0.12
    8   12    0      0.49      2.63
    9   12    0      2.45     -3.62
   10   12    0     -0.51      0.71
    0   13    0      5.67      0.35
    1   13    0     -1.69     -0.30
    2   13    0     -0.90      0.20
    3   13    0      3.12      0.19
    4   13    0     -2.37     -0.73
    5   13    0     -1.46      0.46
    6   13    0     -0.49      0.67
    7   13    0      2.81     -0.18
    8   13    0     -0.63     -1.91
    9   13    0     -1.70      2.00
    0   14    0     -0.64     -0.02
    1   14    0     -0.26     -0.23
    2   14    0      0.54     -0.25
    3   14    0     -0.50      0.11
    4   14    0      0.19      0.31
    5   14    0      1.39      0.04
    6   14    0      0.96     -0.20
    7   14    0     -1.40     -0.09
    0   15    0     -2.79     -0.05
    1   15    0      1.66     -0.07
    2   15    0      0.16     -0.19
    3   15    0     -2.89      0.23
    4   15    0      2.45      0.20
    5   15    0      0.19      0.08
    0   16    0     -0.33      0.32
    1   16    0      0.59      0.05
    0    1    1     -1.38    -11.38
    1    1    1    -11.85     13.31
    0    2    1      0.91    -19.73
    1    2    1     12.53      0.61
    2    2    1    -12.93     13.07
    0    3    1     -0.24      9.92
    1    3    1     -1.18     -2.40
    2    3    1      0.65     -7.33
    3    3    1     -6.55      6.30
    0    4    1      0.10      5.37
    1    4    1    -10.97     -6.07
    2    4    1     -0.53      6.35
    3    4    1      2.99     -1.59
    4    4    1      3.46     -3.99
    0    5    1     -0.02     -8.89
    1    5    1      5.35      5.70
    2    5    1      5.82      3.38
    3    5    1     -3.61     -7.91
    4    5    1     -3.52      1.51
    5    5    1     -3.89      3.60
    0    6    1     -0.01     -4.69
    1    6    1      0.49      4.72
    2    6    1     -1.46     -1.43
    3    6    1      2.98     -1.48
    4    6    1      0.60     -0.74
    5    6    1      2.51      1.45
    6    6    1     -0.49      0.75
    0    7    1      0.26      6.28
    1    7    1      0.96     -5.59
    2    7    1     -2.03      2.62
    3    7    1      1.10     -0.37
    4    7    1      1.18      0.73
    5    7    1      1.66     -2.96
    6    7    1      1.29      3.22
    7    7    1     -0.71      0.91
    0    8    1     -0.31      2.16
    1    8    1      1.62     -0.54
    2    8    1     -0.40     -2.34
    3    8    1     -0.05      3.52
    4    8    1     -1.67     -2.07
    5    8    1     -3.87     -0.10
    6    8    1     -0.55      1.13
    7    8    1      3.41     -0.28
    8    8    1      1.34     -1.26
    0    9    1     -0.01      0.14
    1    9    1     -2.90      1.15
    2    9    1      3.07     -2.57
    3    9    1     -1.86      1.36
    4    9    1     -0.31      0.90
    5    9    1      1.99     -1.28
    6    9    1     -1.22     -0.42
    7    9    1     -2.74      1.15
    8    9    1     -1.16      1.58
    9    9    1      2.47     -2.80
    0   10    1      0.27      1.11
    1   10    1     -1.13     -0.68
    2   10    1     -1.98      0.52
    3   10    1      1.10     -1.23
    4   10    1      0.84      1.59
    5   10    1      0.54     -0.20
    6   10    1      2.36     -1.16
    7   10    1     -0.42      0.19
    8   10    1      0.52      1.15
    9   10    1      0.35     -1.14
   10   10    1     -0.32      0.15
    0   11    1     -0.03     -7.34
    1   11    1      1.12      3.02
    2   11    1     -1.37      3.56
    3   11    1      1.24     -3.69
    4   11    1      0.22     -1.06
    5   11    1     -1.51      3.99
    6   11    1     -2.12     -1.92
    7   11    1      3.36     -1.57
    8   11    1      1.48      0.60
    9   11    1     -2.69      0.40
   10   11    1     -0.19      0.92
   11   11    1      1.04     -1.11
    0   12    1      0.16      2.47
    1   12    1      1.85     -2.99
    2   12    1      2.38      1.05
    3   12    1     -2.97      1.80
    4   12    1     -1.25     -2.72
    5   12    1      0.86      1.95
    6   12    1      1.03      0.45
    7   12    1     -1.63     -1.33
    8   12    1     -1.96      0.56
    9   12    1      1.87     -0.24
   10   12    1     -0.01      0.85
    0   13    1     -0.15      2.03
    1   13    1     -0.88      0.07
    2   13    1      0.01     -2.23
    3   13    1      1.07      1.06
    4   13    1      1.05      2.22
    5   13    1      0.10     -2.96
    6   13    1      0.22      0.25
    7   13    1     -0.20      1.50
    8   13    1     -1.11     -1.00
    9   13    1      0.47      0.89
    0   14    1     -0.20      0.11
    1   14    1     -1.87      0.49
    2   14    1     -0.57     -1.05
    3   14    1      0.47      0.64
    4   14    1      0.68      0.33
    5   14    1     -0.27     -1.36
    6   14    1     -0.30      0.90
    7   14    1      0.40      0.72
    0   15    1     -0.10     -0.95
    1   15    1      0.99      0.35
    2   15    1     -0.20      0.56
    3   15    1      0.36     -0.73
    4   15    1     -0.91     -0.09
    5   15    1      0.14      0.00
    0   16    1     -0.07      1.00
    0    1    2     30.14     -0.09
    1    1    2      0.03     56.46
    0    2    2      7.98     -0.91
    1    2    2     14.48    -35.98
    2    2    2     -1.23      2.66
    0    3    2    -51.81      1.14
    1    3    2      4.55    -10.93
    2    3    2     29.03     22.93
    3    3    2     -2.95    -15.59
    0    4    2    -11.76      0.42
    1    4    2      3.78     10.01
    2    4    2      0.55     -8.02
    3    4    2      1.99     -1.77
    4    4    2     -0.54      6.02
    0    5    2     35.89     -0.12
    1    5    2     -7.52      8.43
    2    5    2    -14.96     -5.19
    3    5    2      5.89      2.13
    4    5    2     -1.03     -0.30
    5    5    2     -0.41     -1.15
    0    6    2      4.11     -0.73
    1    6    2     -6.21     -7.63
    2    6    2     -2.91      3.42
    3    6    2      6.71      5.29
    4    6    2      4.29     -5.20
    5    6    2     -4.45      0.74
    6    6    2     -0.53      2.05
    0    7    2    -11.02      0.07
    1    7    2      0.24      0.10
    2    7    2      4.17     -0.41
    3    7    2      1.91     -1.34
    4    7    2     -1.44      1.40
    5    7    2     -1.96     -1.00
    6    7    2     -0.28     -1.89
    7    7    2     -0.03      3.10
    0    8    2      1.56      0.10
    1    8    2      5.05      3.43
    2    8    2      0.99     -0.46
    3    8    2     -8.13     -2.98
    4    8    2     -0.70      2.46
    5    8    2      3.36     -0.36
    6    8    2      1.60     -0.35
    7    8    2      0.16      0.16
    8    8    2      0.12      0.98
    0    9    2     -2.19     -0.19
    1    9    2      3.03     -1.42
    2    9    2     -1.32      1.78
    3    9    2     -1.58     -0.23
    4    9    2      1.54     -1.80
    5    9    2      2.11      1.02
    6    9    2     -0.67      0.68
    7    9    2     -2.31     -0.45
    8    9    2      0.94     -0.79
    9    9    2     -0.14      0.87
    0   10    2     -4.24      0.06
    1   10    2     -1.09     -1.29
    2   10    2      2.18     -0.61
    3   10    2     -0.60      1.78
    4   10    2      1.59     -0.49
    5   10    2      0.73     -0.02
    6   10    2     -5.10      0.83
    7   10    2     -0.18     -1.00
    8   10    2      2.53     -0.09
    9   10    2      1.38      0.26
   10   10    2      0.11     -0.27
    0   11    2      0.34      0.87
    1   11    2      0.47      1.81
    2   11    2      1.48     -0.15
    3   11    2     -0.56     -2.61
    4   11    2     -2.87      2.90
    5   11    2     -0.28     -0.62
    6   11    2      1.50     -1.54
    7   11    2      1.11      1.82
    8   11    2      0.09     -0.31
    9   11    2     -0.46     -1.29
   10   11    2     -0.52      0.56
   11   11    2     -0.03     -0.32
    0   12    2      2.05     -0.16
    1   12    2     -1.49     -2.93
    2   12    2      0.67     -0.41
    3   12    2      2.53      2.04
    4   12    2     -3.22     -1.61
    5   12    2     -0.20      0.18
    6   12    2      3.38      0.92
    7   12    2     -0.60     -0.40
    8   12    2     -0.48     -1.02
    9   12    2     -0.75      0.43
   10   12    2     -0.60      0.00
    0   13    2      2.50     -1.01
    1   13    2     -2.60      0.51
    2   13    2     -1.27      0.98
    3   13    2      0.88     -0.73
    4   13    2      2.82      0.11
    5   13    2     -0.95      0.49
    6   13    2     -0.45      0.44
    7   13    2      0.02     -0.96
    8   13    2     -0.81     -0.04
    9   13    2      0.09      0.80
    0   14    2     -0.82      0.11
    1   14    2      0.55      1.99
    2   14    2      0.12     -1.35
    3   14    2     -0.23      0.55
    4   14    2     -0.59      0.18
    5   14    2     -0.19      0.01
    6   14    2      0.23     -0.54
    7   14    2      0.00     -0.57
    0   15    2     -2.20      0.47
    1   15    2      1.90      0.34
    2   15    2      0.55     -0.11
    3   15    2     -1.67      0.08
    4   15    2      0.89     -0.06
    5   15    2      1.14     -0.40
    0    1    3      0.45     19.95
    1    1    3     -8.72     -7.80
    0    2    3     -0.73      5.34
    1    2    3     -5.73      1.62
    2    2    3     -3.22     -3.22
    0    3    3     -0.03    -22.36
    1    3    3      7.35      1.02
    2    3    3     -6.05     13.27
    3    3    3      2.64      1.57
    0    4    3      0.22     -1.95
    1    4    3      0.22      5.09
    2    4    3      6.62     -3.52
    3    4    3     -4.79     -3.85
    4    4    3      1.08      0.49
    0    5    3      0.04      9.98
    1    5    3     -6.71     -4.22
    2    5    3      0.97     -3.19
    3    5    3     -4.17      2.21
    4    5    3      6.59     -1.57
    5    5    3      5.08      4.98
    0    6    3     -0.16    -10.42
    1    6    3      2.79      1.22
    2    6    3     -4.13      7.09
    3    6    3      3.81     -2.34
    4    6    3     -3.45      0.06
    5    6    3     -2.08     -0.70
    6    6    3     -2.26     -2.36
    0    7    3      0.51      1.83
    1    7    3      2.30      0.88
    2    7    3      0.72     -0.88
    3    7    3     -0.77      0.61
    4    7    3     -2.05     -2.23
    5    7    3     -1.73     -2.17
    6    7    3      0.45      4.39
    7    7    3      0.57      0.25
    0    8    3      0.03      1.97
    1    8    3     -2.31      0.87
    2    8    3     -0.18     -3.21
    3    8    3      0.83      0.27
    4    8    3      0.67      1.64
    5    8    3      1.95     -3.10
    6    8    3      3.85      4.41
    7    8    3     -4.01     -0.81
    8    8    3     -2.28     -2.39
    0    9    3     -0.59      4.52
    1    9    3     -0.78     -2.52
    2    9    3     -0.15     -0.59
    3    9    3      1.53      0.87
    4    9    3      0.45      0.59
    5    9    3     -0.38      1.21
    6    9    3     -1.67     -3.58
    7    9    3      2.28      0.46
    8    9    3      1.90      2.59
    9    9    3     -2.50     -2.19
    0   10    3     -0.41     -1.62
    1   10    3      2.12      0.17
    2   10    3      1.58      0.60
    3   10    3     -0.31     -0.08
    4   10    3     -1.32     -0.30
    5   10    3     -1.32      0.65
    6   10    3     -0.55     -0.94
    7   10    3     -1.01      0.98
    8   10    3      0.93      0.28
    9   10    3      1.17     -1.09
   10   10    3     -0.71     -0.55
    0   11    3      0.18     -4.54
    1   11    3      0.67      1.22
    2   11    3      0.15      3.58
    3   11    3     -1.05     -3.03
    4   11    3      1.58     -1.56
    5   11    3     -0.91      2.95
    6   11    3     -0.11      0.49
    7   11    3     -0.02     -1.64
    8   11    3     -0.92      0.55
    9   11    3      0.25      1.13
   10   11    3      1.56     -1.78
   11   11    3     -0.46      0.06
    0   12    3      0.35     -0.06
    1   12    3     -1.57      1.15
    2   12    3     -1.62     -0.73
    3   12    3      0.89     -0.74
    4   12    3      0.51      1.72
    5   12    3      0.97     -0.26
    6   12    3     -0.55     -1.18
    7   12    3      1.03     -0.68
    8   12    3      0.58      0.13
    9   12    3     -0.55      0.76
   10   12    3     -0.31     -0.30
    0   13    3      0.13      2.76
    1   13    3     -0.56     -2.10
    2   13    3      1.99     -1.58
    3   13    3     -2.12      3.24
    4   13    3     -1.03     -0.62
    5   13    3      0.77     -1.39
    6   13    3      0.09      0.10
    7   13    3      1.28      1.00
    8   13    3     -1.30      0.42
    0   14    3     -0.05     -0.99
    1   14    3     -0.01      0.78
    2   14    3      0.47      0.36
    3   14    3     -0.10     -1.07
    4   14    3     -0.28     -0.29
    5   14    3     -0.48     -0.32
    6   14    3      1.23      1.27
    7   14    3     -1.04      1.28
    0   15    3     -0.20      1.37
    1   15    3     -0.03     -0.05
    2   15    3     -2.00     -0.85
    3   15    3      2.02      0.25
    4   15    3      0.39      0.09
    0    0    4     30.25      0.34
    0    1    4     19.47     -1.07
    1    1    4    -14.64      0.17
    0    2    4    -37.25      0.57
    1    2    4     -4.70      4.18
    2    2    4     27.44     -0.94
    0    3    4     -1.14      0.02
    1    3    4     13.31     -2.99
    2    3    4     -0.54     -3.24
    3    3    4    -17.71     -0.13
    0    4    4      0.58      0.07
    1    4    4      4.54     -2.55
    2    4    4     -4.35      4.10
    3    4    4     -7.31     -2.19
    4    4    4     12.31      0.19
    0    5    4     -3.64      1.36
    1    5    4    -10.63     -1.15
    2    5    4      2.62      2.19
    3    5    4     17.58     -2.99
    4    5    4     -2.27     -0.13
    5    5    4     -9.43     -0.02
    0    6    4     11.91      0.68
    1    6    4     -1.08     -0.29
    2    6    4     -4.04     -1.67
    3    6    4      1.38      3.09
    4    6    4     -4.45     -0.59
    5    6    4     -1.49     -1.80
    6    6    4      6.04      0.13
    0    7    4     11.16     -3.79
    1    7    4      0.39      5.84
    2    7    4     -4.64     -2.53
    3    7    4     -2.01      0.71
    4    7    4      0.03      0.58
    5    7    4      2.47      0.67
    6    7    4      1.47     -1.71
    7    7    4     -0.36     -0.32
    0    8    4    -10.74      0.21
    1    8    4      0.49     -1.16
    2    8    4      3.22      0.11
    3    8    4      0.32      0.55
    4    8    4      3.76      0.18
    5    8    4     -1.11     -1.16
    6    8    4     -4.52      1.00
    7    8    4     -0.97     -0.67
    8    8    4      1.36     -0.30
    0    9    4     -5.77      0.61
    1    9    4      2.40     -2.57
    2    9    4      2.59      3.27
    3    9    4     -3.46      0.14
    4    9    4     -0.15     -1.94
    5    9    4      1.29      0.10
    6    9    4     -1.03      0.30
    7    9    4     -0.26      1.05
    8    9    4      2.79     -0.86
    9    9    4     -1.12     -0.01
    0   10    4     -3.33      3.06
    1   10    4      3.38      1.66
    2   10    4      1.54     -1.26
    3   10    4     -4.56     -3.95
    4   10    4     -1.72      3.32
    5   10    4      4.36      1.19
    6   10    4      1.05     -2.55
    7   10    4     -0.60      0.84
    8   10    4      0.00     -0.06
    9   10    4     -0.80      0.12
   10   10    4     -0.83      0.08
    0   11    4      5.63     -1.97
    1   11    4     -3.26      0.39
    2   11    4     -2.64     -0.99
    3   11    4      3.70      1.24
    4   11    4      1.88     -0.89
    5   11    4     -0.92     -0.57
    6   11    4     -1.72      2.46
    7   11    4     -0.79     -1.42
    8   11    4      1.00     -0.02
    9   11    4     -0.08      0.28
   10   11    4     -0.22     -0.10
   11   11    4     -0.42      0.22
    0   12    4      0.24     -0.12
    1   12    4     -1.77     -5.46
    2   12    4      0.42      3.85
    3   12    4      3.98      1.75
    4   12    4     -3.41     -1.52
    5   12    4     -1.86     -0.16
    6   12    4      2.24     -0.23
    7   12    4     -0.58      1.46
    8   12    4     -0.81     -0.40
    9   12    4      0.84     -1.27
    0   13    4     -1.65      0.32
    1   13    4      0.92      3.17
    2   13    4      2.01     -2.61
    3   13    4     -1.98     -0.38
    4   13    4      0.72      0.76
    5   13    4     -2.94      0.28
    6   13    4      1.38     -0.57
    7   13    4      2.68     -1.18
    8   13    4     -0.96      0.72
    0   14    4      1.31     -0.21
    1   14    4      0.28      3.67
    2   14    4     -0.83     -2.44
    3   14    4     -0.71     -1.27
    4   14    4      0.19      0.73
    5   14    4      2.17      0.19
    6   14    4     -0.73      0.79
    0   15    4     -0.70     -0.11
    1   15    4      0.06     -1.58
    2   15    4      0.32      1.01
    3   15    4     -1.30      0.29
    4   15    4      0.25     -0.33
    0    1    5      0.45     -4.85
    1    1    5      5.49     -6.06
    0    2    5      0.11      7.36
    1    2    5     -7.30     -3.53
    2    2    5      5.41     -6.24
    0    3    5     -0.28      4.67
    1    3    5     -5.40      2.82
    2    3    5     -4.42     -3.07
    3    3    5      3.99     -3.69
    0    4    5     -0.93    -11.81
    1    4    5      4.11      4.27
    2    4    5     -4.40      5.10
    3    4    5     -1.10     -5.07
    4    4    5      0.27     -0.29
    0    5    5     -0.92     -1.66
    1    5    5      4.58     -1.67
    2    5    5      1.10      4.53
    3    5    5     -0.50      0.05
    4    5    5     -4.45     -2.64
    5    5    5     -1.41      1.25
    0    6    5      4.46      3.65
    1    6    5     -4.99     -0.03
    2    6    5      4.42     -1.93
    3    6    5     -3.30     -0.49
    4    6    5      2.19     -0.57
    5    6    5      3.55     -0.50
    6    6    5     -2.47      2.55
    0    7    5     -1.88     -0.58
    1    7    5     -1.23      0.18
    2    7    5     -1.12     -1.12
    3    7    5      1.41      1.64
    4    7    5      2.75     -0.55
    5    7    5     -1.08      1.07
    6    7    5     -1.66     -0.32
    7    7    5      3.14     -2.97
    0    8    5     -1.70     -0.26
    1    8    5      2.18     -1.10
    2    8    5      0.10      0.86
    3    8    5      1.73      0.93
    4    8    5     -3.02      1.16
    5    8    5     -2.06     -2.99
    6    8    5      1.98      1.86
    7    8    5     -2.27      0.47
    8    8    5      2.32     -2.11
    0    9    5      0.30      1.78
    1    9    5      1.24     -0.30
    2    9    5     -1.42     -2.20
    3    9    5      1.38      1.67
    4    9    5     -1.51      0.21
    5    9    5     -0.35     -1.71
    6    9    5      2.40      1.67
    7    9    5     -3.06      1.46
    8    9    5     -0.25     -1.74
    9    9    5      1.39     -1.67
    0   10    5      0.10     -0.11
    1   10    5     -1.27      1.15
    2   10    5     -0.94      0.18
    3   10    5     -1.11     -2.07
    4   10    5      1.77     -0.31
    5   10    5      0.74      3.32
    6   10    5     -0.98     -2.14
    7   10    5      2.51     -1.18
    8   10    5     -1.04      2.63
    9   10    5     -1.92     -0.71
   10   10    5      2.06     -2.09
    0   11    5     -0.26     -2.85
    1   11    5     -1.15      0.57
    2   11    5      1.35      2.18
    3   11    5     -0.41     -1.89
    4   11    5      1.31      0.82
    5   11    5     -0.50      0.39
    6   11    5     -2.17     -1.58
    7   11    5      1.93     -0.84
    8   11    5      1.03      1.57
    9   11    5     -0.56      0.62
   10   11    5     -0.95     -0.62
    0   12    5      0.75     -1.91
    1   12    5      1.01      0.42
    2   12    5      0.98      0.34
    3   12    5     -0.67      0.28
    4   12    5     -0.79     -0.60
    5   12    5      0.15     -0.03
    6   12    5      1.12     -0.16
    7   12    5     -1.99      1.14
    8   12    5     -0.39     -0.02
    9   12    5      1.39     -0.03
    0   13    5     -0.04      1.05
    1   13    5     -0.78      0.01
    2   13    5     -0.39     -0.29
    3   13    5      0.86      0.13
    4   13    5     -0.04     -0.45
    5   13    5     -0.34     -0.20
    6   13    5      0.30      1.54
    7   13    5      0.14     -0.02
    8   13    5     -0.73     -2.26
    0   14    5     -0.03      2.49
    1   14    5      0.50     -0.69
    2   14    5      0.18     -0.94
    3   14    5     -0.53      0.62
    4   14    5     -0.25      0.04
    5   14    5      0.71      0.12
    6   14    5     -0.19      0.04
    0   15    5     -0.22      0.42
    1   15    5     -0.81     -0.41
    2   15    5      0.49     -0.00
    3   15    5      0.38     -0.42
    0    1    6     11.97     -0.19
    1    1    6     -0.15      7.42
    0    2    6      1.83     -0.37
    1    2    6      6.98      1.45
    2    2    6     -0.23     -6.38
    0    3    6    -23.17      0.62
    1    3    6      1.89     -7.29
    2    3    6     10.46      0.22
    3    3    6      0.09      7.57
    0    4    6     -0.00      0.73
    1    4    6     -2.33     -2.75
    2    4    6      3.68      3.27
    3    4    6     -2.20     -1.62
    4    4    6     -0.03     -1.45
    0    5    6     13.71      0.12
    1    5    6      1.55      2.56
    2    5    6     -7.55      2.08
    3    5    6     -0.45     -3.41
    4    5    6     -2.28      0.39
    5    5    6     -0.07      1.90
    0    6    6     -3.03     -1.24
    1    6    6     -2.53      0.39
    2    6    6     -1.34     -0.27
    3    6    6      8.43     -0.37
    4    6    6      0.68      1.59
    5    6    6     -4.39     -0.02
    6    6    6      0.04     -2.91
    0    7    6      1.48     -0.20
    1    7    6     -3.48      3.22
    2    7    6      1.22     -1.69
    3    7    6      0.46      1.52
    4    7    6      2.04     -0.66
    5    7    6     -2.32     -2.81
    6    7    6      0.16      2.70
    7    7    6     -0.08     -0.45
    0    8    6      4.39      0.07
    1    8    6      2.19     -0.55
    2    8    6     -2.22     -0.66
    3    8    6     -3.28      1.45
    4    8    6     -1.27     -0.90
    5    8    6      2.14      0.02
    6    8    6      1.06     -0.37
    7    8    6      1.41      0.32
    8    8    6     -0.20      0.85
    0    9    6     -3.65     -0.04
    1    9    6      1.16     -0.21
    2    9    6      2.20     -0.69
    3    9    6     -2.12     -1.78
    4    9    6      0.79      0.96
    5    9    6      2.42      2.84
    6    9    6     -2.68     -1.80
    7    9    6     -1.21     -0.71
    8    9    6      2.22      0.51
    9    9    6     -0.23     -0.05
    0   10    6     -7.03      0.03
    1   10    6      1.43     -1.38
    2   10    6      3.88      1.15
    3   10    6     -1.84     -0.52
    4   10    6     -0.11      1.23
    5   10    6      0.89     -1.81
    6   10    6     -1.02      1.03
    7   10    6     -1.17      1.05
    8   10    6     -0.24     -1.17
    9   10    6      0.83     -0.23
   10   10    6     -0.16      1.00
    0   11    6      4.91      1.39
    1   11    6     -0.71     -3.23
    2   11    6     -4.10      1.73
    3   11    6      2.08      2.13
    4   11    6      0.51     -1.70
    5   11    6     -1.13     -1.14
    6   11    6      0.56      0.64
    7   11    6      0.54      0.48
    8   11    6      0.53     -0.64
    9   11    6     -0.10      0.15
   10   11    6     -0.66     -0.65
    0   12    6      2.46     -0.38
    1   12    6     -1.37      2.72
    2   12    6     -0.74     -1.32
    3   12    6      2.20     -1.36
    4   12    6     -0.91     -0.06
    5   12    6     -1.23      1.62
    6   12    6      1.72      0.10
    7   12    6     -0.23     -1.94
    8   12    6      0.38      0.22
    0   13    6     -3.90     -0.78
    1   13    6     -0.54      1.68
    2   13    6      3.43     -1.29
    3   13    6     -0.05     -0.66
    4   13    6     -1.43      0.68
    5   13    6      0.79      0.95
    6   13    6     -0.41     -0.41
    7   13    6     -0.03      0.41
    0   14    6     -0.81      0.29
    1   14    6      1.54      0.29
    2   14    6     -1.17      0.59
    3   14    6     -0.67      0.15
    4   14    6      0.40      0.25
    5   14    6     -0.60     -0.57
    0    1    7      0.33     13.88
    1    1    7     -1.26     -1.06
    0    2    7      0.05      3.52
    1    2    7     -8.57     -0.98
    2    2    7     -3.78     -3.60
    0    3    7      0.13     -6.81
    1    3    7      1.84     -0.98
    2    3    7      4.43      6.04
    3    3    7     -0.45     -0.39
    0    4    7     -0.13     -0.32
    1    4    7      2.61      1.02
    2    4    7      0.32      1.64
    3    4    7     -0.65     -3.14
    4    4    7     -3.38     -3.43
    0    5    7     -0.38     -3.29
    1    5    7     -1.49      3.53
    2    5    7     -4.26     -0.28
    3    5    7     -0.02     -6.04
    4    5    7      5.07      4.82
    5    5    7      2.38      2.08
    0    6    7      0.19     -0.61
    1    6    7     -0.59     -2.20
    2    6    7      1.41      0.53
    3    6    7     -1.05      4.08
    4    6    7      0.18      0.43
    5    6    7     -2.97     -2.88
    6    6    7      0.17     -0.04
    0    7    7      0.40      0.09
    1    7    7      0.04     -0.57
    2    7    7      2.97      0.91
    3    7    7      0.29      1.32
    4    7    7     -2.90     -3.77
    5    7    7     -0.44      0.24
    6    7    7      0.50      3.16
    7    7    7     -0.24     -0.39
    0    8    7      0.23      6.69
    1    8    7     -0.36     -2.05
    2    8    7     -1.51     -2.96
    3    8    7     -1.09      1.83
    4    8    7      2.88     -0.61
    5    8    7      1.50      0.55
    6    8    7     -0.71      0.06
    7    8    7     -1.49     -0.70
    8    8    7      0.57      0.44
    0    9    7     -0.52     -0.81
    1    9    7     -0.47      1.70
    2    9    7     -0.11     -1.51
    3    9    7      2.85     -1.30
    4    9    7     -2.98      4.41
    5    9    7      0.49     -3.43
    6    9    7      0.67     -0.87
    7    9    7      0.18      2.74
    8    9    7     -0.40     -2.01
    9    9    7      0.91      0.89
    0   10    7     -0.42     -4.77
    1   10    7      1.11      0.72
    2   10    7      0.24      3.07
    3   10    7     -0.00     -0.32
    4   10    7      1.29     -2.63
    5   10    7     -2.41      1.44
    6   10    7      0.12      0.85
    7   10    7      0.11     -1.60
    8   10    7      0.88      0.94
    9   10    7      0.43      0.36
   10   10    7     -1.21     -1.06
    0   11    7      0.28     -0.48
    1   11    7      0.53      0.47
    2   11    7      0.36      1.04
    3   11    7     -1.79     -2.19
    4   11    7     -0.30     -0.42
    5   11    7      1.02      2.82
    6   11    7      0.14     -1.27
    7   11    7     -0.14     -0.94
    8   11    7     -0.18      2.43
    9   11    7     -0.88     -1.70
    0   12    7      0.05      1.36
    1   12    7     -2.26     -0.22
    2   12    7     -0.39     -1.72
    3   12    7      0.65      0.99
    4   12    7      0.62      1.23
    5   12    7     -0.37      0.29
    6   12    7     -0.35     -1.06
    7   12    7      0.92     -0.98
    8   12    7     -0.24      0.29
    0   13    7     -0.18     -0.67
    1   13    7      0.35      0.94
    2   13    7     -0.74     -0.63
    3   13    7      0.90      0.31
    4   13    7      0.17      0.09
    5   13    7      0.00     -1.89
    6   13    7      0.26      0.31
    0   14    7      0.39      0.44
    1   14    7      1.64     -0.43
    2   14    7      0.19      0.70
    3   14    7     -1.60     -0.40
    4   14    7      0.22     -1.02
    0    0    8     19.40      0.10
    0    1    8     -0.61     -0.17
    1    1    8     -2.51     -0.27
    0    2    8    -12.43     -0.06
    1    2    8      0.26      3.51
    2    2    8      6.55     -0.15
    0    3    8      2.54      0.25
    1    3    8      4.78     -4.17
    2    3    8     -0.36      2.97
    3    3    8     -9.68      0.31
    0    4    8     -0.49      0.21
    1    4    8     -0.15     -1.34
    2    4    8      1.10      0.01
    3    4    8     -0.10      1.27
    4    4    8     -0.90      0.48
    0    5    8     -5.73      0.04
    1    5    8     -2.13      0.46
    2    5    8      2.82      0.09
    3    5    8      4.14     -0.80
    4    5    8     -0.22      0.96
    5    5    8      0.33     -0.21
    0    6    8      8.40     -0.52
    1    6    8     -0.38      0.04
    2    6    8     -4.60     -0.74
    3    6    8      1.30      0.84
    4    6    8     -1.01     -1.29
    5    6    8     -2.83      0.95
    6    6    8      4.47      0.07
    0    7    8      5.81     -0.07
    1    7    8     -0.38      0.66
    2    7    8     -4.42      0.19
    3    7    8      1.59     -1.66
    4    7    8      2.14      1.23
    5    7    8     -3.78      0.96
    6    7    8      1.73     -0.03
    7    7    8      3.01     -0.24
    0    8    8     -6.57     -0.17
    1    8    8     -0.17      1.90
    2    8    8      3.28     -1.64
    3    8    8      0.81     -0.03
    4    8    8     -0.16      0.92
    5    8    8      2.05     -0.36
    6    8    8     -2.52     -1.41
    7    8    8     -2.64      2.07
    8    8    8      2.86     -0.14
    0    9    8     -0.87      0.73
    1    9    8     -1.22     -0.24
    2    9    8      4.09      1.71
    3    9    8     -4.06      0.36
    4    9    8     -0.58     -1.09
    5    9    8      3.19     -1.23
    6    9    8     -1.61      0.10
    7    9    8      0.79      0.24
    8    9    8     -0.32      1.14
    9    9    8     -1.73      0.07
    0   10    8      1.27     -0.46
    1   10    8      2.22      0.24
    2   10    8     -2.73     -1.34
    3   10    8     -1.66      2.05
    4   10    8      1.06     -1.19
    5   10    8      0.26     -0.28
    6   10    8      0.63      1.33
    7   10    8      0.01     -1.70
    8   10    8     -0.46      0.63
    9   10    8      1.08      0.49
    0   11    8     -2.14      0.12
    1   11    8      0.78     -4.17
    2   11    8     -0.81      2.15
    3   11    8      2.61     -1.03
    4   11    8      0.41      0.88
    5   11    8     -2.34      0.09
    6   11    8      0.82      0.58
    7   11    8     -1.21      0.35
    8   11    8     -0.17     -1.45
    0   12    8      1.32     -0.17
    1   12    8     -2.17      2.70
    2   12    8      1.91     -2.34
    3   12    8      0.65     -0.49
    4   12    8     -1.45      0.39
    5   12    8      0.96      1.65
    6   12    8     -0.89     -1.10
    7   12    8     -0.07     -0.12
    0   13    8      2.09      0.08
    1   13    8      0.46      2.06
    2   13    8     -2.48      0.33
    3   13    8      0.70     -0.88
    4   13    8     -0.71      0.63
    5   13    8      0.19     -0.64
    0   14    8     -0.03      0.08
    1   14    8     -0.27     -0.54
    0    1    9      1.85      5.23
    1    1    9      4.98     -7.34
    0    2    9      0.02      3.00
    1    2    9     -0.23      0.37
    2    2    9      2.01     -2.83
    0    3    9     -0.44      2.39
    1    3    9     -4.97      1.10
    2    3    9     -2.43     -2.20
    3    3    9      2.97     -2.97
    0    4    9     -0.77     -4.45
    1    4    9      0.21      0.61
    2    4    9      1.58      3.26
    3    4    9     -2.89     -2.14
    4    4    9     -0.71      0.99
    0    5    9      0.42     -4.96
    1    5    9      3.80      1.43
    2    5    9      2.47      2.39
    3    5    9     -0.94      0.08
    4    5    9     -1.38     -2.90
    5    5    9     -2.42      2.10
    0    6    9      0.33      1.09
    1    6    9     -1.01      1.59
    2    6    9     -2.66     -0.76
    3    6    9      1.39     -2.84
    4    6    9      1.85      0.50
    5    6    9      0.00      0.24
    6    6    9     -0.05      0.31
    0    7    9      0.21      4.17
    1    7    9     -2.67     -3.39
    2    7    9      0.69     -1.65
    3    7    9     -0.63      3.35
    4    7    9      0.24      0.40
    5    7    9      1.31     -1.15
    6    7    9     -0.38      0.42
    7    7    9     -0.47      0.64
    0    8    9     -0.02      1.64
    1    8    9      0.77     -0.84
    2    8    9      0.61     -1.49
    3    8    9      0.15      2.31
    4    8    9     -0.29      0.19
    5    8    9     -1.23     -0.70
    6    8    9     -0.64     -0.05
    7    8    9      0.91      0.12
    8    8    9      1.51     -1.76
    0    9    9      0.27     -1.64
    1    9    9     -1.52      0.95
    2    9    9      0.44      1.09
    3    9    9      0.10     -1.35
    4    9    9     -0.54      0.04
    5    9    9      1.28     -0.56
    6    9    9     -0.37      1.23
    7    9    9     -0.34     -0.24
    8    9    9     -1.23     -0.65
    9    9    9      0.36     -0.25
    0   10    9     -0.38     -0.55
    1   10    9      1.65      0.63
    2   10    9     -1.38     -0.13
    3   10    9      0.80     -0.82
    4   10    9     -0.93      0.48
    5   10    9     -0.28      0.64
    6   10    9      1.59     -0.58
    7   10    9     -0.29     -0.31
    8   10    9     -0.80      0.44
    9   10    9      0.12     -0.38
    0   11    9     -0.11     -0.67
    1   11    9     -0.14      0.56
    2   11    9      0.55      0.46
    3   11    9     -0.31     -0.92
    4   11    9      0.90     -0.46
    5   11    9     -0.45      1.52
    6   11    9     -0.29     -1.00
    7   11    9      0.62     -0.75
    0   12    9     -0.00     -1.11
    1   12    9      0.40      0.43
    2   12    9     -0.24      0.52
    3   12    9     -0.41      0.03
    4   12    9      0.85     -0.09
    5   12    9      0.36     -0.88
    6   12    9     -0.81     -0.69
    0   13    9      0.21      1.96
    1   13    9     -0.29     -0.40
    2   13    9      0.01     -1.63
    3   13    9      0.19      0.64
    0    1   10      1.98      0.21
    1    1   10     -0.35     -2.67
    0    2   10      2.53      0.34
    1    2   10      1.80      3.95
    2    2   10     -0.11     -4.63
    0    3   10     -6.65     -0.53
    1    3   10     -1.45     -4.05
    2    3   10      4.96      1.23
    3    3   10     -0.03      2.68
    0    4   10     -4.09      0.36
    1    4   10      1.77     -1.86
    2    4   10      2.60      2.77
    3    4   10     -2.49     -1.46
    4    4   10     -0.75     -0.25
    0    5   10      6.02     -0.15
    1    5   10     -0.16      3.97
    2    5   10     -3.79      0.13
    3    5   10      0.39     -2.36
    4    5   10      0.25     -1.46
    5    5   10     -1.97      4.60
    0    6   10      0.27      0.17
    1    6   10     -1.64     -2.46
    2    6   10     -0.45     -0.84
    3    6   10      3.79      2.64
    4    6   10     -0.58      0.65
    5    6   10     -1.58     -1.59
    6    6   10      0.01      0.88
    0    7   10      0.66      0.11
    1    7   10     -1.15     -0.39
    2    7   10      0.11     -1.35
    3    7   10      1.45     -0.10
    4    7   10     -0.00      1.87
    5    7   10     -0.75     -2.40
    6    7   10     -0.05     -1.35
    7    7   10     -0.11      2.40
    0    8   10      0.96     -0.43
    1    8   10      2.08      3.45
    2    8   10     -1.52     -0.09
    3    8   10     -2.74     -2.19
    4    8   10      0.86      0.18
    5    8   10     -0.09      2.01
    6    8   10      0.20     -1.04
    7    8   10      1.39      0.46
    8    8   10     -0.47     -0.22
    0    9   10     -2.17      0.07
    1    9   10     -0.22     -0.43
    2    9   10      2.01      0.22
    3    9   10      0.11      0.75
    4    9   10     -1.21     -1.04
    5    9   10      1.56      0.91
    6    9   10     -1.55      0.56
    7    9   10      0.18     -0.06
    8    9   10      0.56     -0.91
    9    9   10     -0.30      0.03
    0   10   10      0.03      0.13
    1   10   10     -0.78     -1.73
    2   10   10      0.35     -0.78
    3   10   10     -0.30      1.46
    4   10   10      1.15     -0.25
    5   10   10      0.24     -0.43
    6   10   10      0.74      0.60
    7   10   10     -1.86     -0.55
    8   10   10     -0.01      0.89
    0   11   10     -0.39     -0.51
    1   11   10      0.90      0.58
    2   11   10     -0.50      1.71
    3   11   10     -1.19     -0.32
    4   11   10      0.14     -0.92
    5   11   10      0.86     -1.34
    6   11   10      0.64      1.10
    0   12   10      1.85      0.23
    1   12   10     -0.05      0.26
    2   12   10     -1.52     -0.11
    3   12   10      0.79     -0.93
    4   12   10     -0.21      1.18
    0    1   11      0.35      8.82
    1    1   11     -2.39     -1.46
    0    2   11      0.98      0.79
    1    2   11     -3.87     -1.99
    2    2   11      0.55      0.47
    0    3   11      0.22      0.25
    1    3   11      2.22      0.17
    2    3   11      1.78     -0.24
    3    3   11      0.22      0.03
    0    4   11      0.20     -0.67
    1    4   11     -1.04      1.94
    2    4   11     -0.53     -0.37
    3    4   11      2.03     -2.71
    4    4   11      0.45      1.09
    0    5   11     -1.83     -5.48
    1    5   11     -1.13      0.68
    2    5   11     -2.04      2.82
    3    5   11     -0.60     -1.29
    4    5   11      0.55     -1.69
    5    5   11      3.25      3.16
    0    6   11     -1.38     -2.71
    1    6   11      2.10     -0.03
    2    6   11      2.69      1.16
    3    6   11     -2.15      0.52
    4    6   11     -0.37      0.81
    5    6   11      0.14     -0.28
    6    6   11     -1.11     -1.43
    0    7   11      5.37      8.49
    1    7   11     -1.58     -0.82
    2    7   11     -0.63     -3.66
    3    7   11      1.73      0.71
    4    7   11      1.04     -0.03
    5    7   11     -3.02     -0.75
    6    7   11      0.74      1.09
    7    7   11     -0.25     -0.41
    0    8   11     -1.89      0.81
    1    8   11     -0.98     -0.06
    2    8   11     -0.07     -1.52
    3    8   11      0.10      1.04
    4    8   11     -0.19     -0.32
    5    8   11      1.17     -0.79
    6    8   11      0.38      1.11
    7    8   11     -1.14      0.45
    8    8   11     -1.05     -1.33
    0    9   11     -0.97     -1.27
    1    9   11      0.36     -1.00
    2    9   11      0.21      0.92
    3    9   11     -0.14      0.59
    4    9   11     -0.26      0.71
    5    9   11      0.74     -0.45
    6    9   11     -0.82      0.10
    7    9   11     -0.02      0.45
    8    9   11      1.29     -0.31
    0   10   11      0.21     -2.48
    1   10   11      0.25      1.30
    2   10   11      0.14      1.15
    3   10   11     -0.01     -1.29
    4   10   11     -0.90     -0.58
    5   10   11      0.05      1.21
    6   10   11      0.99      0.10
    0   11   11      0.23      0.16
    1   11   11      0.01      0.13
    2   11   11     -0.85     -0.10
    3   11   11      0.20     -0.27
    4   11   11      0.00      0.44
    5   11   11      0.30      0.12
    0   12   11     -0.28     -0.31
    1   12   11      0.69      0.14
    0    0   12      5.14     -0.04
    0    1   12     -0.97      0.59
    1    1   12     -0.25     -0.36
    0    2   12     -3.17     -0.02
    1    2   12     -0.28     -1.28
    2    2   12      1.98     -0.20
    0    3   12      1.89     -0.21
    1    3   12      1.46      0.59
    2    3   12     -0.25      0.87
    3    3   12     -3.51     -0.00
    0    4   12     -2.14     -0.18
    1    4   12      0.37     -0.24
    2    4   12      2.56     -0.23
    3    4   12     -1.51      1.33
    4    4   12     -2.19     -0.16
    0    5   12     -1.73      0.06
    1    5   12     -0.94     -1.76
    2    5   12      0.92     -0.57
    3    5   12      2.09     -0.12
    4    5   12      1.45      0.11
    5    5   12     -2.39     -0.38
    0    6   12      4.02      0.60
    1    6   12      0.06      1.04
    2    6   12     -3.79      0.28
    3    6   12      1.29     -1.61
    4    6   12      0.08      1.40
    5    6   12     -0.58     -0.15
    6    6   12      0.32     -0.24
    0    7   12      1.12     -0.12
    1    7   12     -0.31      1.79
    2    7   12     -0.88     -0.06
    3    7   12      0.80      1.14
    4    7   12     -0.22     -1.01
    5    7   12     -1.29      0.56
    6    7   12      1.64      0.76
    7    7   12      1.14     -0.18
    0    8   12     -1.53     -0.35
    1    8   12     -1.54      0.18
    2    8   12      2.62      0.40
    3    8   12      0.62     -1.53
    4    8   12      0.21      0.76
    5    8   12     -0.10     -0.13
    6    8   12     -0.75     -0.39
    7    8   12     -0.71      0.55
    0    9   12     -1.56     -0.14
    1    9   12      1.97     -0.88
    2    9   12     -0.35     -1.24
    3    9   12     -2.54      0.52
    4    9   12      0.49      0.38
    5    9   12      2.32     -0.22
    6    9   12      0.53     -1.47
    0   10   12      1.80     -0.00
    1   10   12     -0.10     -0.38
    2   10   12     -0.29      1.15
    3   10   12     -0.50      0.23
    4   10   12     -1.10     -1.44
    5   10   12      0.64      0.31
    0   11   12     -1.24     -0.16
    1   11   12      0.76      1.54
    2   11   12     -0.31     -0.98
    0    1   13     -0.34     -1.15
    1    1   13      1.76     -0.61
    0    2   13      0.71      5.80
    1    2   13     -1.82     -1.40
    2    2   13      2.83     -2.77
    0    3   13      0.54     -0.02
    1    3   13     -2.18     -0.30
    2    3   13     -0.88     -0.23
    3    3   13     -0.92      0.89
    0    4   13     -0.35     -2.99
    1    4   13      0.76      1.12
    2    4   13      0.11      0.83
    3    4   13      0.46     -0.86
    4    4   13     -0.63      0.16
    0    5   13     -0.46     -1.60
    1    5   13     -0.03      1.96
    2    5   13      1.27      1.36
    3    5   13      1.23     -2.86
    4    5   13     -0.39      0.73
    5    5   13     -1.56      1.27
    0    6   13      0.22      1.12
    1    6   13      1.47     -0.63
    2    6   13     -1.63     -0.64
    3    6   13     -1.23      0.42
    4    6   13      0.23     -1.02
    5    6   13      2.07      0.95
    6    6   13     -1.26      0.92
    0    7   13      0.26      0.87
    1    7   13     -0.80     -1.66
    2    7   13     -0.08     -0.86
    3    7   13     -0.13      2.07
    4    7   13     -0.07      0.39
    5    7   13      0.04     -1.40
    6    7   13      0.96      1.24
    7    7   13     -0.34      0.39
    0    8   13      0.59      0.86
    1    8   13     -1.08     -0.73
    2    8   13     -0.40      0.53
    3    8   13      1.31     -0.04
    4    8   13      0.76      0.07
    5    8   13     -1.24      0.92
    6    8   13     -0.06     -0.40
    0    9   13      0.14      0.40
    1    9   13     -1.02      1.27
    2    9   13      0.95     -0.82
    3    9   13     -0.41     -0.82
    4    9   13     -0.85      1.27
    0   10   13     -0.36     -0.97
    1   10   13      0.80      0.86
    0    1   14      1.05      0.40
    1    1   14     -0.03      3.34
    0    2   14      0.83      0.11
    1    2   14     -0.50     -3.32
    2    2   14     -0.26      4.57
    0    3   14     -4.47     -0.08
    1    3   14      1.46     -0.03
    2    3   14      1.00     -0.27
    3    3   14     -0.05     -1.68
    0    4   14      0.67     -0.12
    1    4   14     -0.40      1.16
    2    4   14      0.41     -1.26
    3    4   14     -1.11      1.11
    4    4   14     -0.09     -0.97
    0    5   14      1.59     -0.14
    1    5   14      0.72     -0.16
    2    5   14     -1.36      0.38
    3    5   14      0.38      1.62
    4    5   14     -2.26     -0.95
    5    5   14      0.06      1.24
    0    6   14      0.02      0.07
    1    6   14     -0.43      0.82
    2    6   14      0.27     -1.98
    3    6   14      0.89     -0.58
    4    6   14      1.27      1.60
    5    6   14     -2.58     -1.33
    6    6   14      0.14      1.39
    0    7   14     -0.18      0.09
    1    7   14     -0.43     -1.05
    2    7   14     -0.58      1.25
    3    7   14      1.67     -1.36
    4    7   14      0.49     -0.39
    5    7   14     -0.45      0.36
    0    8   14      1.70      0.16
    1    8   14     -0.28     -0.36
    2    8   14      0.09      0.30
    3    8   14     -1.50     -0.27
    0    1   15     -2.86      3.00
    1    1   15      2.43      0.15
    0    2   15      4.09     -1.61
    1    2   15     -5.90     -1.42
    2    2   15     -0.12      1.56
    0    3   15     -1.22      2.92
    1    3   15      0.28     -0.26
    2    3   15      2.94     -1.99
    3    3   15      0.19      1.28
    0    4   15     -0.60     -3.04
    1    4   15      1.55      1.66
    2    4   15     -0.97      1.30
    3    4   15     -0.02     -2.07
    4    4   15     -0.06      0.03
    0    5   15     -0.39     -1.34
    1    5   15     -0.27     -0.17
    2    5   15     -0.77      0.93
    3    5   15      0.15     -0.86
    4    5   15      0.87     -0.21
    5    5   15      0.15      0.41
    0    6   15      0.69      2.50
    1    6   15      0.81     -0.42
    2    6   15      0.83     -0.66
    3    6   15     -0.35     -0.01
    4    6   15     -0.25      0.42
    0    7   15      0.15      0.97
    1    7   15     -0.55     -1.02
    0    0   16      1.49      0.20
    0    1   16      0.18      0.49
    1    1   16     -1.61     -0.37
    0    2   16     -0.23     -0.41
    1    2   16      0.32     -1.31
    2    2   16      0.89     -0.24
    0    3   16     -1.41      0.03
    1    3   16      1.79      1.44
    2    3   16     -0.15     -0.03
    3    3   16     -2.08      0.12
    0    4   16     -0.20      0.02
    1    4   16      0.62     -0.38
    2    4   16     -0.75      0.44
    0    1    0   -105.80      0.11
   11   12    0     -1.29      0.70
   12   12    0      2.10     -0.15
   10   13    0      1.02     -0.13
   11   13    0      0.18     -0.44
    8   14    0     -1.67     -0.05
    9   14    0      2.11      0.17
   10   14    0     -0.38     -0.04
    6   15    0     -1.69     -0.46
    7   15    0     -0.22      0.08
    8   15    0      1.34      0.25
    2   16    0     -0.71      0.21
    3   16    0      0.27     -0.24
    4   16    0     -0.32     -0.18
    5   16    0      0.58     -0.07
    6   16    0     -0.36      0.22
   11   12    1     -0.82     -0.07
   12   12    1      0.48     -0.50
   10   13    1      0.12     -1.30
   11   13    1      0.28      0.37
    8   14    1      1.40     -1.22
    9   14    1     -1.20     -0.03
   10   14    1      0.03      0.37
    6   15    1     -0.24      0.20
    7   15    1     -0.83     -0.22
    8   15    1     -0.00      0.26
    1   16    1      0.44      0.02
    2   16    1      0.07     -0.49
    3   16    1     -0.55     -0.13
    4   16    1      0.32     -0.21
    5   16    1     -0.44      0.52
    6   16    1      0.37      0.36
   11   12    2      0.12      1.97
   12   12    2     -0.11     -1.60
   10   13    2      0.99      0.34
   11   13    2     -0.06     -1.43
    8   14    2     -0.12      1.90
    9   14    2      0.29     -0.66
   10   14    2     -0.13     -0.50
    6   15    2     -1.27     -0.80
    7   15    2     -0.05      1.13
    8   15    2      0.29     -0.67
    0   16    2      0.12      0.05
    1   16    2      0.53     -0.78
    2   16    2     -0.66      0.67
    3   16    2     -0.22     -0.52
    4   16    2      0.08     -0.28
    5   16    2      0.56      0.19
    6   16    2     -0.64      0.73
   11   12    3      0.27     -0.04
   12   12    3      0.13      0.12
    9   13    3     -0.43     -1.53
   10   13    3     -0.11      1.77
   11   13    3      0.73     -0.55
    8   14    3     -0.63     -2.07
    9   14    3      0.48      0.63
    5   15    3      0.05      0.57
    6   15    3      0.21      0.70
    7   15    3     -0.78     -1.59
    8   15    3      0.79      0.17
    0   16    3      0.00     -0.75
    1   16    3      0.23      0.08
    2   16    3      0.63      0.25
    3   16    3     -0.60     -0.02
    4   16    3      0.49      0.59
    5   16    3      0.04     -0.38
    6   16    3     -0.80     -0.83
   10   12    4      0.02      0.73
   11   12    4      0.95     -0.21
   12   12    4     -0.37     -0.04
    9   13    4     -0.76      0.73
   10   13    4     -0.06     -0.24
    7   14    4     -1.31     -0.42
    8   14    4     -0.02     -0.89
    9   14    4      0.79      0.52
    5   15    4      1.38      1.01
    6   15    4     -0.68     -1.08
    7   15    4     -0.33      0.82
    0   16    4     -0.30      0.29
    1   16    4      0.54     -1.17
    2   16    4     -0.95      1.13
    3   16    4     -0.01      0.64
    4   16    4      1.15     -0.38
    5   16    4     -0.35     -0.81
   11   11    5     -0.72      0.32
   10   12    5     -0.95     -0.11
   11   12    5      0.27     -0.47
    9   13    5      0.40      0.59
   10   13    5      0.81      0.63
    7   14    5      0.67     -0.73
    8   14    5      0.33      0.29
    9   14    5     -1.04     -0.28
    4   15    5     -0.80      0.52
    5   15    5     -0.14     -0.38
    6   15    5      0.27     -0.17
    7   15    5     -0.42      0.59
    0   16    5      0.18     -0.61
    1   16    5      0.83      0.49
    2   16    5     -1.37      0.14
    3   16    5     -0.03     -0.21
    4   16    5      0.59     -0.31
   11   11    6     -0.10      1.26
    9   12    6      0.03      1.28
   10   12    6     -0.42     -0.31
   11   12    6     -0.65     -0.29
    8   13    6     -1.00      0.41
    9   13    6      0.18     -1.46
   10   13    6      0.69      0.45
    6   14    6      0.76     -0.78
    7   14    6      0.35      1.15
    8   14    6     -0.26     -0.31
    0   15    6      3.14      0.18
    1   15    6     -0.52     -0.18
    2   15    6     -1.25      0.39
    3   15    6     -0.67      0.34
    4   15    6      1.37     -0.81
    5   15    6      0.25     -0.59
    6   15    6     -0.77      0.57
    0   16    6     -1.53     -0.08
    1   16    6      1.08     -0.83
    2   16    6      0.52     -0.16
    3   16    6     -0.85      0.06
   10   11    7      1.19     -0.95
   11   11    7      0.47      0.71
    9   12    7      0.06      0.66
   10   12    7      0.03      0.33
    7   13    7     -0.63      2.36
    8   13    7     -0.22     -1.22
    9   13    7      0.51     -0.10
    5   14    7      0.66      0.06
    6   14    7     -0.48      1.47
    7   14    7     -0.18     -0.35
    0   15    7      0.01     -0.20
    1   15    7     -1.26     -0.33
    2   15    7      0.54      0.64
    3   15    7      1.15     -0.08
    4   15    7     -1.13      0.05
    5   15    7      0.22      0.25
    0   16    7     -0.03      0.46
    1   16    7      0.31     -0.48
   10   10    8     -0.35     -0.10
    9   11    8      1.70      0.32
   10   11    8     -0.98      0.14
   11   11    8      0.41     -0.05
    8   12    8      0.38      0.46
    9   12    8     -0.76     -0.38
   10   12    8      0.83      0.13
    6   13    8      1.03     -0.37
    7   13    8      0.61      0.02
    8   13    8     -0.46      0.09
    2   14    8      0.51      0.23
    3   14    8     -0.29      0.44
    4   14    8      0.77     -0.61
    5   14    8     -0.93     -0.45
    6   14    8      0.19      0.55
    0   15    8     -1.97     -0.03
    1   15    8      0.91     -0.78
    2   15    8      0.64      0.51
    3   15    8     -1.18      0.16
    4   15    8      0.39     -0.28
   10   10    9     -0.70      0.40
    8   11    9     -0.28      2.03
    9   11    9     -0.48     -0.28
   10   11    9      0.27     -0.88
    7   12    9     -0.28      1.69
    8   12    9      0.61     -0.05
    9   12    9     -0.16     -0.32
    4   13    9     -0.72      0.13
    5   13    9     -0.19      0.30
    6   13    9      0.16      0.71
    7   13    9      0.15     -0.74
    0   14    9     -0.07     -1.09
    1   14    9      0.15     -0.16
    2   14    9      0.04      1.00
    3   14    9      0.25     -0.08
    4   14    9     -0.26     -0.04
    5   14    9     -0.07     -0.15
    0   15    9     -0.04     -0.05
    1   15    9     -0.09     -0.27
    2   15    9      0.09      0.73
    9   10   10      0.21     -0.90
   10   10   10      0.13     -0.51
    7   11   10     -0.14      0.04
    8   11   10     -0.68     -0.44
    9   11   10      0.13      1.21
    5   12   10     -0.50      0.98
    6   12   10      0.10     -1.75
    7   12   10      0.47     -0.07
    8   12   10      0.10      0.65
    0   13   10     -0.67     -0.04
    1   13   10     -0.56      0.99
    2   13   10      0.44     -1.25
    3   13   10      1.89     -0.17
    4   13   10     -0.54      0.64
    5   13   10     -1.02     -0.65
    6   13   10     -0.35      0.43
    0   14   10      0.13     -0.06
    1   14   10     -0.11     -0.37
    2   14   10      0.38      0.43
    3   14   10     -0.54      0.16
    9    9   11     -0.33     -0.27
    7   10   11      0.56     -1.08
    8   10   11     -1.03      1.04
    9   10   11      0.56     -0.67
    6   11   11     -0.48     -1.86
    7   11   11      0.64      0.92
    8   11   11     -0.25      0.62
    2   12   11      0.11     -0.14
    3   12   11     -0.89     -0.09
    4   12   11      1.01      0.57
    5   12   11     -0.58     -0.47
    6   12   11     -0.21     -0.00
    0   13   11      0.27      1.24
    1   13   11      0.05     -0.66
    2   13   11     -0.16      0.26
    3   13   11      0.61      0.57
    4   13   11     -0.16     -0.72
    8    8   12      0.24     -0.10
    7    9   12     -2.09      1.28
    8    9   12     -0.01      1.04
    9    9   12      0.42     -0.08
    6   10   12     -0.79      0.87
    7   10   12      1.16     -0.07
    8   10   12      0.15     -0.31
    3   11   12      0.07      0.24
    4   11   12      0.67      0.14
    5   11   12     -0.79      0.22
    6   11   12      0.08      0.21
    7   11   12     -0.16     -0.90
    0   12   12     -0.01     -0.08
    1   12   12     -0.49     -0.83
    2   12   12     -0.22      0.51
    3   12   12      1.36     -0.42
    4   12   12      0.05      0.90
    5   12   12     -0.77     -0.60
    0   13   12      1.25      0.02
    1   13   12     -0.86      0.48
    7    8   13      0.64     -0.58
    8    8   13      0.19     -0.39
    5    9   13      0.53     -1.75
    6    9   13      1.14     -0.71
    7    9   13     -0.39      0.96
    8    9   13     -0.74      0.09
    2   10   13      0.55     -0.53
    3   10   13     -0.67      0.54
    4   10   13     -0.12     -1.16
    5   10   13      0.24      0.18
    6   10   13     -0.70      0.07
    7   10   13      0.13      0.17
    0   11   13     -0.33     -0.80
    1   11   13      1.33     -0.63
    2   11   13     -0.82      1.32
    3   11   13     -0.06     -0.31
    4   11   13      0.52      0.04
    5   11   13     -0.23      0.70
    0   12   13      0.23      0.80
    1   12   13     -0.30     -0.31
    2   12   13     -0.02     -0.23
    6    7   14     -0.90     -0.71
    7    7   14      0.11      0.72
    4    8   14     -1.20      0.27
    5    8   14      1.56      0.32
    6    8   14      1.04     -0.24
    7    8   14     -0.56      0.33
    0    9   14     -1.18     -0.06
    1    9   14      0.06      2.01
    2    9   14      1.18     -0.28
    3    9   14     -0.93     -0.35
    4    9   14      0.06      0.66
    5    9   14      0.14     -0.04
    6    9   14     -0.23     -0.23
    0   10   14     -1.65     -0.22
    1   10   14      0.94     -0.65
    2   10   14     -0.24      0.38
    3   10   14      0.21      0.80
    4   10   14      0.50     -0.85
    0   11   14      0.96     -0.22
    1   11   14     -0.42     -0.04
    5    6   15      0.66      0.25
    6    6   15     -0.38     -0.58
    2    7   15     -0.80      0.66
    3    7   15      0.77      0.89
    4    7   15     -0.20     -0.88
    5    7   15     -0.06     -0.21
    6    7   15     -0.16     -0.02
    7    7   15      0.31     -0.04
    0    8   15      0.34     -1.28
    1    8   15     -0.77      1.01
    2    8   15     -0.66     -0.65
    3    8   15      0.53      0.02
    4    8   15      0.04      0.46
    5    8   15     -0.29     -1.10
    0    9   15     -0.34     -0.04
    1    9   15     -0.09     -0.17
    2    9   15      0.90     -0.32
    3    9   15     -1.06      0.20
    4    9   15      0.07      0.47
    3    4   16      0.05      0.16
    4    4   16      0.19     -0.12
    0    5   16     -0.67     -0.22
    1    5   16     -0.72      0.09
    2    5   16      0.10     -1.06
    3    5   16      1.18      0.23
    4    5   16      0.35     -0.03
    5    5   16     -0.08     -0.08
    0    6   16      1.63      0.24
    1    6   16     -0.65      0.24
    2    6   16     -0.60     -0.12
    3    6   16     -0.02      0.05
    4    6   16      0.35      0.30
    5    6   16     -0.26      0.22
    0    7   16      1.82      0.16
    1    7   16     -0.57      0.08
    2    7   16      0.02     -0.06
    3    7   16      0.05     -0.31
    4    7   16     -1.18      0.41
    0    8   16     -2.33     -0.21
    1    8   16      1.04     -0.00
    2    8   16      0.76      0.41
    0    0    0      0.00      0.00
# SQUEEZE RESULTS (Version = 280416)
# Note: Data are Listed for all Voids in the P1 Unit Cell
# i.e. Centre of Gravity, Solvent Accessible Volume,
# Recovered number of Electrons in the Void and
# Details about the Squeezed Material
loop_
  _platon_squeeze_void_nr
  _platon_squeeze_void_average_x
  _platon_squeeze_void_average_y
  _platon_squeeze_void_average_z
  _platon_squeeze_void_volume
  _platon_squeeze_void_count_electrons
  _platon_squeeze_void_content
   1  0.500  0.500  0.746      1493       359 ' '
# Missing Reflections Below sin(th)/lambda = 0.25
loop_
  _platon_missing_refln_index_h
  _platon_missing_refln_index_k
  _platon_missing_refln_index_l
  _platon_missing_refln_theta
    0    1    0     1.668
_platon_squeeze_void_probe_radius                  1.20
_platon_squeeze_details
)
TITL mkt004s_a.res in P4(3)22
CELL   13.3100   13.3100   13.9569     90.00     90.00     90.00
SPGR P4322
# Solvent Accessible Volume =      1499
# Note: Atoms in Void as Cxxx and Qxxx all others
Q101 0.310 0.834 0.504 !       4.65 eA-3
C102 0.292 0.692 0.596 !       2.58 eA-3
C103 0.274 0.746 0.533 !       2.58 eA-3
C104 0.395 0.750 0.149 !       2.19 eA-3
C105 0.700 0.808 0.010 !       1.82 eA-3
C106 0.702 0.377 0.166 !       1.64 eA-3
C107 0.705 0.702 0.256 !       1.64 eA-3
C108 0.611 0.487 0.335 !       1.39 eA-3
C109 0.337 0.770 0.069 !       1.36 eA-3
C110 0.610 0.814 0.960 !       1.32 eA-3
C111 0.713 0.615 0.908 !       1.17 eA-3
C112 0.470 0.654 0.615 !       0.97 eA-3
C113 0.728 0.759 0.906 !       0.93 eA-3
C114 0.368 0.698 0.796 !       0.93 eA-3
C115 0.750 0.633 0.782 !       0.90 eA-3
C116 0.254 0.659 0.169 !       0.84 eA-3
C117 0.403 0.703 0.588 !       0.81 eA-3
C118 0.703 0.426 0.075 !       0.78 eA-3
C119 0.334 0.419 0.020 !       0.77 eA-3
C120 0.377 0.444 0.812 !       0.76 eA-3
C121 0.671 0.315 0.896 !       0.75 eA-3
C122 0.624 0.363 0.153 !       0.74 eA-3
C123 0.745 0.513 0.413 !       0.69 eA-3
C124 0.658 0.324 0.813 !       0.68 eA-3
C125 0.389 0.612 0.793 !       0.61 eA-3
C126 0.594 0.498 0.406 !       0.59 eA-3
Q127 0.708 0.820 0.764 !       0.58 eA-3
C128 0.386 0.714 0.731 !       0.58 eA-3
Q129 0.798 0.798 0.021 !       0.55 eA-3
C130 0.724 0.617 0.701 !       0.54 eA-3
C131 0.544 0.735 0.277 !       0.54 eA-3
Q132 0.961 0.704 0.266 !       0.53 eA-3
C133 0.485 0.724 0.655 !       0.53 eA-3
Q134 0.133 0.258 0.701 !       0.52 eA-3
)
;
_shelx_shelxl_version_number     2014/7
_olex2_submission_special_instructions 'No special instructions were received'
loop_
_space_group_symop_operation_xyz
'x, y, z'
'-x, -y, z+1/2'
'-y, x, z+3/4'
'y, -x, z+1/4'
'-x, y, -z'
'x, -y, -z+1/2'
'y, x, -z+1/4'
'-y, -x, -z+3/4'
loop_
_atom_site_label
_atom_site_type_symbol
_atom_site_fract_x
_atom_site_fract_y
_atom_site_fract_z
_atom_site_U_iso_or_equiv
_atom_site_adp_type
_atom_site_occupancy
_atom_site_site_symmetry_order
_atom_site_calc_flag
_atom_site_refinement_flags_posn
_atom_site_refinement_flags_adp
_atom_site_refinement_flags_occupancy
_atom_site_disorder_assembly
_atom_site_disorder_group
Co1 Co 0.98028(3) 0.98028(3) 0.6250 0.01601(18) Uani 1 2 d S T P . .
N1 N 0.9812(3) 0.85829(18) 0.54577(18) 0.0210(6) Uani 1 1 d . . . . .
N2 N 1.0175(3) 0.10280(18) 0.45463(18) 0.0233(6) Uani 1 1 d . . . . .
C1 C 0.9700(3) 0.7625(2) 0.5726(2) 0.0255(8) Uani 1 1 d . . . . .
H1 H 0.9448 0.7417 0.6331 0.031 Uiso 1 1 calc R . . . .
C7 C 1.0000 0.2626(3) 0.5000 0.0273(15) Uani 1 2 d S T P . .
C2 C 1.0000 0.6974(4) 0.5000 0.0258(14) Uani 1 2 d S T P . .
C8 C 1.0269(4) 0.1993(3) 0.4274(3) 0.0346(9) Uani 1 1 d . . . . .
H8 H 1.0492 0.2205 0.3660 0.042 Uiso 1 1 calc R . . . .
C6 C 1.0000 0.3739(4) 0.5000 0.0333(17) Uani 1 2 d S T P C .
C3 C 1.0000 0.5882(3) 0.5000 0.0334(16) Uani 1 2 d S T P D .
C5 C 1.0287(4) 0.4284(3) 0.4207(3) 0.0413(11) Uani 1 1 d . . . . .
H5 H 1.0493 0.3936 0.3646 0.050 Uiso 0.75 1 calc R . . A 1
C4 C 1.0285(4) 0.5330(3) 0.4203(3) 0.0451(11) Uani 1 1 d . . . . .
H4 H 1.0484 0.5675 0.3638 0.054 Uiso 0.75 1 calc R . . B 2
F2 F 1.0611(10) 0.3825(6) 0.3355(7) 0.062(4) Uani 0.25 1 d . . . C 2
F1 F 1.0545(16) 0.5760(8) 0.3393(7) 0.112(7) Uani 0.25 1 d . . . D 1
loop_
_atom_site_aniso_label
_atom_site_aniso_U_11
_atom_site_aniso_U_22
_atom_site_aniso_U_33
_atom_site_aniso_U_23
_atom_site_aniso_U_13
_atom_site_aniso_U_12
Co1 0.0152(2) 0.0152(2) 0.0176(3) -0.00071(16) 0.00071(16) -0.0001(3)
N1 0.0261(14) 0.0187(14) 0.0182(13) 0.0009(11) 0.0001(15) 0.0012(14)
N2 0.0332(15) 0.0142(13) 0.0225(13) 0.0018(11) 0.0053(15) -0.0006(13)
C1 0.040(2) 0.0157(17) 0.0207(17) 0.0040(13) 0.0027(19) -0.0027(17)
C7 0.044(5) 0.010(2) 0.028(3) 0.000 0.000(2) 0.000
C2 0.030(4) 0.022(3) 0.026(3) 0.000 0.002(2) 0.000
C8 0.061(3) 0.0141(18) 0.029(2) 0.0027(14) 0.010(2) -0.002(2)
C6 0.050(5) 0.016(3) 0.034(3) 0.000 -0.001(3) 0.000
C3 0.062(5) 0.011(2) 0.028(3) 0.000 0.010(3) 0.000
C5 0.081(3) 0.0131(19) 0.030(2) -0.0033(15) 0.014(2) 0.005(2)
C4 0.089(3) 0.021(2) 0.0253(19) 0.0041(16) 0.016(2) 0.003(2)
F2 0.133(11) 0.011(4) 0.043(6) 0.001(4) 0.047(6) 0.016(5)
F1 0.27(2) 0.028(6) 0.040(6) 0.000(5) 0.064(10) -0.016(9)
loop_
_atom_type_symbol
_atom_type_description
_atom_type_scat_dispersion_real
_atom_type_scat_dispersion_imag
_atom_type_scat_source
C C 0.0040 0.0020 'International Tables Vol C Tables 4.2.6.8 and 6.1.1.4'
H H 0.0000 0.0000 'International Tables Vol C Tables 4.2.6.8 and 6.1.1.4'
Co Co 0.3550 1.1300 'International Tables Vol C Tables 4.2.6.8 and 6.1.1.4'
F F 0.0220 0.0130 'International Tables Vol C Tables 4.2.6.8 and 6.1.1.4'
N N 0.0080 0.0040 'International Tables Vol C Tables 4.2.6.8 and 6.1.1.4'
loop_
_geom_angle_atom_site_label_1
_geom_angle_atom_site_label_2
_geom_angle_atom_site_label_3
_geom_angle
_geom_angle_site_symmetry_1
_geom_angle_site_symmetry_3
N1 Co1 N1 109.1(2) . 7_556
N1 Co1 N2 108.93(15) 7_556 5_766
N1 Co1 N2 111.46(9) . 5_766
N1 Co1 N2 108.93(15) . 4_675
N1 Co1 N2 111.46(9) 7_556 4_675
N2 Co1 N2 107.0(2) 4_675 5_766
N1 N1 Co1 121.77(12) 5_756 .
C1 N1 Co1 129.0(2) . .
C1 N1 N1 107.54(19) . 5_756
N2 N2 Co1 122.27(11) 5_756 3_744
C8 N2 Co1 128.9(2) . 3_744
C8 N2 N2 107.31(19) . 5_756
N1 C1 H1 124.5 . .
N1 C1 C2 111.0(3) . .
C2 C1 H1 124.5 . .
C8 C7 C8 103.8(4) . 5_756
C8 C7 C6 128.1(2) . .
C8 C7 C6 128.1(2) 5_756 .
C1 C2 C1 102.9(4) . 5_756
C1 C2 C3 128.5(2) 5_756 .
C1 C2 C3 128.5(2) . .
N2 C8 C7 110.8(3) . .
N2 C8 H8 124.6 . .
C7 C8 H8 124.6 . .
C5 C6 C7 121.8(2) . .
C5 C6 C7 121.8(2) 5_756 .
C5 C6 C5 116.4(5) 5_756 .
C4 C3 C2 122.0(2) 5_756 .
C4 C3 C2 122.0(2) . .
C4 C3 C4 116.0(4) . 5_756
C6 C5 H5 119.0 . .
C6 C5 C4 122.0(4) . .
C6 C5 F2 122.4(5) . .
C4 C5 H5 119.0 . .
C4 C5 F2 115.6(5) . .
C3 C4 C5 121.8(4) . .
C3 C4 H4 119.1 . .
C5 C4 H4 119.1 . .
F1 C4 C3 122.2(6) . .
F1 C4 C5 116.0(6) . .
loop_
_geom_bond_atom_site_label_1
_geom_bond_atom_site_label_2
_geom_bond_distance
_geom_bond_site_symmetry_2
Co1 N1 1.964(3) .
Co1 N1 1.964(3) 7_556
Co1 N2 1.974(2) 4_675
Co1 N2 1.974(2) 5_766
N1 N1 1.372(5) 5_756
N1 C1 1.337(4) .
N2 Co1 1.974(2) 3_744
N2 N2 1.349(5) 5_756
N2 C8 1.345(4) .
C1 H1 0.9500 .
C1 C2 1.392(4) .
C7 C8 1.366(5) .
C7 C8 1.366(5) 5_756
C7 C6 1.481(7) .
C2 C1 1.392(4) 5_756
C2 C3 1.453(7) .
C8 H8 0.9500 .
C6 C5 1.378(4) 5_756
C6 C5 1.378(4) .
C3 C4 1.386(4) 5_756
C3 C4 1.386(4) .
C5 H5 0.9500 .
C5 C4 1.392(4) .
C5 F2 1.404(9) .
C4 H4 0.9500 .
C4 F1 1.313(11) .
loop_
_geom_torsion_atom_site_label_1
_geom_torsion_atom_site_label_2
_geom_torsion_atom_site_label_3
_geom_torsion_atom_site_label_4
_geom_torsion
_geom_torsion_site_symmetry_1
_geom_torsion_site_symmetry_4
Co1 N1 C1 C2 -165.1(2) . .
Co1 N2 C8 C7 167.0(2) 3_744 .
N1 N1 C1 C2 0.2(5) 5_756 .
N1 C1 C2 C1 -0.10(19) . 5_756
N1 C1 C2 C3 179.9(2) . .
N2 N2 C8 C7 1.0(5) 5_756 .
C1 C2 C3 C4 -2.7(3) 5_756 .
C1 C2 C3 C4 177.3(3) 5_756 5_756
C1 C2 C3 C4 -2.7(3) . 5_756
C1 C2 C3 C4 177.3(3) . .
C7 C6 C5 C4 179.8(4) . .
C7 C6 C5 F2 -0.9(9) . .
C2 C3 C4 C5 179.8(4) . .
C2 C3 C4 F1 -1.9(14) . .
C8 C7 C8 N2 -0.4(2) 5_756 .
C8 C7 C6 C5 -179.6(4) 5_756 .
C8 C7 C6 C5 0.4(4) 5_756 5_756
C8 C7 C6 C5 -179.6(4) . 5_756
C8 C7 C6 C5 0.4(4) . .
C6 C7 C8 N2 179.6(2) . .
C6 C5 C4 C3 0.5(9) . .
C6 C5 C4 F1 -178.0(12) . .
C5 C6 C5 C4 -0.2(4) 5_756 .
C5 C6 C5 F2 179.1(9) 5_756 .
C4 C3 C4 C5 -0.2(4) 5_756 .
C4 C3 C4 F1 178.1(14) 5_756 .
F2 C5 C4 C3 -178.9(7) . .
loop_
_twin_individual_id
_twin_individual_mass_fraction_refined
1 0.55(4)
2 0.45(4)
