#------------------------------------------------------------------------------
#$Date: 2019-11-25 22:30:06 +0200 (Mon, 25 Nov 2019) $
#$Revision: 241967 $
#$URL: file:///home/coder/svn-repositories/cod/cif/4/13/18/4131846.cif $
#------------------------------------------------------------------------------
#
# This file is available in the Crystallography Open Database (COD),
# http://www.crystallography.net/
#
# All data on this site have been placed in the public domain by the
# contributors.
#
data_4131846
loop_
_publ_author_name
'Yan, Yong'
'O'Connor, Alice E'
'Kanthasamy, Gopikkaa'
'Atkinson, George'
'Allan, David R.'
'Blake, Alexander J.'
'Schr\"oder, Martin'
_publ_section_title
;
 Unusual and Tunable Negative Linear Compressibility in the Metal-Organic
 Framework MFM-133(M) (M = Zr, Hf).
;
_journal_issue                   11
_journal_name_full               'Journal of the American Chemical Society'
_journal_page_first              3952
_journal_page_last               3958
_journal_paper_doi               10.1021/jacs.7b11747
_journal_volume                  140
_journal_year                    2018
_chemical_formula_moiety         'C88 H72 Hf6 O32'
_chemical_formula_sum            'C88 H72 Hf6 O32'
_chemical_formula_weight         2708.36
_space_group_crystal_system      tetragonal
_space_group_IT_number           128
_space_group_name_Hall           '-P 4 2n'
_space_group_name_H-M_alt        'P 4/m n c'
_atom_sites_solution_hydrogens   geom
_audit_creation_date             2017-02-05
_audit_creation_method
;
Olex2 1.2
(compiled 2015.09.30 svn.r3233 for OlexSys, GUI svn.r5103)
;
_cell_angle_alpha                90
_cell_angle_beta                 90
_cell_angle_gamma                90
_cell_formula_units_Z            2
_cell_length_a                   18.8445(13)
_cell_length_b                   18.8445(13)
_cell_length_c                   32.896(3)
_cell_measurement_reflns_used    3989
_cell_measurement_temperature    293(2)
_cell_measurement_theta_max      13.6940
_cell_measurement_theta_min      1.9540
_cell_volume                     11681.9(16)
_computing_cell_refinement       'CrysAlisPro 1.171.38.41 (Rigaku OD, 2015)'
_computing_data_collection       'CrysAlisPro 1.171.38.41 (Rigaku OD, 2015)'
_computing_data_reduction        'CrysAlisPro 1.171.38.41 (Rigaku OD, 2015)'
_computing_molecular_graphics    'Olex2 (Dolomanov et al., 2009)'
_computing_publication_material  'Olex2 (Dolomanov et al., 2009)'
_computing_structure_refinement  'ShelXL (Sheldrick, 2015)'
_diffrn_ambient_temperature      293(2)
_diffrn_detector                 'CCD plate'
_diffrn_detector_area_resol_mean 16.1592
_diffrn_detector_type            Eos
_diffrn_measured_fraction_theta_full 0.929
_diffrn_measured_fraction_theta_max 0.929
_diffrn_measurement_details
;
List of Runs (angles in degrees, time in seconds):

  # Type    Start    End  Width  t~exp~   \w     \q     \k     \f   Frames
--------------------------------------------------------------------------
  1  \w      4.00  64.00   1.00   90.00    --   26.49   0.00 150.00   60
  2  \w     -5.00  43.00   1.00   90.00    --   26.49 -53.00  17.00   48
  3  \w    -49.00 -16.00   1.00   90.00    --   26.49 134.00 123.00   33
  4  \w    -30.00   5.00   1.00   90.00    --   26.49  39.00 -12.00   35
  5  \w    -25.00  13.00   1.00   90.00    --   26.49  13.00  -3.00   38
  6  \w      8.00  67.00   1.00   90.00    --   26.49 -97.00-143.00   59
  7  \w    -28.00 -17.00   1.00   90.00    --   26.49  97.00 -35.00   11
  8  \w    -57.00  -1.00   1.00   90.00    --  -28.05  53.00 -17.00   56
  9  \w     -8.00  15.00   1.00   90.00    --  -28.05 -81.00  29.00   23
 10  \w      3.00  26.00   1.00   90.00    --  -28.05 -97.00  35.00   23
 11  \w    -19.00  13.00   1.00   90.00    --  -28.05 -53.00  17.00   32
 12  \w     -6.00  27.00   1.00   90.00    --  -28.05 -97.00-143.00   33
 13  \w    -20.00  11.00   1.00   90.00    --   26.49  81.00 151.00   31
 14  \w     -7.00  52.00   1.00   90.00    --   26.49 -37.00-180.00   59
 15  \w    -29.00 -16.00   1.00   90.00    --   26.49  97.00 -35.00   13
 16  \w     17.00  70.00   1.00   90.00    --   26.49-114.00  44.00   53
 17  \w    -52.00   3.00   1.00   90.00    --  -28.05  39.00 167.00   55
 18  \w    -25.00  29.00   1.00   90.00    --  -28.05 -39.00  12.00   54
 19  \w    -28.00  25.00   1.00   90.00    --  -28.05 -39.00-167.00   53
 20  \w     15.00  37.00   1.00   90.00    --  -28.05-114.00  44.00   22
;
_diffrn_measurement_device       'four-circle diffractometer'
_diffrn_measurement_device_type  'SuperNova, Single source at offset, Eos'
_diffrn_measurement_method       '\w scans'
_diffrn_orient_matrix_type
'CrysAlisPro convention (1999,Acta A55,543-557)'
_diffrn_orient_matrix_UB_11      -0.0015817000
_diffrn_orient_matrix_UB_12      0.0329298000
_diffrn_orient_matrix_UB_13      0.0103506000
_diffrn_orient_matrix_UB_21      -0.0357958000
_diffrn_orient_matrix_UB_22      -0.0068698000
_diffrn_orient_matrix_UB_23      0.0054443000
_diffrn_orient_matrix_UB_31      0.0116231000
_diffrn_orient_matrix_UB_32      -0.0168176000
_diffrn_orient_matrix_UB_33      0.0181124000
_diffrn_radiation_monochromator  mirror
_diffrn_radiation_probe          x-ray
_diffrn_radiation_type           MoK\a
_diffrn_radiation_wavelength     0.71073
_diffrn_reflns_av_R_equivalents  0.4995
_diffrn_reflns_av_unetI/netI     0.1539
_diffrn_reflns_Laue_measured_fraction_full 0.929
_diffrn_reflns_Laue_measured_fraction_max 0.929
_diffrn_reflns_limit_h_max       12
_diffrn_reflns_limit_h_min       -12
_diffrn_reflns_limit_k_max       9
_diffrn_reflns_limit_k_min       -9
_diffrn_reflns_limit_l_max       21
_diffrn_reflns_limit_l_min       -21
_diffrn_reflns_number            22462
_diffrn_reflns_point_group_measured_fraction_full 0.929
_diffrn_reflns_point_group_measured_fraction_max 0.929
_diffrn_reflns_theta_full        13.732
_diffrn_reflns_theta_max         13.732
_diffrn_reflns_theta_min         1.967
_diffrn_source                   'micro-focus sealed X-ray tube'
_diffrn_source_type              'SuperNova (Mo) X-ray Source'
_exptl_absorpt_coefficient_mu    2.686
_exptl_absorpt_correction_T_max  0.839
_exptl_absorpt_correction_T_min  0.813
_exptl_absorpt_correction_type   gaussian
_exptl_absorpt_process_details
;
CrysAlisPro 1.171.38.41 (Rigaku Oxford Diffraction, 2015)
Numerical absorption correction based on gaussian integration over
			a multifaceted crystal model
Empirical absorption correction using spherical harmonics,
 implemented in SCALE3 ABSPACK scaling algorithm.
;
_exptl_crystal_density_diffrn    0.770
_exptl_crystal_F_000             2568
_exptl_crystal_size_max          0.117
_exptl_crystal_size_mid          0.098
_exptl_crystal_size_min          0.052
_refine_diff_density_max         2.958
_refine_diff_density_min         -2.428
_refine_diff_density_rms         0.404
_refine_ls_extinction_coef       0.0007(5)
_refine_ls_extinction_expression Fc^*^=kFc[1+0.001xFc^2^\l^3^/sin(2\q)]^-1/4^
_refine_ls_extinction_method     'SHELXL-2014/7 (Sheldrick 2014'
_refine_ls_goodness_of_fit_ref   1.824
_refine_ls_hydrogen_treatment    constr
_refine_ls_matrix_type           full
_refine_ls_number_parameters     75
_refine_ls_number_reflns         888
_refine_ls_number_restraints     88
_refine_ls_restrained_S_all      12.224
_refine_ls_R_factor_all          0.2108
_refine_ls_R_factor_gt           0.1723
_refine_ls_shift/su_max          0.784
_refine_ls_shift/su_mean         0.049
_refine_ls_structure_factor_coef Fsqd
_refine_ls_weighting_details
'w=1/[\s^2^(Fo^2^)+(0.2000P)^2^] where P=(Fo^2^+2Fc^2^)/3'
_refine_ls_weighting_scheme      calc
_refine_ls_wR_factor_gt          0.4220
_refine_ls_wR_factor_ref         0.4635
_reflns_Friedel_coverage         0.000
_reflns_number_gt                667
_reflns_number_total             888
_reflns_threshold_expression     'I > 2\s(I)'
_cod_data_source_file            HfMOF_All.cif
_cod_data_source_block           hfmof_39.2kbar
_cod_original_cell_volume        11681.8(19)
_cod_database_code               4131846
_chemical_oxdiff_formula         'C88 H72 Hf6 O32'
_chemical_oxdiff_usercomment     'HFMOF at 39.2 KBAR'
_shelx_space_group_comment
;
The symmetry employed for this shelxl refinement is uniquely defined
by the following loop, which should always be used as a source of
symmetry information in preference to the above space-group names.
They are only intended as comments.
;
_reflns_odcompleteness_completeness 15.72
_reflns_odcompleteness_iscentric 1
_reflns_odcompleteness_theta     26.32
_olex2_refinement_description
;
1. Fixed Uiso
 At 1.2 times of:
  All C(H) groups
 At 1.5 times of:
  All C(H,H,H) groups
2. Restrained distances
 O13-C12
 1.41 with sigma of 0.01
 C12-O1
 1.41 with sigma of 0.01
 C6-C12 = C9-C3
 1.41 with sigma of 0.02
 C6-C12 = C9-C3
 1.41 with sigma of 0.01
 C9-C3 = C6-C12
 1.41 with sigma of 0.01
 Hf1-O13 = Hf2-O1
 2.11 with sigma of 0.02
 O1-C12 = O13-C12
 1.41 with sigma of 0.02
 C9-C15 = C9-C10
 1.41 with sigma of 0.02
 C10-C11 = C16-C17
 1.45 with sigma of 0.005
 C4-C5 = C7-C8
 1.39 with sigma of 0.01
 C6-C12 \\sim C9-C3
 with sigma of 0.01
 C9-C3 \\sim C6-C12
 with sigma of 0.01
 C11-C10 \\sim C16-C15 \\sim C17-C15
 with sigma of 0.01
 C9-C17 \\sim C15-C17 \\sim C9-C11 \\sim C11-C9D
 with sigma of 0.005
 C3-C7 \\sim C8-C6 \\sim C7-C5 \\sim C6-C4 \\sim C5-C3 \\sim C4-C8
 with sigma of 0.01
3. Restrained planarity
 C12, C6, C5, C4, C3, C9, C8, C7
 with sigma of 0.01
 C9, C3, C8, C7, C6, C12, C5, C4
 with sigma of 0.01
 C9, C3, C8, C4
 with sigma of 0.01
 C17, C15, C16, C10, C9, C11
 with sigma of 0.01
4. Rigid bond restraints
 C6, Hf2, Hf1, C8, C3, C5, C4, C7, C9, C10, C11, C12, C15, C16, C17, O1, O4,
 O13, O19, O20
 with sigma for 1-2 distances of 0.01 and sigma for 1-3 distances of 0.01
5. Uiso/Uaniso restraints and constraints
C6 \\sim Hf2 \\sim Hf1 \\sim C8 \\sim C3 \\sim C5 \\sim C4 \\sim C7 \\sim C9
\\sim C10 \\sim C11 \\sim C12 \\sim C15 \\sim C16 \\sim C17 \\sim O1 \\sim O4
\\sim O13 \\sim O19 \\sim O20: within 1.7A with sigma of 0.04 and sigma for
terminal atoms of 0.08
6. Same fragment restrains
{C16, C15, C15D, C9D, C10, C9} sigma for 1-2: 0.01, 1-3: 0.04
as
{C9, C16, C15, C15D, C9D, C10}
7. Others
 Fixed Sof: C16(0.5) C15(0.5) C15D(0.00001) C9D(0.00001) C10(0.5) H11A(0.5)
 H11B(0.5) H11C(0.5)
 Fixed Uiso: C15D(0.05) C9D(0.05)
8.a Aromatic/amide H refined with riding coordinates:
 C4(H4), C5(H5), C7(H7), C8(H8)
8.b Fitted hexagon refined as free rotating group:
 C9(C16,C15,C15D,C9D,C10)
8.c Idealised Me refined as rotating group:
 C11(H11A,H11B,H11C), C17(H,HA,HB)
;
_shelx_res_file
;
    hfmof_48.4kbar.res created by SHELXL-2014/7

TITL HFMOF_48 in P4/mnc
REM P4/mnc (#128 in standard setting)
CELL 0.71073 18.844533 18.844533 32.895653 90 90 90
ZERR 2 0.001308 0.001308 0.002678 0 0 0
LATT 1
SYMM -X,-Y,+Z
SYMM -Y,+X,+Z
SYMM +Y,-X,+Z
SYMM 0.5-X,0.5+Y,0.5-Z
SYMM 0.5+X,0.5-Y,0.5-Z
SYMM 0.5+Y,0.5+X,0.5-Z
SYMM 0.5-Y,0.5-X,0.5-Z
SFAC C H Hf O
UNIT 176 136 12 64
DFIX 1.41 0.01 O13 C12
DFIX 1.41 0.01 C12 O1
DFIX 1.41 C6 C12 C9 C3
DFIX 1.41 0.01 C6 C12 C9 C3
DFIX 1.41 0.01 C9 C3 C6 C12
DFIX 2.11 Hf1 O13 Hf2 O1
DFIX 1.41 O1 C12 O13 C12
DFIX 1.41 C9 C15 C9 C10
DFIX 1.45 0.005 C10 C11 C16 C17
DFIX 1.39 0.01 C4 C5 C7 C8
SADI 0.01 C6 C12 C9 C3
SADI 0.01 C9 C3 C6 C12
SADI 0.01 C11 C10 C16 C15 C17 C15
SADI 0.005 C9 C17 C15 C17 C9 C11 C11 C9D
SADI 0.01 C3 C7 C8 C6 C7 C5 C6 C4 C5 C3 C4 C8
FLAT 0.01 C12 C6 C5 C4 C3 C9 C8 C7
FLAT 0.01 C9 C3 C8 C7 C6 C12 C5 C4
FLAT 0.01 C9 C3 C8 C4
FLAT 0.01 C17 C15 C16 C10 C9 C11
DELU C6 Hf2 Hf1 C8 C3 C5 C4 C7 C9 C10 C11 C12 C15 C16 C17 O1 O4 O13 O19 O20
SIMU 0.04 0.08 1.7 C6 Hf2 Hf1 C8 C3 C5 C4 C7 C9 C10 C11 C12 C15 C16 C17 O1 =
 O4 O13 O19 O20

L.S. 6
PLAN  9
MPLA 6 C3 C4 C5 C6 C7 C8
MPLA 4 C9 C10 C15 C16
BIND Hf1 Hf2
CONN 0 C9D
CONN 0 C15D
BIND C16 C17
CONN 1 0 C17
FREE C17 C15D
FREE C17 C15
BOND
MORE -1
BOND $H
CONF
fmap 2
acta 52
OMIT -4 52
OMIT 1 3 7
OMIT 2 5 3
OMIT 1 2 8
REM <olex2.extras>
REM <HklSrc "%.\\HFMOF_48.4KBAR.hkl">
REM </olex2.extras>

WGHT    0.200000
EXTI    0.000746
FVAR       0.11055
HF1   3   -0.046327    0.123145    0.000000    10.50000    0.04792    0.03403 =
         0.02061    0.00000    0.00000    0.00973
HF2   3    0.000000    0.000000    0.073239    10.25000    0.02911    0.02911 =
         0.01765    0.00000    0.00000    0.00000
O1    4   -0.030274    0.089808    0.108172    11.00000    0.03256
O4    4   -0.084034    0.034846    0.037769    11.00000    0.05448
O13   4   -0.065672    0.172797    0.057260    11.00000    0.03930
O19   4   -0.146747    0.159691    0.000000    10.50000    0.05905
O20   4    0.009015    0.227352    0.000000    10.50000    0.05723
C3    1   -0.071715    0.317012    0.193414    11.00000    0.06696
C4    1   -0.093208    0.335543    0.148613    11.00000    0.09575
SPEC 0.3
AFIX  43
H4    2   -0.108685    0.380491    0.141020    11.00000   -1.20000
AFIX   0
C5    1   -0.087448    0.279903    0.121065    11.00000    0.09290
AFIX  43
H5    2   -0.100139    0.290579    0.094438    11.00000   -1.20000
AFIX   0
C6    1   -0.065564    0.211203    0.127737    11.00000    0.07899
C7    1   -0.044096    0.192671    0.172476    11.00000    0.10708
AFIX  43
H7    2   -0.028620    0.147719    0.180063    11.00000   -1.20000
AFIX   0
C8    1   -0.049859    0.248349    0.200054    11.00000    0.09198
AFIX  43
H8    2   -0.037167    0.237651    0.226678    11.00000   -1.20000
AFIX  66
SAME 0.01 0.04 C16 C15 C15D C9D C10 C9
C9    1   -0.077923    0.374152    0.220923    11.00000    0.02199
PART -2
C16   1   -0.026744    0.427248    0.221793    10.50000   -0.00100
PART 0
C15   1   -0.027684    0.473291    0.250629    10.50000   -0.00100
C15D  1   -0.079851    0.475417    0.282368    10.00001   10.05000
C9D   1   -0.131030    0.422321    0.281500    10.00001   10.05000
C10   1   -0.130060    0.370279    0.250188    10.50000    0.04138
AFIX   0
C11   1   -0.180858    0.319142    0.250000    10.50000    0.07659
PART -1
AFIX 137
H11A  2   -0.167498    0.281729    0.268269    10.50000   -1.50000
H11B  2   -0.185748    0.300366    0.223016    10.50000   -1.50000
H11C  2   -0.225231    0.339188    0.258582    10.50000   -1.50000
AFIX   0
PART 0
C12   1   -0.060457    0.156153    0.098825    11.00000    0.03473
PART -2
C17   1    0.024090    0.433938    0.194700    11.00000    0.15738
PART 0
AFIX 137
H     2    0.055951    0.394351    0.196763    11.00000   -1.50000
HA    2    0.049668    0.477155    0.199605    11.00000   -1.50000
HB    2    0.003777    0.435196    0.167947    11.00000   -1.50000
AFIX   0
HKLF 4

REM  HFMOF_48 in P4/mnc
REM R1 =  0.1723 for     667 Fo > 4sig(Fo)  and  0.2108 for all     888 data
REM     75 parameters refined using     88 restraints

END

WGHT      0.2000      0.0000

REM Highest difference peak  2.958,  deepest hole -2.428,  1-sigma level  0.404
Q1    1   0.0000  0.0000  0.0604  10.25000  0.05    2.96
Q2    1  -0.1204  0.0758  0.0477  11.00000  0.05    1.98
Q3    1   0.0000  0.0000  0.1952  10.25000  0.05    1.63
Q4    1   0.0430  0.3979  0.1890  11.00000  0.05    1.62
Q5    1  -0.2105  0.0954  0.0827  11.00000  0.05    1.49
Q6    1  -0.0145  0.2837  0.3051  11.00000  0.05    1.47
Q7    1  -0.0802  0.1623  0.0703  11.00000  0.05    1.26
Q8    1  -0.0143  0.1191  0.1209  11.00000  0.05    1.21
Q9    1  -0.0896  0.4693  0.2744  11.00000  0.05    1.20
;
_shelx_res_checksum              67046
_shelx_hkl_file
;
   0   0  -3 3.32276 28.4823   9
   0   0  -3-66.2944 51.5371  10
   0   0  -4 220.365 104.053  10
   0   0   5-16.3949 96.0273  16
   0   0  -5-58.1656 64.8710   9
   0   0  -6-4.29850 123.767   9
   0   0   6 17.1663 90.0288  16
   0   0   7-39.2775 124.273  16
   0   0   8 231.728 123.308  16
   0   0   9-85.9164 150.548  16
   0   0  10 1694.01 484.086  16
   0   0  11-31.8024 40.2452  16
   0   0  12 2983.12 738.079  16
   0   0  13 427.281 371.125  16
   0   1  -2-0.33736 9.98959   3
   0   1  -2-3.64792 4.41726  13
  -1   0   2-19.4601 22.9075   2
   1   0  -2 2.81479 15.6069  18
   1   0  -2-2.62814 17.4911   1
   1   0  -2-4.91811 15.7624   9
   1   0  -2 0.62212 24.6403  11
   1   0   2 5.03752 18.8225   6
   0  -1   2 1.76129 10.1070  16
  -1   0   2-4.25018 18.5820  17
   0  -1   3 9155.67 554.053   2
   1   0  -3 2085.35 321.506  11
   0   1  -3 8325.88 462.540  18
   1   0  -3 2483.50 316.813  18
   0  -1   3 8465.07 594.381  16
  -1   0   3 4665.30 473.025  17
   0  -1   3 8414.15 489.487   6
   0  -1   3 9910.85 594.700  17
   0   1  -4 11.1212 32.9003  11
   0   1  -4-8.48739 27.3965  18
   0   1  -4 18.2194 51.8215  15
   0   1  -4 29.4694 64.2960   7
   1   0  -4-2.05803 32.5917  11
   1   0  -4-9.56849 46.6457   9
   1   0  -4-1.37039 17.9683  18
   1   0   4-5.84648 65.5508  16
  -1   0   4 12.3733 11.5810  17
   0  -1   4 11.9120 41.3737  16
   1   0   4-11.4979 28.5679   6
   0  -1   4-1.54713 6.42698   6
   0  -1   4-4.70101 22.0334   2
   0  -1   4 1.27545 14.3707  17
   0   1  -4 42.6049 84.6229  20
   0   1  -5 541.138 202.176   7
   0   1  -5 946.435 272.856  20
   0  -1   5 1101.62 238.305  17
   0   1  -5 587.385 238.927  15
   0  -1   5 848.370 234.952  16
   0  -1   5 1002.02 224.559   2
   0   1  -5 1114.54 249.086  11
   1   0   5-15.3645 81.2836   6
   0   1  -5 846.554 187.821  18
  -1   0   5 527.034 192.998  17
   1   0  -5 144.890 91.5807  18
   0   1  -5 922.581 239.556  10
   1   0   5 137.241 76.4525  16
   1   0  -5 110.398 87.1110  11
   0  -1   5 413.558 146.926   6
   0   1  -6 8.76977 50.4221  20
   0   1  -6-0.15101 14.2733  18
  -1   0   6-10.7137 55.2084  17
   1   0  -6 0.39286 93.8656  11
   0  -1   6-32.8503 62.6394  16
   0  -1   6 4.15723 25.5475  17
   1   0   6-6.16800 80.5702  16
   0   1  -6-8.83733 46.5155  11
   0  -1   6-1.06932 37.5323   2
   0  -1   6-12.7503 40.6884   6
   0   1  -6 99.2790 135.259   9
   0   1  -6 4.90854 27.1666  10
   1   0  -6-61.4248 64.6355  18
  -1   0   7 274.293 113.661  17
   0  -1   7 601.011 218.185  17
   0  -1   7 454.185 202.540  16
   1   0   7 71.0306 69.9610  16
   0   1  -7 404.253 196.788  20
   0   1  -7 361.248 162.710  11
   0   1  -7 329.982 166.957  10
   1   0  -7 5.80449 72.6449  18
   0   1  -7 414.070 156.557   9
   0  -1   7 641.567 210.475   2
  -1   0   7-30.9807 143.346  16
   0  -1   7 105.004 99.7771   6
   1   0  -7 12.8807 112.948  11
   0   1  -7 268.694 121.621  18
   0  -1   8-17.8926 68.8039  16
   0   1  -8 14.3981 83.5568  20
   0   1  -8 11.5048 5.84852  18
   1   0   8-44.0891 98.7495  16
   0  -1   8-18.1373 79.8036   6
   0   1  -8-9.52066 71.2543  10
   0   1  -8-1.13563 32.9297  11
  -1   0   8-62.8223 164.343  16
   0  -1   8-7.10639 45.0426  17
   0   1  -8 1.12742 30.2120   9
   0  -1   8-19.3559 47.6104   2
   0   1  -9 583.466 265.392  20
   1   0   9 718.835 308.406  16
   0   1  -9 990.878 324.858  11
   0   1  -9 568.885 229.489  10
   0  -1   9 2622.44 495.098  17
   0   1  -9 1114.89 347.696   9
  -1   0   9 133.178 72.7971  16
   0  -1   9 2666.75 485.118   2
   0  -1   9 2396.24 531.006  16
   0  -1   9-2.73633 140.299   6
   0   1  -9 584.471 217.109  18
   0   1 -10-79.7243 212.590  20
   0   1 -10-66.7606 143.394   9
   1   0  10 18.9202 67.4944  16
  -1   0  10-58.6088 147.398  16
   0  -1  10 70.8657 159.306  16
   0   1 -10 39.5906 56.7609  11
   0  -1  10 28.4988 71.9943   2
   0   1 -10-3.80436 67.5309  18
   0  -1  10-0.72353 41.4656  17
   0   1 -10-32.7867 145.345  10
   0   1 -11 402.644 164.089  18
   0   1 -11 98.4483 166.210  20
  -1   0  11 1231.60 433.039  16
   0  -1  11 4709.36 731.915  17
   0   1 -11 824.857 292.010  11
   1   0  11 1745.45 545.068  16
   0   1 -11 684.935 271.102  10
   0   1 -11 1049.90 332.762   9
   0  -1  11 4781.23 725.404   2
   0  -1  11 3802.02 750.141  16
   0  -1  12 76.4261 194.138  16
   0   1 -12 108.420 176.856   9
   0   1 -12-102.627 195.725  10
  -1   0  12 227.187 336.052  16
   0   1 -12-242.463 181.800  11
   0  -1  12-144.730 269.915  17
   1   0  12 41.5769 178.440  16
   0  -1  12 34.4346 130.223   2
   0   1 -13 150.783 144.868  10
   1   0  13 1814.38 602.978  16
   0   1 -13 313.982 174.029   9
   0   1 -13 119.321 160.409  11
   0  -1  13 4057.39 736.470   2
   0  -1  13 3733.58 810.544  16
   0   1 -14 141.766 66.2236   9
   1   0  14 276.980 316.813  16
   0  -1  14 100.538 197.677   2
   0  -1  14 783.229 432.322  16
   0   1 -14-272.497 373.875  10
   0  -1  15 3839.62 885.483  16
   0  -1  15 4692.10 823.904   2
   0  -1  16 433.835 258.104   2
   0  -1  16 815.364 454.694  16
   0  -1  17 3165.61 754.349   2
   0  -1  17 3294.72 869.812  16
   0  -1  18 74.8414 149.895   2
   0  -1  18 415.537 386.327  16
   0  -1  19 1164.84 554.059  16
   0  -1  19 872.264 432.286   2
   0  -1  20 64.7346 214.818  16
  -1   1  -1 1.66794 9.23270   3
  -1   1  -1-1.28521 5.86929  12
   1  -1   1 1.89578 3.69577   6
   1   1  -1 7.81527 14.6001   1
   1  -1   1-0.45407 16.0028   8
   1  -1   2 10954.9 623.905  16
  -1   1  -2 11674.8 548.847  12
   1  -1   2 11682.7 595.932   8
   1   1  -2 7349.09 499.252   1
  -1  -1   2 9876.14 701.185  17
  -1  -1   2 11338.5 672.764   2
   1  -1   2 14359.5 665.171   6
  -1  -1   2 10031.0 534.218  16
  -1   1  -2 12411.8 617.230   3
   1   1  -2 9912.95 590.829  18
   1   1  -2 12206.0 628.996  13
   1  -1   3-2.34845 29.0398   6
   1   1  -3-6.37089 26.9136  18
  -1   1  -3 2.13146 15.4449  19
   1  -1   3 3.45823 21.8912  14
  -1  -1   3 4.54895 35.7521  17
   1  -1   3 3.41952 35.9916   8
  -1   1  -3 7.96567 25.5693   4
  -1  -1   3 1.16126 20.9913  16
  -1  -1   3-7.14893 27.1622   2
   1   1  -3-5.69803 25.7002   1
   1  -1   3-2.30942 23.8220  16
  -1   1  -4 547.140 149.683   4
   1  -1   4 1025.15 217.792   8
  -1  -1   4 802.173 199.906  16
   1   1  -4 898.289 196.585  18
   1   1  -4 265.500 91.7980   7
   1  -1   4 897.411 152.574  14
   1   1  -4 976.643 249.449  20
  -1  -1   4 141.117 66.3567   6
   1  -1   4 807.944 197.044   6
  -1   1  -4 1068.69 196.061  11
  -1  -1   4 977.865 221.435   2
   1   1  -4 1194.39 260.251  11
  -1   1  -4 649.152 143.068  19
   1  -1   4 919.581 223.379  16
   1  -1   4 1085.12 179.615   2
  -1  -1   4 951.826 234.256  17
   1   1  -4 819.066 161.737   1
   1   1  -4 299.504 112.519  15
  -1  -1   4 929.461 162.090   5
  -1  -1   5-5.24187 24.4321  16
  -1   1  -5-4.88674 24.6142  11
   1  -1   5 7.05836 33.4347  16
  -1  -1   5 3.67929 34.1996  17
  -1  -1   5 5.43144 12.7719   6
   1  -1   5-6.51816 56.5400   6
  -1   1  -5 12.3725 70.9431  20
   1   1  -5-3.07067 23.3618  18
   1  -1   5 10.4400 52.8325   8
   1  -1   5-6.96394 21.6648  17
   1  -1   5 5.99497 15.7494  14
  -1   1  -5 28.5329 82.7603  15
   1   1  -5 4.27083 53.9460  20
  -1   1  -5 2.24126 27.0829  19
   1  -1   5 5.78594 18.4798   2
  -1  -1   5 2.27429 34.1910   2
   1   1  -5-12.4500 11.4039  10
  -1   1  -5 0.09511 12.7240  18
  -1  -1   5 9.06508 16.1719   5
   1   1  -5 2.12545 25.2447   1
  -1   1  -5 39.6581 62.3671   7
   1   1  -5 16.6045 66.3303  11
  -1   1  -5 26.7020 72.9144  10
  -1   1  -6 391.780 164.054   9
  -1  -1   6-13.7438 65.2388   6
   1   1  -6 310.412 138.561  18
  -1   1  -6 236.614 111.870  11
  -1  -1   6 374.969 180.811  17
   1  -1   6 253.309 132.722   8
  -1   1  -6 135.059 70.8746  18
  -1  -1   6 433.551 161.178   2
  -1   1  -6 297.300 182.889  20
   1   1  -6 365.326 152.810  10
   1  -1   6 303.560 121.657  17
  -1   1  -6 300.717 155.375  10
   1   1  -6 291.325 155.073  20
  -1  -1   6 256.084 136.593  16
  -1   1  -6 165.728 140.997  15
   1  -1   6 217.549 122.869   6
   1  -1   6 420.137 138.381   2
   1   1  -6 328.637 157.540  11
  -1   1  -6 133.045 74.7359   7
   1   1  -6 330.241 113.648   1
   1   1  -6 445.798 205.512   9
   1  -1   6 48.8285 32.9396  14
   1  -1   6 345.872 167.369  16
   1   1  -7 3.97601 44.7484  11
  -1   1  -7-2.05582 24.2036  11
  -1  -1   7 25.2236 52.5836  17
  -1  -1   7-17.9193 35.0989  16
   1   1  -7 19.1651 69.8666  20
  -1   1  -7 11.5295 50.0844   9
   1   1  -7 6.35068 29.5562   1
  -1   1  -7 25.5263 85.1278  10
  -1   1  -7 2.23133 12.2467  18
   1   1  -7 28.9485 53.7839  10
   1   1  -7-28.0190 28.9277   9
   1  -1   7-4.77203 16.8284  17
  -1   1  -7 12.8086 42.9315  20
   1  -1   7-1.77324 38.6734   6
   1  -1   7-7.13205 95.9577   8
   1  -1   7 15.9763 36.1577   2
   1  -1   7-47.6880 83.1911  16
  -1  -1   7-1.33777 49.5842   2
   1   1  -7 0.69922 43.1506  18
  -1   1  -8 245.733 124.084   9
   1   1  -8 225.078 108.195  10
  -1   1  -8 189.046 158.586  20
  -1  -1   8 631.030 240.515   2
   1  -1   8 278.019 133.573  17
  -1   1  -8 200.158 89.9409  10
   1   1  -8 285.127 151.472  18
   1  -1   8 202.114 140.262   6
   1   1  -8 347.595 189.113  11
   1   1  -8 207.905 114.975   9
   1   1  -8 219.624 163.486  20
  -1  -1   8 699.896 256.340  17
   1   1  -8 323.565 122.933   1
  -1   1  -8 193.639 107.854  11
  -1   1  -8 43.7905 52.1098  18
   1  -1   8 411.943 209.116  16
  -1  -1   8 427.969 215.490  16
   1  -1   8 648.277 214.365   2
  -1   1  -9-15.5957 126.541  20
   1   1  -9-4.21641 62.3942  10
   1   1  -9 16.8261 70.3622  11
   1  -1   9-16.2466 28.4444   6
  -1   1  -9 8.10876 100.907   9
   1   1  -9-2.84345 36.0827   9
  -1  -1   9 15.7740 21.9646  17
   1   1  -9-55.7132 109.778   1
  -1   1  -9-8.37188 85.0742  11
   1   1  -9-214.819 176.472  20
  -1  -1   9 2.14461 23.2511  16
  -1   1  -9-24.7060 117.023  10
  -1  -1   9-0.45958 38.7452   2
   1  -1   9 43.3586 88.6448   2
   1   1  -9 6.52201 45.1200  18
   1  -1   9-15.6118 18.0760  16
   1  -1  10 177.870 50.7877   6
   1  -1  10 1371.54 352.809   2
   1   1 -10 506.829 233.225   9
   1   1 -10 423.460 196.210  18
  -1  -1  10 1049.92 380.190  16
  -1   1 -10 324.387 175.018   9
  -1  -1  10 1443.23 389.180   2
   1   1 -10 210.860 166.019  10
   1  -1  10 1193.01 406.333  16
   1   1 -10 96.9392 220.871  20
  -1   1 -10 278.527 157.216  10
  -1   1 -10 307.824 202.685  20
  -1   1 -10 80.6777 121.654  11
   1   1 -10 588.625 247.005  11
  -1  -1  10 1586.19 440.568  17
  -1  -1  11 12.9393 114.068   2
  -1  -1  11-36.7695 60.9647  17
   1   1 -11 0.28773 109.194  10
   1   1 -11-20.6139 80.4894  11
  -1  -1  11 28.2747 148.409  16
   1   1 -11 39.2964 119.802   9
  -1   1 -11-37.8712 105.897  10
   1  -1  11 8.79488 91.8006  16
  -1   1 -11 39.4688 52.3524   9
   1  -1  11 23.7994 16.7715   2
   1  -1  11-55.2718 199.001   6
   1   1 -11 7.71491 58.5495  18
  -1   1 -12-105.471 388.879  20
   1   1 -12 644.082 290.824  11
  -1   1 -12 435.859 251.929   9
   1  -1  12 3553.23 618.185   2
  -1   1 -12 259.115 136.567  10
  -1  -1  12 3324.11 652.385   2
  -1  -1  12 3732.96 736.499  17
   1   1 -12 535.860 252.226   9
   1  -1  12 3082.07 706.806  16
   1   1 -12 425.677 204.340  18
  -1  -1  12 2701.07 658.466  16
   1   1 -12 223.725 75.7907  10
   1  -1  13 123.594 194.104  16
  -1  -1  13 233.766 329.525  16
  -1   1 -13-94.8672 196.385   9
   1   1 -13-41.2321 145.995  18
  -1  -1  13 34.9383 28.6669  17
  -1  -1  13 96.7282 204.239   2
   1   1 -13 187.777 224.515   9
   1   1 -13 165.217 191.076  11
   1   1 -13-110.354 241.279  10
   1  -1  13-47.2310 110.634   2
   1   1 -14-218.608 447.739  10
  -1   1 -14-125.651 345.827  10
  -1  -1  14 2927.64 676.717  17
   1   1 -14 240.691 154.754   9
  -1  -1  14 2482.45 654.130  16
  -1  -1  14 3043.88 684.583   2
   1  -1  14 2866.96 720.963  16
   1  -1  14 3192.03 610.498   2
  -1  -1  15 604.444 374.636   2
   1  -1  15 165.517 206.008   2
   1  -1  15 121.005 180.842  16
   1   1 -15-115.048 296.972  11
  -1   1 -15-339.525 334.868   9
   1   1 -15 9.00731 124.482   9
  -1   1 -16-354.727 423.279   9
  -1  -1  16 2574.45 657.118   2
   1   1 -16-377.319 415.482   9
  -1  -1  16 1786.18 613.799  16
   1  -1  16 2495.67 616.145   2
   1  -1  16 1961.47 664.298  16
  -1  -1  17 345.393 288.825   2
  -1  -1  17 914.770 439.728  16
   1  -1  17 92.4375 126.050   2
   1  -1  17 217.878 230.309  16
   1  -1  18 1194.11 444.896   2
  -1  -1  18 1085.24 546.861  16
   1  -1  18 1084.08 498.456  16
  -1  -1  18 1344.85 538.359   2
  -1  -1  19 196.457 332.533  16
   1  -1  19 59.2137 89.5419   2
   1  -1  19 18.7058 178.257  16
  -1  -1  19-37.1160 140.323   2
   1  -1  20 253.754 251.452  16
  -1  -1  20 251.188 270.827   2
  -1  -1  20 357.024 437.785  16
   1  -1  21 365.523 471.307  16
  -2   0   0 8654.14 629.991   5
  -2   0   0 8569.38 566.113  19
  -2   0   0 8165.68 591.229   4
   2   0   0 8312.09 531.154  14
  -2   0   0 7170.65 485.927  17
   2   0   0 10159.2 651.358   8
   2   0   0 8268.04 539.514   1
   2   0   0 8773.58 460.965  18
   2   0  -1 2.34048 18.0465  18
   2   0   1-5.58789 25.0153  14
   2   0   1-4.77217 23.5826   1
  -2   0   1 0.27257 22.4618   4
   2   0   1-4.18751 21.4667   6
   2   0   1 3.21498 22.4415   8
  -2   0  -1-2.05929 10.8751  19
  -2   0   1 11.0711 25.9851   5
  -2   0   1 3.13977 15.3764  19
   2   0  -1 3.28035 10.5437   1
   2   0  -1-3.67819 8.50042   8
  -2   0  -1 11.9037 26.5633   4
  -2   0   1-3.86010 29.4948  17
   2   0  -1-8.76824 24.9439  14
  -2   0  -1 28.1349 53.5912  15
  -2   0  -1-11.4463 41.8654   5
  -2   0   1 9.45996 22.3357   2
   2   0  -1 7.93567 22.4864  11
  -2   0   2 2946.74 288.325  19
   2   0   2 1999.57 311.345  14
   2   0  -2 359.636 114.994   9
  -2   0  -2 1868.39 357.428   7
   2   0  -2 2889.23 341.808   1
   2   0  -2 1975.65 260.079   8
  -2   0  -2 415.526 121.481  20
   2   0   2 1455.16 257.708   1
  -2   0  -2 1400.27 290.989   4
   2   0  -2 3243.48 308.200  14
   2   0  -2 2551.48 326.552  18
  -2   0  -2 1221.20 248.866  19
   2   0   2 2408.04 388.518   8
   2   0  -2 2225.25 321.222  11
  -2   0   2 2520.31 357.962  17
  -2   0  -2 1963.20 379.385  15
   0   2  -2 1110.81 229.401   3
  -2   0   2 2197.63 285.639   2
   2   0   2 1729.86 271.454   6
  -2   0   2 2809.48 345.594   5
   2   0   2 1634.53 227.788  16
   0   2  -3-1.20176 10.6569  12
   2   0  -3 5.29324 14.0080   1
   2   0  -3-15.0979 50.7857   9
   0   2  -3 9.33895 26.6809  13
   2   0  -3 2.02744 15.2500  14
   0  -2   3-0.43342 25.4475   6
  -2   0   3-9.15382 35.5915   2
   2   0   3 18.7776 50.0269  14
  -2   0   3-1.22768 43.3584  17
   2   0  -3-1.79629 14.9018  11
  -2   0   3-1.28718 23.9315  19
   2   0   3-2.33282 10.5069  16
   0   2  -3-4.66358 15.8987   3
  -2   0  -3-25.1106 84.1104  20
   2   0   3-32.7024 81.5324   8
  -2   0  -3-170.699 126.106  15
   2   0   3 0.86192 22.9191   6
   2   0  -3-6.14047 22.2699  18
   0  -2   3-3.97009 48.5087  16
   0  -2   4 808.822 233.094   2
   0   2  -4 1054.91 193.125  12
   2   0  -4 377.841 165.932  11
   2   0  -4 675.753 139.836  14
   2   0  -4 619.354 173.281   1
   0   2  -4 933.472 211.296  18
   2   0  -4 509.693 175.252  18
   2   0   4 180.539 119.674  14
  -2   0   4 633.823 184.744   2
   0  -2   4 876.651 241.181  16
   0  -2   4 1291.84 234.290   6
   2   0  -4 77.8971 43.9413   9
   0   2  -4 1087.19 259.662  13
   2   0   4 356.315 148.112  16
   2   0   4 303.831 141.674   6
  -2   0   4 834.530 252.646  17
   0   2  -4 1300.59 258.427   3
   2   0   5-21.1021 66.4011  16
   2   0   5-10.0718 32.1297   6
   2   0  -5-16.2185 66.1165  11
   0   2  -5-9.82556 31.8124  18
   0   2  -5 12.4617 66.5613   3
   2   0  -5-13.0315 61.6219  18
   0  -2   5 21.5402 36.7907   6
  -2   0   5 4.80181 32.2726  17
   0   2  -5 21.5349 42.6929  12
   0  -2   5 2.57150 13.0753  17
   0  -2   5 18.8818 42.0573   2
   0  -2   5 18.0190 46.0774  16
   2   0  -5-6.26397 46.1143   9
  -2   0   5-18.4893 104.617   2
   2   0   6 42.0577 22.8979   6
  -2   0   6 157.128 74.8657   2
   0  -2   6 600.442 134.608   8
   0  -2   6 583.143 206.590  17
   0  -2   6 484.819 169.122   6
   0   2  -6 584.676 176.160  18
   2   0  -6 68.6061 70.1505  11
   2   0  -6-11.0957 115.421   9
   2   0  -6 169.927 115.547  18
   2   0   6 172.994 133.696  16
   0  -2   6 581.459 218.076  16
   0  -2   6 703.829 232.657   2
  -2   0   6 355.306 179.748  17
  -2   0   7-85.4805 162.801  16
   0  -2   7-1.83496 47.2728   2
   2   0   7-189.333 138.251   6
   2   0   7 9.63234 55.5598  16
   0   2  -7 114.696 176.431   7
   0  -2   7-19.0960 21.9346  17
   0   2  -7 5.03728 28.3023  18
   0  -2   7-22.9521 55.6031   6
   0  -2   7 2.95398 33.5241  16
   0   2  -7 0.34339 30.0216   1
   2   0  -7-8.99981 51.2397  18
   2   0  -7-34.7388 146.976   9
   0   2  -7 10.4269 55.2090  11
   0  -2   7 10.6274 11.6770   8
  -2   0   7-33.0439 62.5267  17
   2   0  -7 16.8566 13.9507  11
   0   2  -7 72.5615 141.482  15
   0   2  -8 61.5883 101.902  20
   0   2  -8 15.2142 26.4387   1
   0  -2   8 12.3542 60.4992  17
   0  -2   8 23.5753 43.6716  16
  -2   0   8-51.4261 110.896  17
   2   0   8-20.7276 40.6502  16
   2   0   8-99.5065 196.119   6
   2   0  -8-7.13953 46.7918  18
   0  -2   8-2.62986 43.8117   2
   0   2  -8 59.5570 158.536   7
   0   2  -8-6.62310 90.7882  15
   0  -2   8-26.2034 55.0561   8
   2   0  -8-35.5313 160.043  11
   0   2  -8-19.8732 55.3900  11
   0  -2   8-16.4885 29.1115   6
   0   2  -8-29.3299 52.1354  18
   0   2  -9 308.045 292.572  10
   0  -2   9 37.7396 154.285  16
   0  -2   9 80.4789 135.685   8
   0   2  -9 97.8912 195.584  15
   2   0   9 7.54151 88.8239  16
  -2   0   9-45.0744 160.489  17
   0  -2   9 66.5937 149.554   6
   0  -2   9 100.239 201.283  17
   0   2  -9 212.762 211.970  11
   0   2  -9 34.6439 63.3134   1
   0   2  -9 35.3272 107.010  18
   0  -2   9 77.6941 133.214   2
  -2   0   9-97.2959 205.902  16
   0   2  -9 392.844 319.386  20
   0   2  -9-25.1583 120.978   7
   0  -2  10 1102.99 351.885   6
   0  -2  10 3520.18 678.534  16
   0  -2  10 3477.33 604.109  17
   0   2 -10 2525.10 628.034  20
  -2   0  10 2042.83 538.177  17
  -2   0  10 363.183 132.692  16
   0  -2  10 3274.32 438.418   8
   0   2 -10 3599.92 587.781  11
   2   0 -10 90.3089 212.120  11
   2   0 -10 95.5693 102.170  18
   0   2 -10 2478.31 544.236  10
  -2   0  10 1512.56 410.320   2
   2   0  10 1221.85 437.415  16
   0   2 -10 2273.90 426.519  18
   0   2 -10 2429.21 288.520   1
   0  -2  10 3879.38 627.702   2
   0   2 -10 3668.44 645.117   9
   0   2 -11-88.5161 121.381  11
   0  -2  11-6.64467 101.176   2
   0   2 -11 34.3448 51.5216   1
   0   2 -11-5.83840 44.1003  18
   0  -2  11-57.6851 77.8033   8
  -2   0  11-129.353 252.424   2
   0  -2  11-10.3988 87.3180   6
   0   2 -11 56.0322 175.547  10
   2   0  11-1.70031 108.517  16
   0   2 -11-9.64513 120.514  20
   0  -2  11-43.1244 120.024  17
   0  -2  11 110.169 171.365  16
   0   2 -11 27.6795 87.8889   9
  -2   0  11-51.2587 161.807  16
   0  -2  12 370.389 215.657   6
   0   2 -12 811.659 358.586  20
   0  -2  12 1291.22 276.629   8
   2   0  12 947.105 428.753  16
   0   2 -12 771.800 275.180  18
   0  -2  12 1811.76 533.572  16
   0   2 -12 938.893 371.813  10
   0   2 -12 1246.48 361.622  11
  -2   0  12 829.990 232.496   2
   0  -2  12 2098.29 484.260  17
   0   2 -12 954.119 200.756   1
   0   2 -12 1240.35 406.236   9
   0  -2  12 2050.14 491.770   2
   0  -2  13-54.9827 75.0520   2
   0   2 -13-91.4639 108.666   9
   0   2 -13 19.6049 59.9134   1
   0  -2  13-349.280 226.734   6
   2   0  13 121.160 250.373  16
   0   2 -13-27.9382 84.7397  20
   0   2 -13 48.1165 124.437  11
   0   2 -13 30.9624 78.8662  18
   0  -2  13 100.249 181.903  16
   0  -2  13-245.051 189.238   8
   0  -2  13 39.4983 107.751  17
   0   2 -13 167.943 194.109  10
   2   0  14 1139.81 489.977  16
   0  -2  14 1952.57 502.926  17
   0   2 -14 348.264 227.090  10
   0   2 -14 523.251 237.975   9
   0  -2  14 62.9376 204.365   8
   0   2 -14 490.527 207.820  11
   0  -2  14 1621.89 536.868  16
   0   2 -14 319.793 178.403  18
   0  -2  14 2020.98 503.493   2
   0   2 -14 437.849 150.990   1
   0   2 -14 71.6041 152.793  20
   0   2 -15 35.0090 46.7310   1
   0  -2  15 43.6397 139.578   2
   0   2 -15-53.6821 130.746  18
   0   2 -15-357.412 390.205  20
   0   2 -15 32.6029 22.0206  11
   0  -2  15 124.703 187.587  16
   0   2 -15 81.6218 159.233   9
   0   2 -15-44.3487 109.346  10
   0  -2  15 15.5303 117.637  17
   0   2 -16-83.4964 221.578  18
   0  -2  16 930.474 448.782  16
   0  -2  16 592.662 236.206  17
   0   2 -16 119.645 77.4173   1
   0   2 -16 14.9306 67.2369  11
   0   2 -16 215.471 217.989   9
   0   2 -16 155.404 151.554  10
   0  -2  16 774.979 366.252   2
   0   2 -17-137.424 237.968   9
   0  -2  17 188.228 247.661   2
   0  -2  17 52.0518 198.735  16
   0   2 -17 20.7231 19.8605   1
   0   2 -17 25.3827 195.832  10
   0  -2  18 76.4245 153.668  16
   0   2 -18 6.63106 71.9877   1
   0   2 -18-180.840 379.483  10
   0  -2  18 196.429 170.111   2
   0   2 -18-67.6813 245.024   9
   0  -2  19 221.343 267.424  16
   0  -2  19-79.6889 174.248   2
   0   2 -19-81.0824 76.8024   1
   0   2 -19 197.403 191.278   9
   0   2 -20 34.4814 63.3912   1
   0  -2  20 127.078 174.571   2
   0  -2  20-92.0905 183.215  16
   0  -2  21 47.4216 23.5006   2
   0  -2  21-465.824 560.295   8
   0  -2  21-123.705 260.730  16
  -2   1   0 66.6348 41.1228  12
   2   1   0 79.3270 64.6118   1
   2  -1   0 124.440 70.4779   8
   2  -1   0 167.496 74.9165  14
   2   1   0-7.25652 38.0075  14
  -2   1   0 213.270 85.4945  19
   2  -1   1 4024.46 378.737  14
   2  -1   1 3249.52 309.433   1
   2   1  -1 2696.33 383.352   1
   2  -1   1 4145.35 389.288   6
  -2   1  -1 3137.11 350.327   4
  -2   1   1 2295.31 281.194  19
  -2  -1   1 1908.27 364.563   5
  -2   1  -1 3408.09 323.435  12
  -2  -1   1 2483.72 349.699   2
  -2   1  -1 3591.11 356.561  19
  -2   1  -1 2536.11 293.432   3
   2   1  -1 1769.43 294.516   8
   2  -1   1 3515.62 415.061   8
  -2   1  -1 3080.80 336.988   5
   2   1  -1 3054.54 380.067  18
   2   1  -1 330.221 129.748  14
   2   1  -1 2677.65 305.963  13
   2  -1   2 34.1489 37.8955  14
  -2   1  -2 38.4646 38.4329   3
  -2   1  -2 45.0182 35.3284   5
  -1   2  -2 15.8048 21.9280   3
  -2  -1   2 29.3579 49.5978  19
   2   1  -2 30.3319 36.9663   1
  -2   1  -2 27.7481 15.5348  19
  -2  -1   2 26.3909 40.3700   4
   2  -1   2 29.0960 39.2779   8
  -2   1  -2 30.5209 30.0754   4
   2  -1   2 32.6983 42.1556  16
   1   2  -2 18.3180 1.01983  13
   2   1  -2-2.10468 27.4867  14
  -2  -1   2 38.7023 70.1793  17
   2  -1   2 29.3106 31.6607   1
  -1   2  -2 14.8179 20.4381  12
  -2   1  -2 41.0960 44.2338  12
   2   1  -2 20.6099 16.1925  18
   2   1  -2 47.7864 44.9529  13
  -2  -1   2 27.6486 28.0760   2
   2  -1   2 36.5885 36.9203   6
  -2  -1   2 16.2652 18.5890   5
  -2  -1   3 1608.71 232.486  16
   2  -1   3 1820.41 261.511  14
   1   2  -3 1519.55 298.625  13
  -2   1  -3 1623.68 285.739   4
  -2  -1   3 1511.14 326.524  17
   1   2  -3 1237.47 229.442   3
  -1  -2   3 605.162 179.367  16
   1  -2   3 1360.43 250.007   6
  -2  -1   3 1724.16 304.242   2
   1  -2   3 818.253 223.965  16
  -2  -1   3 1731.35 219.179  19
  -2   1  -3 1669.88 254.870   5
  -1   2  -3 741.678 207.772  13
   2   1  -3 738.035 159.913  14
  -1   2  -3 1657.65 300.040   3
   2  -1   3 1686.77 284.606  16
   2  -1   3 1951.05 341.284   8
   2   1  -3 1614.92 284.562   1
  -1   2  -3 1503.04 241.107  12
  -2  -1   3 1669.85 305.587   5
   1  -2   3 739.411 179.440   8
  -2   1  -3 1614.47 263.397  19
   2  -1   3 1860.42 303.685   6
  -2  -1   3 1399.00 225.056   4
   2   1  -3 1619.98 294.083  18
   1   2  -4 29.2475 21.8263  12
  -2  -1   4 51.5064 62.3784   2
  -2  -1   4 37.0221 31.0495  19
   2  -1   4 45.0602 60.7566  16
  -1   2  -4 32.7567 21.4089  19
   1  -2   4 27.3762 28.1881  16
   1   2  -4 39.0493 63.8214  18
  -2   1  -4 20.0218 31.0768  19
  -1   2  -4 28.4632 41.4515  13
   1  -2   4 10.7722 21.7514  14
   1   2  -4 8.97494 20.8583   1
   1   2  -4 31.8948 34.6557   3
  -2   1  -4 52.3528 61.3875   4
  -2  -1   4 41.5565 68.9023  17
   2  -1   4 30.9759 29.0860  14
  -1  -2   4 4.97823 47.2561   2
   2   1  -4 38.3824 48.0710   1
   2   1  -4 35.9806 26.2966  14
   1  -2   4 35.5757 38.5232   8
   1  -2   4 42.3007 55.4972   6
  -1  -2   4 52.7874 81.8178  17
   2  -1   4 29.8334 25.0297   8
  -1   2  -4 33.2286 8.12670  12
  -2  -1   4 36.4705 49.7653  16
   1   2  -4 46.6809 73.0074  13
   2   1  -4 21.4995 33.1188  18
  -1  -2   4 48.2218 38.7867   6
  -2   1  -4 62.0140 61.2701   5
  -2  -1   4 56.4556 50.3553   5
  -2  -1   4 36.6142 37.8870   4
   2   1  -4 51.8369 79.7569  20
  -1   2  -4 55.9657 64.6824   3
  -1  -2   4 21.2149 21.3476  16
   2   1  -4 72.9818 83.3781  11
   2  -1   4 46.6202 45.7254   6
   1  -2   5 116.031 77.5663   2
   1  -2   5 184.363 106.731  17
   2  -1   5 130.197 58.5809   2
  -1  -2   5 95.7301 78.0463  16
  -1   2  -5 134.960 61.6011  19
   1   2  -5 173.416 101.656   3
  -2   1  -5 233.577 142.719   9
   1   2  -5 114.403 91.1544  18
   1  -2   5 149.728 63.8259  14
   2   1  -5 89.9313 89.2284  20
  -1   2  -5 134.196 82.4735  12
   1  -2   5 163.404 105.089   6
   1  -2   5 156.257 116.939  16
  -2   1  -5 83.4184 81.5975  19
  -2   1  -5 169.653 149.926  15
  -2   1  -5 128.048 118.838  20
  -2   1  -5 272.438 204.235   7
   2  -1   5 137.550 99.8082  16
   2   1  -5 135.487 93.5994  11
   2   1  -5 273.815 188.582   9
  -2   1  -5 114.414 91.4542  10
   1   2  -5 135.935 58.5008  12
  -2  -1   5 131.205 106.810  17
   2  -1   5 128.276 76.8728  14
  -2  -1   5 71.0849 56.3943  16
  -1   2  -5 140.770 67.2991   4
  -1   2  -5 102.941 85.2926  13
  -1  -2   5 138.988 103.290   2
   2   1  -5 144.705 84.6693   1
  -1   2  -5 146.107 76.2151  18
  -2  -1   5 69.4893 32.1216  19
  -2  -1   5 128.511 86.7665   2
   2   1  -5 109.844 75.5219  10
  -1   2  -5 185.463 118.131   3
   2  -1   5 187.508 124.780   8
   2   1  -5 126.250 95.7811  18
  -1  -2   5 116.862 69.0945   6
   2  -1   5 155.595 114.940   6
  -2   1  -5 55.1993 44.2815   4
   1   2  -5 46.6368 40.8054   1
   1  -2   5 123.587 76.2475   8
  -2  -1   5 144.629 90.0504   5
  -1  -2   5 131.272 93.8032  17
  -2   1  -5 65.2600 41.8576  11
   2   1  -5 100.014 50.5585  14
   2   1  -6 64.5494 80.4079   9
   1  -2   6 62.1872 65.8461  16
   2   1  -6 35.6367 24.8882   1
   2  -1   6 41.6908 76.8421   8
   1  -2   6 65.7493 38.0761  14
   1  -2   6 63.8747 55.8296  17
   2  -1   6 60.0496 68.7008  16
   2  -1   6 15.7266 23.5048   6
  -2   1  -6 31.5841 79.2588  20
   2   1  -6 66.1493 39.3953  14
  -1  -2   6 91.0629 92.2356  17
   1   2  -6 35.7494 39.8926   1
  -1   2  -6 76.4441 56.1519  18
   1  -2   6 68.8666 65.7878   6
   1  -2   6 58.6346 52.8055   2
   2   1  -6 56.1984 60.7419  18
  -2   1  -6 67.4848 84.2101  10
  -1  -2   6 84.4165 91.8413   2
  -1   2  -6 73.3378 45.0618  19
  -1  -2   6 27.3411 44.5930   5
  -2   1  -6 32.6193 65.6401   9
  -2   1  -6 35.3358 62.0949   7
   2  -1   6 61.7274 42.0199  14
  -2   1  -6 7.35520 37.2390  11
  -1   2  -6 81.6208 59.0424   4
  -2  -1   6 30.0563 47.1113  16
  -2  -1   6 57.2381 53.0947   5
  -2   1  -6 54.3784 56.9668  19
   1   2  -6 47.1927 42.7437  18
   2   1  -6 47.4650 50.7459  11
   2  -1   6 65.3422 56.7046   2
   1  -2   6 73.5066 81.1538   8
  -1  -2   6 70.8815 58.6669  16
   2   1  -6 43.7363 101.208  20
  -1  -2   6 53.1744 51.5039   6
  -2  -1   6 77.4698 85.4537   2
  -2  -1   6 47.8631 89.8694  17
  -2   1  -6 17.4128 67.0841  15
   2   1  -6 46.4655 73.0810  10
   1   2  -7 373.071 154.479  18
  -1   2  -7 391.507 126.358  19
   1  -2   7 366.467 104.571  14
   2   1  -7 341.859 147.099   1
  -1  -2   7 363.931 128.695   5
   1   2  -7 302.368 184.180   7
   1  -2   7 511.725 184.983   8
   2  -1   7 287.459 118.470   2
  -2   1  -7 52.5281 13.0665  11
  -2   1  -7 214.259 116.827   9
   2  -1   7 273.343 145.248  16
   1  -2   7 369.627 163.359   6
   1  -2   7 414.885 202.471  16
  -1  -2   7 463.404 199.965   2
   2  -1   7 134.220 103.073  14
  -2  -1   7 435.462 213.207  17
  -2  -1   7 286.522 162.196  16
  -1  -2   7 221.106 117.095   6
  -2   1  -7 73.8789 50.9131  15
   2   1  -7 149.976 67.4437  10
   1   2  -7 285.211 172.709  15
   1   2  -7 257.507 103.946   1
  -2   1  -7 221.828 153.417  20
   2  -1   7 354.048 214.204   8
   2   1  -7 336.730 89.0561  14
  -1  -2   7 393.408 194.983  17
   1  -2   7 379.950 150.619  17
   1  -2   7 447.227 171.071   2
   1   2  -7 468.291 250.183  20
  -2   1  -7 2.99100 105.345  19
  -1  -2   7 402.672 194.783  16
  -2   1  -7 46.9424 163.889   7
   2  -1   7 192.948 117.763   6
  -1   2  -7 370.702 131.012  18
  -1   2  -7 31.3128 59.9857   4
  -2  -1   7 284.804 103.658   5
   2   1  -7 229.599 169.013   9
   2   1  -7 72.8079 47.6978  20
  -2   1  -7 141.629 86.4404  10
  -1   2  -7 485.665 188.348  11
   2   1  -7 269.414 138.638  18
  -2  -1   7 294.832 160.171   2
   1   2  -7 626.000 265.174  11
   2   1  -7 328.292 169.020  11
   2  -1   8-0.16601 32.9906   2
   1  -2   8 23.8327 101.466  16
   1   2  -8-77.1675 160.236  15
   2   1  -8 3.51522 35.3081  18
   1   2  -8 4.72147 68.7188  11
  -2   1  -8-7.63521 94.7256  10
   2   1  -8-30.9224 113.410  11
  -2  -1   8-14.4471 105.089   2
   1  -2   8-32.1766 49.8041   2
  -1  -2   8 24.6189 66.8846   6
  -1   2  -8 56.1834 147.494  15
   2  -1   8-15.3373 68.9699  14
  -1  -2   8 8.77576 38.8303   2
   1  -2   8-8.11123 19.3603  17
   1  -2   8 16.6980 24.0771  14
  -2  -1   8-48.8303 97.8546  16
   2  -1   8 8.25706 56.7369   8
   2   1  -8-39.5359 128.371  10
   1   2  -8 103.639 153.867  20
  -2   1  -8-7.27586 52.6754  20
   2   1  -8 49.3043 108.977   9
   2  -1   8-35.6530 34.7546   6
   1   2  -8-112.843 188.941   7
  -2   1  -8-65.0819 123.447   9
  -2  -1   8 5.21794 70.6634  17
  -1   2  -8 98.6257 173.574   7
   1   2  -8-3.39511 30.9982  18
   2  -1   8-55.2229 109.567  16
  -1  -2   8-22.0572 24.9870   5
   1  -2   8-43.1082 73.8600   6
  -1   2  -8 17.6963 33.4911  19
  -1   2  -8-3.44366 47.9384  11
  -1   2  -8 56.5434 154.480  20
   2   1  -8-78.9598 154.661  20
   1   2  -8 140.742 221.033  10
  -1  -2   8-40.3749 114.560  17
   2   1  -8-5.90797 4.26498  14
  -1  -2   8-25.3057 8.06386  16
   1   2  -8 2.48342 23.0666   1
   1  -2   8-15.0389 53.2973   8
  -1   2  -8-2.64808 42.7085  18
   2   1  -8-10.6537 53.6563   1
   2   1  -9 35.0073 72.9025   1
   2   1  -9-6.75268 113.317  10
   2   1  -9 71.5922 128.890  11
   1  -2   9 9.93654 30.3913  14
  -1   2  -9 81.5452 194.137  10
  -1   2  -9 12.8945 50.3703  18
  -1  -2   9 5.39073 59.8328   6
   1   2  -9 49.5332 114.766  10
   2   1  -9-13.3170 52.7632  18
   1   2  -9-10.5100 17.7857  11
   1   2  -9 11.7203 39.1012  20
  -1   2  -9-28.1807 127.401  20
  -2   1  -9-20.3313 59.9952   9
   2  -1   9-5.69197 87.1159   6
  -2   1  -9-12.2135 83.8536  10
  -1  -2   9 5.56772 37.9193  17
   1  -2   9-7.99360 56.5871  17
  -1  -2   9 19.3825 27.2493  16
   1  -2   9 2.36025 87.2049  16
   1   2  -9-4.55178 38.5821  18
   2   1  -9-27.0599 5.48799   9
  -1  -2   9 41.6137 87.3651   2
   2  -1   9-35.9894 68.5292  16
   2   1  -9-108.372 265.873  20
  -2  -1   9-45.9832 99.3862  17
  -1   2  -9-4.60895 53.8465  11
  -1   2  -9-31.8894 4.10213   7
   1  -2   9 4.51362 59.1956   2
   1  -2   9 7.32894 38.9538   8
   2  -1   9 4.79458 9.82485   2
  -2  -1   9-8.90561 29.1880   2
   1   2  -9-10.9464 18.7076   1
   2   1  -9-7.12951 27.3842  14
  -1   2  -9-1.43067 31.7085  15
  -2   1  -9-11.4377 70.5998  20
  -2  -1   9 43.0109 120.986  16
  -1   2  -9-3.09950 31.8444  19
  -1  -2   9 4.06255 6.64487   5
   2  -1   9 2.39321 54.3999   8
   1  -2   9 37.4311 77.2209   6
  -1   2 -10 37.6268 76.6501  20
   1   2 -10 333.179 339.541   9
  -1   2 -10 28.4463 33.8847  11
   1  -2  10 19.1064 17.5742   2
  -2  -1  10 32.9304 45.4530  16
  -2   1 -10 13.9544 82.2200  10
  -2  -1  10 28.5324 132.352  17
  -1  -2  10 48.6896 91.3299   2
  -2   1 -10-105.871 164.959   9
  -1  -2  10 40.7147 122.392  17
   2  -1  10-20.6711 118.855  16
  -1  -2  10 93.3724 149.668  16
  -1   2 -10 7.05475 84.3011  10
   1  -2  10 16.6478 20.9068   6
   2  -1  10-22.2023 76.4460   2
  -1  -2  10-0.57989 65.6813   6
   2   1 -10 74.7494 92.6334   1
   1  -2  10-8.01966 68.8355   8
  -1   2 -10 174.904 206.114   9
  -1   2 -10-174.972 362.628   7
   2  -1  10-91.1945 255.025   8
   1   2 -10-0.03436 34.7595  11
   1   2 -10 38.4395 65.4222  20
  -1   2 -10-56.4768 69.2715  19
   2   1 -10 46.8077 95.5560  11
   1  -2  10 72.9536 78.0998  16
  -1   2 -10-159.283 303.294  15
  -2  -1  10 17.7978 84.7018   2
   2   1 -10 14.4207 29.8353  10
   2   1 -10-17.1444 65.6755   9
   1   2 -10 118.209 182.718  10
   2  -1  10 20.8532 60.4926   6
  -2   1 -10 54.8822 14.3308  20
  -1  -2  10-109.804 123.920   8
  -1  -2  10 64.6479 67.1592   5
   1  -2  10-8.08126 28.7504  17
   2   1 -10 28.0397 53.5447  18
  -1   2 -10 32.1947 2.07631  18
   1   2 -10 39.4388 43.9673  18
   1   2 -10 33.5398 47.2081   1
   1  -2  11 1396.68 460.819  16
   1   2 -11 841.018 216.807   1
  -2  -1  11 1491.65 480.969  17
  -1   2 -11 410.614 164.762  18
   1  -2  11 1446.75 364.747  17
   1  -2  11 1526.46 338.326   8
  -2   1 -11 140.044 101.224   9
  -2  -1  11 1180.60 393.609   2
  -2   1 -11 179.117 127.192  10
   2  -1  11 1165.75 296.148   2
  -1  -2  11 1538.82 450.589  17
  -1   2 -11 707.345 299.311  10
  -1   2 -11 1032.53 332.552   9
  -1  -2  11 1535.09 436.656   2
   1  -2  11 1685.23 376.338   2
  -1   2 -11 649.071 363.861  20
  -2  -1  11 988.910 372.120  16
   2  -1  11 535.340 267.675   6
  -1   2 -11 586.561 120.621   1
  -1   2 -11 871.156 260.834  11
   2   1 -11 380.033 191.670  18
   2   1 -11 443.852 259.424  11
   2   1 -11 45.8438 133.160  10
   2   1 -11 416.293 166.961   1
   1   2 -11 1192.06 416.461   9
  -1  -2  11 1212.55 417.281  16
   2  -1  11 214.674 251.237   8
   1  -2  11 733.117 303.517   6
  -1  -2  11 1173.66 223.360   5
   2   1 -11 287.690 197.268   9
   1   2 -11 795.539 281.759  18
   1   2 -11 787.256 333.480  10
   2  -1  11 1006.15 401.021  16
   1   2 -11 1066.45 353.980  11
  -1  -2  11 9.13120 74.3216   6
   1   2 -11 768.331 353.541  20
  -1   2 -11 208.883 86.0483  19
  -2  -1  12 175.570 298.188  17
  -1  -2  12 76.0734 129.980  17
  -1   2 -12 26.4438 91.1663  20
  -2   1 -12-304.597 363.885  20
   1  -2  12-24.1090 58.3279   6
   1   2 -12-41.5342 82.6104  18
  -1   2 -12-18.3528 59.8078  11
  -1  -2  12-4.46796 36.4469   2
  -1  -2  12 90.1082 147.849  16
   1  -2  12 60.4006 84.9966   8
  -2   1 -12-25.9530 80.6955   9
   2  -1  12-0.68891 190.636   6
   1  -2  12-34.3015 58.8001   2
   2   1 -12 106.885 213.167  11
  -2  -1  12 74.0214 235.527  16
   2  -1  12-36.9953 62.3138   2
   2   1 -12-54.6457 166.774  10
   1   2 -12-60.3538 110.417  11
   1  -2  12 40.7690 142.054  16
  -1  -2  12-349.672 210.626   6
  -2  -1  12 39.9283 204.414   2
   1   2 -12 128.711 184.713  20
  -2   1 -12-88.9275 179.243  10
   2  -1  12 21.9508 104.706  16
   1   2 -12-7.02585 15.5997   1
  -1   2 -12-48.0423 117.643  10
   1  -2  12-34.1158 86.6871  17
   1   2 -12 163.111 212.524   9
   2   1 -12-50.2628 60.2717   1
  -1   2 -12-9.11010 22.8613   1
  -1   2 -12-82.2225 90.3918   9
   2   1 -12-23.0511 57.3364  18
  -1   2 -12 0.13130 56.1859  18
   1   2 -12 1.00725 133.822  10
   2   1 -12 245.996 341.599   9
   2  -1  13 172.970 74.0726   6
   2   1 -13 230.835 127.678   1
   2  -1  13 1129.70 437.674  16
   1   2 -13 550.189 240.553  18
  -1  -2  13 1468.51 437.594  17
  -1   2 -13 114.176 65.1831  18
  -1   2 -13 505.932 264.614  10
   1  -2  13 425.113 263.777   6
   2   1 -13 224.463 170.729  18
  -2  -1  13 1075.62 415.649  16
  -2   1 -13-109.615 237.791   9
   1   2 -13 670.731 212.969   1
   1  -2  13 1137.30 347.763   8
   1  -2  13 1617.97 418.608   2
   2  -1  13 1331.74 357.675   2
   2   1 -13-106.605 361.320  10
  -1   2 -13 389.356 196.821  11
  -1  -2  13 1239.24 439.928  16
   2   1 -13-14.1520 176.112   9
   1   2 -13 66.7559 81.2262  20
   1   2 -13 636.876 283.046  11
  -1   2 -13 233.971 54.2917   1
  -2  -1  13 1348.93 455.335   2
   1  -2  13 1674.80 519.178  16
  -1   2 -13 407.135 362.096  20
   1   2 -13 599.094 250.224   9
  -1  -2  13 1617.03 470.008   2
  -2  -1  13 1320.71 465.963  17
   2   1 -13 197.903 145.465  11
  -1   2 -13 609.146 278.591   9
   1   2 -13 421.504 250.105  10
   1  -2  13 1374.97 370.843  17
   1  -2  14-96.1542 123.452   8
   2   1 -14-12.0731 89.4880   1
  -1   2 -14 38.9683 83.3488  10
   2   1 -14-18.0750 113.136  11
  -2  -1  14 127.776 194.378   2
   1   2 -14 53.0484 208.112  10
   1   2 -14 117.831 182.793  11
   2  -1  14-7.29833 58.7712   2
   2   1 -14-39.1926 150.463  18
  -1   2 -14-9.61226 91.7925   9
   1  -2  14-330.085 235.304   6
   1  -2  14 119.411 118.674  16
  -1  -2  14 2.00168 113.653   2
   1   2 -14-82.5496 264.362  20
  -1  -2  14 194.136 204.468  17
   1  -2  14 72.2813 9.42495   2
   1   2 -14-22.6526 166.797   9
   1   2 -14 113.450 111.315   1
  -1   2 -14-183.298 267.009  20
  -1  -2  14 140.103 182.857  16
   1   2 -14 27.8155 63.2044  18
  -2  -1  14 47.7506 221.392  16
   2   1 -14-98.1068 187.981   9
  -1   2 -14-260.754 193.402  11
  -2  -1  14 88.2853 244.424  17
  -2   1 -14-282.368 293.802   9
   2  -1  14-13.7256 102.222  16
   1  -2  15 25.4442 213.231  17
   1  -2  15 874.901 331.414   2
   2   1 -15-19.7643 114.792   1
   2   1 -15-26.6232 155.822   9
   1   2 -15 83.0997 117.841  18
  -1   2 -15 187.228 227.321   9
   1   2 -15-703.163 419.893  20
   2   1 -15-121.670 242.905  18
  -1  -2  15 901.663 369.255  17
   1  -2  15 600.387 278.784   8
   2  -1  15 657.469 275.300   2
  -2  -1  15 509.864 266.683  17
   1   2 -15-6.01654 177.330  10
   2  -1  15 607.526 321.995  16
  -1   2 -15-21.9438 226.408  20
   1   2 -15 164.155 111.290   1
  -2  -1  15 527.216 338.763  16
  -1  -2  15 1009.87 378.748   2
  -1   2 -15 37.3894 94.7354  10
   1   2 -15-6.91961 172.612   9
  -1   2 -15 81.8614 72.6884  11
  -2  -1  15 616.356 345.685   2
   2   1 -15-380.531 273.642  11
   1  -2  15 890.208 445.506  16
   1   2 -15 246.630 206.895  11
   1  -2  15-7.96168 193.315   6
  -1  -2  15 524.775 292.171  16
   2  -1  16 30.8289 61.1051  16
   1   2 -16-56.2573 175.082  10
  -1  -2  16 269.845 195.141   2
   1   2 -16 116.176 131.440  11
   1  -2  16 196.480 239.823  16
  -2  -1  16 399.823 346.738  16
  -1   2 -16-61.8941 178.349  10
  -1  -2  16 166.582 113.718  16
   2   1 -16-123.579 279.331  11
  -1   2 -16-484.968 510.760  20
   1   2 -16 35.2620 48.0663  18
   2   1 -16-122.664 291.133   9
   2  -1  16 28.1974 34.7082   2
   1  -2  16 116.622 135.638   2
   1  -2  16-77.3786 192.247   8
  -1  -2  16 242.850 212.199  17
   1   2 -16-501.599 615.817  20
   1   2 -16 320.462 221.163   9
  -2  -1  16 99.5338 150.931   2
   1  -2  16-557.292 332.768   6
   1   2 -16 104.332 108.344   1
  -1   2 -16 7.36590 75.6833   9
  -1   2 -16-187.675 243.808  11
   1  -2  17 406.362 234.538   2
  -1  -2  17 137.835 166.639  16
   2   1 -17-543.569 533.620   9
  -1  -2  17 215.490 203.991   2
   1  -2  17 293.668 317.252  16
  -2  -1  17 246.412 201.794   2
  -1   2 -17-248.692 270.744   9
   1   2 -17 32.3169 130.918   9
   1   2 -17-11.4055 37.6199   1
   1   2 -17-121.151 222.150  11
   1  -2  17 49.7069 72.8999   8
  -2  -1  17 141.000 140.893  16
  -1   2 -17 40.0969 128.075  10
   2  -1  17 50.0886 88.1667  16
  -1  -2  17 52.9365 191.583  17
   1   2 -17-94.7348 232.969  18
   1   2 -17-33.6141 138.344  10
   2  -1  17 58.4703 70.5140   2
   1  -2  18-198.918 251.090   8
  -1   2 -18-85.3241 280.052   9
   1   2 -18-15.0995 48.0377   1
   1   2 -18-33.1132 114.744   9
  -1  -2  18 127.606 233.509  16
   2  -1  18 8.71081 140.620  16
  -2  -1  18-14.5123 76.7572   2
   1  -2  18 128.316 177.959   2
   1   2 -18-198.439 417.590  10
  -1   2 -18-621.996 375.630  10
  -1  -2  18-46.1722 120.942   2
   1   2 -18-527.544 339.066  11
  -1  -2  18-171.298 371.438  17
   2  -1  18 34.0182 27.6564   2
  -2  -1  18-90.5048 182.712  16
   1  -2  18-77.1157 232.488  16
   1   2 -19-772.859 676.295  10
   2  -1  19-25.0065 35.6987   2
   1  -2  19-103.795 191.555   2
   1   2 -19 22.1209 80.4387   9
   1   2 -19 32.1904 59.3477   1
   2  -1  19 146.666 209.052  16
  -2  -1  19 101.134 227.640   2
   1  -2  19-21.3075 94.0164  16
  -1   2 -19-225.383 336.686   9
  -2  -1  19 199.500 322.053  16
   1  -2  19 30.7101 96.7873   8
  -1   2 -19-561.068 636.813  10
  -1  -2  19 3.99250 116.930   2
  -1  -2  19-147.789 239.921  16
   1  -2  20-141.316 335.280   8
   1  -2  20-105.628 185.187  16
   1   2 -20-431.769 444.454   9
  -1  -2  20 86.6257 200.940  16
   2  -1  20-49.9414 235.553  16
  -2  -1  20 302.053 414.880  16
   1  -2  20 59.3344 74.0417   2
   2  -1  20-18.7562 195.479   2
  -2  -1  20 155.988 290.275   2
  -1   2 -20-488.035 483.302   9
  -1  -2  20-14.7632 127.014   2
   1   2 -20 43.0016 100.686   1
   1  -2  21 159.114 318.202  16
   2  -1  21 306.955 384.563  16
  -1  -2  21 286.129 317.853   2
  -1  -2  21 24.5744 135.172  16
   1  -2  21-48.1721 204.984   8
   1  -2  21 406.993 315.891   2
  -2   2  -1-7.22249 36.7918  12
   2   2  -2 74.7107 90.6152   1
   2   2  -2 388.338 161.374  13
   2  -2   2 443.387 153.956   6
  -2   2  -2 457.902 132.917  19
  -2   2  -2 412.977 154.933   3
   2  -2   2 351.188 147.895   8
  -2   2  -2 529.061 155.407  12
   2  -2   3-3.84414 21.0495  14
   2   2  -3-4.68399 47.4190  13
  -2   2  -3-9.50475 37.1923  13
   2   2  -3 16.8847 31.7233   3
   2   2  -3-14.7889 34.6222  18
  -2  -2   3 13.6580 43.1581   2
   2   2  -3 22.2389 27.8577   1
  -2   2  -3-1.26197 14.5873  19
  -2   2  -3 6.99400 42.8159   3
   2  -2   3 8.69836 32.3097   6
  -2   2  -3 3.35041 23.3030  12
   2  -2   3-18.1202 75.0542  16
   2  -2   3-6.41105 30.6455   8
   2   2  -4 113.788 99.9630  18
  -2   2  -4 111.961 55.4127  19
  -2  -2   4 68.6828 104.477  17
  -2   2  -4 81.1638 40.7616   5
  -2   2  -4 122.367 86.4354  12
   2   2  -4 116.488 95.6670  13
   2   2  -4 92.5148 85.3035   1
  -2   2  -4 101.040 69.2560   4
   2  -2   4 131.917 80.6501   6
   2  -2   4 101.105 57.6173  14
  -2  -2   4 62.5924 86.7369   2
  -2   2  -4 108.822 79.9014   3
  -2   2  -4 66.4146 62.5583  13
   2  -2   4 52.8154 55.5812  16
   2   2  -4 128.983 67.3092   3
   2  -2   4 76.4259 61.9800   8
  -2  -2   4 56.6641 54.1879  16
   2  -2   5 31.6730 56.3599   6
  -2   2  -5 5.53838 39.3828   4
  -2   2  -5 37.7696 76.4933  12
  -2   2  -5-24.3135 7.19960  13
   2   2  -5 4.86159 7.34470  12
  -2  -2   5 13.7454 76.7034  17
   2  -2   5 6.26696 31.5749  14
  -2  -2   5-33.4953 39.9415   2
   2   2  -5 9.03277 37.9248   3
   2  -2   5-5.93201 13.2897   8
  -2  -2   5-1.50233 25.9551   6
   2  -2   5 27.6982 79.6395  16
  -2   2  -5-8.17815 11.2513   5
  -2  -2   5 19.6355 27.7864   5
  -2   2  -5 3.34930 38.1864   3
  -2  -2   5 9.49694 35.3956  16
   2   2  -5-5.34149 50.4172  18
  -2   2  -5 10.4117 33.9001  19
   2   2  -5 22.7851 52.4386   1
   2   2  -6 3131.75 462.240  15
  -2   2  -6 3689.49 416.344  19
   2  -2   6 3517.71 454.427   2
   2  -2   6 4149.28 564.157   6
   2  -2   6 4350.84 557.878   8
   2  -2   6 4245.71 430.185  14
  -2  -2   6 3651.63 616.221  17
   2   2  -6 3934.36 551.832  18
   2   2  -6 3104.42 443.205   7
   2   2  -6 2902.74 429.349   1
  -2  -2   6 3891.81 586.609   2
  -2   2  -6 3313.62 447.840   4
  -2   2  -6 3429.88 300.245  18
   2  -2   6 4225.74 609.377  16
  -2  -2   6 2987.50 446.458   5
  -2   2  -6 3190.47 345.912   5
   2  -2   6 4104.78 381.993  17
  -2  -2   6 1382.80 227.933   6
  -2  -2   6 3795.39 521.600  16
   2   2  -7-10.3681 41.9098   1
   2  -2   7-4.67199 22.3366  14
  -2   2  -7-4.96404 20.7492  19
   2   2  -7 55.5887 162.610  20
  -2   2  -7 0.43096 18.5452  18
  -2  -2   7 17.4100 102.800  17
  -2  -2   7-25.2357 33.6652  16
   2  -2   7-26.4795 45.5640  16
   2   2  -7 80.4237 142.107  11
   2  -2   7-11.1456 25.6868  17
  -2   2  -7 5.92985 41.0583  11
   2  -2   7 11.3452 50.3994   2
   2  -2   7-14.0602 64.3810   8
  -2   2  -7 27.8011 66.9603   4
   2   2  -7 38.2515 89.3993  18
  -2  -2   7-7.93534 27.6595   2
  -2  -2   7 18.6696 50.8437   5
  -2  -2   7 10.0402 5.53580   6
   2  -2   7-14.5951 49.5317   6
   2   2  -8 832.052 290.493  11
   2  -2   8 769.543 269.908   8
   2   2  -8 480.514 167.982   1
  -2  -2   8 616.986 185.874   5
  -2   2  -8 663.100 294.283  20
  -2  -2   8 702.027 260.293  16
   2   2  -8 605.082 230.848  18
  -2  -2   8 660.238 285.713  17
   2  -2   8 606.516 259.256  16
  -2   2  -8 312.355 104.189  18
   2   2  -8 453.653 251.593  20
   2   2  -8 573.532 274.513  10
  -2   2  -8 629.187 273.300  10
   2  -2   8 542.250 176.538  14
   2  -2   8 635.608 253.164   6
  -2  -2   8 690.291 280.275   2
  -2   2  -8 657.023 375.860   7
   2  -2   8 719.656 216.017   2
  -2   2  -8 565.010 172.940  11
  -2  -2   8 11.6975 25.6654   6
   2  -2   8 599.115 168.508  17
  -2   2  -8 374.437 157.051  19
  -2   2  -8 732.670 401.636  15
  -2  -2   9-18.9747 90.7440   6
  -2   2  -9-11.5959 85.6358  20
   2   2  -9-41.9465 133.380  20
  -2   2  -9-53.2997 123.178   7
   2  -2   9-18.3594 71.9121   8
   2   2  -9-0.78206 40.4812  18
  -2   2  -9-11.8201 65.1545  10
  -2   2  -9-15.9254 62.1235  19
   2   2  -9 346.974 388.385   9
  -2   2  -9-11.3466 56.5256  15
  -2  -2   9 4.65418 116.077   2
   2  -2   9 5.49051 57.6335  14
   2  -2   9 113.294 173.126  16
   2   2  -9-32.2299 22.3264  10
   2  -2   9 10.8498 32.7749   6
   2   2  -9 25.3331 45.2261  11
  -2   2  -9-0.69438 25.6753  18
  -2   2  -9 23.9186 41.1447  11
   2  -2   9 5.34805 49.9702  17
   2   2  -9 28.5020 80.4099   1
  -2   2  -9 371.217 259.938   9
  -2  -2   9-26.3861 30.6757   5
  -2  -2   9 51.9837 84.6333  16
  -2  -2   9-47.6264 112.600  17
   2  -2   9-29.8839 66.7327   2
  -2   2 -10 247.147 159.068  19
  -2   2 -10 851.313 319.072   9
  -2   2 -10 94.8394 52.6427  18
   2   2 -10 506.676 253.847  11
   2  -2  10 669.254 222.147   2
  -2  -2  10 745.503 322.476   2
  -2  -2  10 671.486 204.724   5
  -2  -2  10 463.662 242.829  16
   2  -2  10 193.331 118.951  14
   2  -2  10 798.158 271.740   8
   2   2 -10 320.692 199.531  20
  -2   2 -10 362.791 135.806  11
   2   2 -10 416.789 187.883  18
   2  -2  10 464.022 237.969   6
  -2  -2  10 511.484 266.136  17
   2   2 -10 733.543 369.482   9
  -2   2 -10 209.914 72.2815   7
  -2   2 -10 524.151 299.179  20
   2   2 -10 459.610 176.339   1
   2   2 -10 424.788 225.836  10
   2  -2  10 616.278 280.814  16
   2  -2  10 444.070 177.275  17
  -2   2 -10 444.250 232.906  10
  -2   2 -10 310.205 196.074  15
  -2   2 -11-410.086 458.860   7
  -2  -2  11 54.4514 130.518  16
   2   2 -11 36.8170 64.5569  18
  -2   2 -11-303.409 406.276  15
  -2  -2  11 9.36069 43.6221  17
   2   2 -11 22.3479 30.2994  11
   2  -2  11-59.3538 116.191   6
   2  -2  11 11.8240 95.3138  17
  -2   2 -11 42.5799 141.916  10
   2   2 -11-0.86924 18.9304   1
   2  -2  11 10.1026 72.2930   8
   2   2 -11 103.399 138.473  20
   2  -2  11-0.38259 101.032  16
  -2   2 -11 5.44185 117.296   9
  -2  -2  11 1.38344 4.61182   5
  -2  -2  11 13.7657 106.285   2
  -2   2 -11-10.3167 71.0690  19
   2   2 -11 1.94359 39.1626   9
  -2   2 -11 97.0697 207.477  20
  -2   2 -11-16.2824 39.3182  11
   2  -2  11 98.2429 91.7420   2
   2   2 -11 29.7657 39.6069  10
  -2  -2  12 606.582 301.086  16
  -2   2 -12 192.041 117.747  11
   2   2 -12 399.892 191.892  18
   2   2 -12 441.290 196.705   1
  -2   2 -12 244.763 139.750  10
  -2   2 -12 465.705 254.773   9
   2  -2  12 231.715 36.5278  17
   2   2 -12 328.101 179.766  10
  -2  -2  12 714.483 307.734   2
  -2  -2  12 764.503 226.190   5
   2  -2  12 898.879 281.493   2
  -2   2 -12 129.784 97.2191  19
   2   2 -12 442.500 248.551  11
   2   2 -12 418.165 249.496   9
  -2  -2  12 836.868 359.825  17
   2  -2  12 588.472 283.486   6
   2  -2  12 781.675 327.066  16
  -2   2 -12 304.705 259.229  20
   2   2 -12 301.249 218.705  20
   2  -2  12 886.882 313.419   8
  -2  -2  13-8.74948 15.1416  17
   2  -2  13-112.871 166.333   6
  -2  -2  13 21.8638 43.5112   2
   2   2 -13-1.30093 87.7914  18
   2  -2  13 91.2700 116.102   8
  -2  -2  13-16.5381 82.8227   5
  -2  -2  13 19.3902 111.120  16
   2   2 -13-95.3485 166.540  11
   2   2 -13 7.20239 45.5634   1
  -2   2 -13-120.464 114.803  19
  -2   2 -13-232.503 168.097  11
  -2   2 -13-84.6851 200.429  10
   2   2 -13-498.790 326.466  20
   2   2 -13-21.6842 121.314  10
  -2   2 -13-137.809 166.469   9
   2  -2  13 75.5637 112.784  16
  -2   2 -13-103.018 195.165  20
   2   2 -13-147.076 197.562   9
   2  -2  13-261.958 166.474   2
   2   2 -14 114.723 29.2529  11
  -2  -2  14 252.608 135.657   2
   2  -2  14 712.205 296.626   8
   2  -2  14 472.830 300.699  16
   2  -2  14 885.161 294.492   2
  -2   2 -14-183.205 170.897  19
  -2  -2  14 236.445 219.329  16
  -2   2 -14-8.25914 167.202  10
   2   2 -14-11.2001 189.628   9
  -2  -2  14 268.788 117.759   5
  -2   2 -14-350.132 216.780  11
  -2   2 -14 85.4860 67.9247  20
   2   2 -14 108.779 137.634  18
  -2  -2  14 264.040 122.030  17
  -2   2 -14-16.5486 139.049   9
   2  -2  14 728.456 401.011   6
   2   2 -14 131.428 107.980   1
   2   2 -14 66.3551 91.1618  10
  -2  -2  15-52.2112 84.7675   2
   2   2 -15 6.63345 69.8053  18
   2   2 -15 33.0225 100.669  11
  -2  -2  15-27.6420 99.8311  17
  -2  -2  15 15.6450 51.4647  16
  -2   2 -15 75.6614 61.3600   9
   2  -2  15 243.546 229.882   8
  -2   2 -15-374.450 303.897  20
   2   2 -15 11.5436 72.8653   1
   2  -2  15-5.24779 46.9106   6
   2  -2  15-65.0156 174.463  16
   2   2 -15 86.0637 195.585   9
   2   2 -15-78.3610 147.691  10
   2  -2  15 13.9806 99.6037   2
  -2  -2  15-118.525 179.627   5
  -2   2 -15-50.4812 138.899  10
   2   2 -16-237.537 220.178  11
  -2   2 -16-851.504 475.820  20
   2   2 -16 13.0783 77.6833   9
  -2  -2  16 160.870 222.496  16
  -2  -2  16-167.921 224.338   5
   2   2 -16-21.2492 106.221  18
  -2  -2  16-109.458 190.553   2
   2   2 -16-7.05387 41.6369   1
   2  -2  16-85.8032 121.286   2
  -2  -2  16-50.9463 130.223  17
   2  -2  16 51.4336 220.759  16
  -2   2 -16 12.5103 71.9682   9
  -2   2 -16 184.529 135.350  10
   2  -2  16-58.3335 93.9445   8
   2   2 -16-162.209 222.735  10
   2  -2  16-237.225 219.944   6
   2   2 -17-189.739 225.560   9
   2  -2  17-150.574 242.264   8
   2  -2  17 4.39316 207.237  16
  -2  -2  17-84.3837 180.507  17
   2   2 -17-159.781 240.333  10
  -2  -2  17 28.2179 164.864  16
   2  -2  17 58.5992 10.3446   2
  -2   2 -17 20.6305 141.481  10
   2   2 -17-2.82241 114.358  18
   2   2 -17 60.3353 85.9373   1
  -2  -2  17-7.46545 65.7278   2
   2   2 -17 70.4786 113.614  11
  -2   2 -17-208.077 231.816   9
   2  -2  18 324.199 207.844   2
  -2  -2  18 184.550 89.5214  16
   2   2 -18-112.748 174.005   9
   2   2 -18-115.333 217.117  11
   2   2 -18 21.2043 54.8832   1
  -2   2 -18-333.492 457.811  10
  -2  -2  18 112.323 175.820   2
   2  -2  18 100.913 219.213  16
  -2   2 -18-108.825 163.696   9
   2   2 -18-334.398 451.523  10
   2  -2  18 160.444 214.457   8
  -2  -2  18 136.787 169.189  17
  -2  -2  19 73.5071 157.097  16
  -2  -2  19 66.2630 92.9305   2
  -2   2 -19-333.292 288.109   9
   2  -2  19 39.2551 109.691   8
   2  -2  19-5.64070 136.286   2
   2   2 -19-149.528 341.350  18
  -2  -2  19-292.507 388.463  17
   2  -2  19 76.9701 268.750  16
   2   2 -19-198.223 352.799  11
   2   2 -19 74.6421 112.743   1
   2   2 -19-5.66753 126.973   9
   2   2 -20 185.434 163.732   1
   2  -2  20 868.078 408.253   2
   2  -2  20 528.424 439.797  16
   2  -2  20 503.801 273.463   8
   2   2 -20-388.262 444.538   9
  -2  -2  20 647.854 284.654   2
  -2  -2  20 792.408 460.510  16
   2  -2  21 147.013 302.581  16
   2   2 -21 25.7019 90.5439   1
   2  -2  21 87.7777 167.885   2
   2  -2  21 158.048 178.063   8
  -2  -2  21-71.0091 173.721  16
  -2  -2  21 63.6869 124.637   2
  -3   0   0 9.02882 46.2476  19
   3   0   0-8.53683 36.8981   1
  -3   0   0 23.6247 51.8238  12
   3   0   0 0.54540 66.9827  11
  -3   0   0 1.42168 16.3872   2
  -3   0   0-12.8669 15.7895  17
  -3   0   0 10.6969 28.8323   4
   3   0   0 15.6748 70.7557   8
   3   0   0-7.42453 30.2245  18
   3   0   0 3.73385 16.6567   6
  -3   0   0 3.79622 30.2712   5
   3   0   0 4.08986 34.9058  14
   3   0   1 1228.71 261.812   1
  -3   0   1 1007.20 262.398   5
  -3   0  -1 850.438 188.067  17
  -3   0  -1 843.751 243.694   4
   3   0   1 1057.27 253.147  14
   3   0   1 1208.06 293.398   8
   3   0  -1 1217.32 264.314   8
   3   0  -1 1172.03 242.148  14
  -3   0  -1 1007.75 280.829   5
   3   0  -1 1115.98 243.379   1
   3   0   1 1169.94 188.888  18
   3   0  -1 1394.79 185.522   6
   3   0   1 1063.64 209.595   6
  -3   0   1 1194.68 246.622  19
  -3   0   1 1034.43 195.602   2
  -3   0   1 1145.31 252.780   4
   3   0  -1 1052.00 214.930  18
   3   0  -1 1092.70 220.502  11
  -3   0  -1 833.900 227.026  19
  -3   0   1 920.074 231.826  17
  -3   0   1 741.616 128.263  12
  -3   0   2 4.51495 27.5677   4
   3   0  -2-6.41646 32.6360   1
  -3   0  -2-13.2068 60.2827  15
   3   0  -2 12.1197 38.4514  18
  -3   0  -2 2.90411 23.5158  17
  -3   0  -2-19.0273 67.0064  20
  -3   0  -2 19.0253 66.9200   4
  -3   0  -2-0.56676 48.6864  19
  -3   0  -2-11.4026 23.2628   5
   3   0   2 6.23932 2.24124  18
   3   0   2 5.25008 29.1289   6
  -3   0   2-32.2951 45.0127  17
   3   0   2 23.7879 50.6998   1
   3   0  -2 14.8544 44.6117   8
  -3   0  -2 80.6321 97.5035   7
   3   0  -2-8.50792 19.4844  14
  -3   0   2 2.05240 32.0947   5
  -3   0   2-5.72631 22.1344  19
   3   0   2 20.2970 64.6136  14
   3   0   2-3.39585 56.6912   8
   3   0  -2 9.72629 17.9318  11
   3   0  -2-24.9422 54.5858   9
  -3   0   2 2.20830 18.2320   2
   3   0   2 4.78530 19.4125  16
  -3   0  -3 3.73122 53.3514  19
   3   0  -3 25.0124 40.0885   1
  -3   0  -3 9.04448 52.4157  15
   3   0  -3 27.4194 48.7525   8
   3   0   3 12.9038 19.7114  16
   3   0   3 5.74786 25.8462  14
  -3   0   3 17.7073 11.6577   5
  -3   0  -3-55.3439 106.357   7
  -3   0   3 36.6904 60.2630   2
   3   0   3 15.8680 22.9427   6
   3   0  -3 1.58053 40.8134  11
   3   0  -3 22.1348 30.6739  14
   3   0  -3-10.3947 40.7795   9
  -3   0  -3-37.6196 88.8691  20
   0   3  -3 5.80477 34.8846   3
   3   0  -3 14.6199 36.5518  18
   3   0   3-6.11109 43.0478   8
   0   3  -3-98.2001 95.1811  13
  -3   0   3 29.5714 25.2429  19
   3   0   3 2.84162 34.7615   1
  -3   0  -3-12.7642 69.7737   4
  -3   0   3 6.90676 37.4510  17
  -3   0   4-14.5028 76.2443   5
   0   3  -4-22.2799 23.7837  13
   3   0   4 10.0116 40.4884  14
  -3   0  -4-117.800 180.993  15
   0   3  -4-4.24977 29.1818  12
   3   0   4 11.1668 43.4325  16
  -3   0   4 16.7644 64.0325   2
   0   3  -4-1.95441 18.7190   3
   3   0   4 49.5476 73.2547   8
   3   0  -4 6.37773 18.3772  14
  -3   0  -4-27.7816 124.535  19
   3   0   4 4.60030 30.7647   1
   3   0  -4-12.6931 48.0166   1
   3   0  -4-0.31503 23.1727  18
   3   0  -4-18.0624 31.8511  11
  -3   0   4-0.29195 55.1854  17
  -3   0   4-11.4897 35.1005  19
   3   0   4-3.02344 28.6979   6
   3   0  -4-22.8079 80.8309   9
   0  -3   4-24.6585 66.3031   6
   0   3  -5 135.706 85.0464  13
   0   3  -5 204.704 109.493   3
   3   0   5 55.5154 47.7800   6
   3   0  -5 148.435 83.1291  14
   3   0   5 100.972 80.5658   8
   3   0  -5 130.447 96.4856   1
   3   0   5 59.6213 70.8298  14
  -3   0   5 133.975 98.3250   2
   0  -3   5 104.584 70.2641  16
   0   3  -5 168.123 90.0371  12
   3   0  -5-11.5878 94.4361   9
   3   0   5 88.4510 80.9724  16
  -3   0   5 207.050 148.622  17
   3   0  -5 95.0355 74.9279  18
   0  -3   5 139.559 96.6911   6
   3   0  -5 72.8363 74.8877  11
   0   3  -6 39.3170 92.3450  13
   3   0   6-6.72082 56.2970  14
   3   0  -6 0.26823 40.5623   1
   0  -3   6 7.22705 59.6115  17
  -3   0   6-26.8587 82.7157   2
   0   3  -6 14.3584 63.7994  18
   0   3  -6 2.71170 45.6326   3
   3   0  -6-209.350 148.535   9
   3   0  -6-2.74002 53.1078  18
   3   0  -6 8.00910 26.7334  14
   3   0   6-1.95570 74.4175  16
   3   0   6 6.40875 45.4458   6
  -3   0   6-13.7879 28.6448  17
   0  -3   6-10.7146 35.2440  16
   0  -3   6 27.5840 67.5627   6
   3   0  -6-6.55866 57.6724  11
   3   0   6-77.7907 185.072   8
   0   3  -6 4.31139 23.9981  12
  -3   0   7 75.4346 89.8299  16
  -3   0   7 1759.65 468.329  17
   3   0  -7 3.28148 196.742   9
   3   0  -7 1047.89 211.736  14
   0  -3   7 887.814 177.412   8
   0   3  -7 2577.29 374.808  12
   3   0   7 898.161 310.759   6
   0   3  -7 2406.53 419.128  18
   0  -3   7 2792.48 440.974   6
   0  -3   7 2003.52 459.733   2
   0  -3   7 2554.82 507.497  16
   3   0  -7 472.890 233.999  11
   0   3  -7 2864.59 484.258   3
   3   0  -7 724.181 274.143  18
   3   0  -7 932.392 264.523   1
   3   0   7 1134.57 348.298  16
   0  -3   7 2365.36 496.656  17
  -3   0   7 1566.12 378.661   2
   0   3  -7 2197.12 458.552  13
   3   0  -8-3.06810 35.2251  11
   0  -3   8-12.9312 68.6224  17
   0   3  -8-9.90022 73.6082  18
   0  -3   8 79.2376 124.620  16
  -3   0   8 67.2404 106.180  17
   0  -3   8-0.05808 63.3853   2
   3   0   8 100.568 122.905  16
   0   3  -8 20.4906 106.302  13
   0  -3   8-1.15551 27.0741   8
   0   3  -8 50.9832 124.140   3
   0   3  -8 19.9833 75.5820  12
   3   0  -8 42.0435 71.0958  18
  -3   0   8-107.802 190.291  16
   3   0  -8-42.7953 116.597   1
  -3   0   8-68.9577 159.189   2
   0  -3   8-16.3536 70.2288   6
   3   0   8 45.4425 64.1689   6
   3   0  -9-30.4468 173.258  11
   0  -3   9 566.668 267.190   2
   3   0   9 186.187 154.224  16
   0  -3   9 480.761 234.514  17
   0  -3   9 493.016 133.495   8
   3   0  -9-37.2279 162.537   1
   0   3  -9 1107.50 361.444  11
  -3   0   9 146.911 37.6382   2
   0  -3   9 355.660 179.341   6
   3   0  -9 30.8611 59.3648  18
   0   3  -9 541.621 220.264  12
  -3   0   9-23.8536 147.059  16
  -3   0   9 321.117 242.831  17
   0  -3   9 519.916 244.575  16
   3   0   9 4.70301 191.308   6
   0   3  -9 434.772 163.452  18
   0   3  -9 8.16654 26.1266   1
   0   3 -10 7.69449 4.76739   1
   3   0  10-162.640 246.369   6
   0  -3  10-69.1516 122.879  16
  -3   0  10-95.9010 239.426  16
   0  -3  10 60.3502 84.5549   6
   0  -3  10-21.8549 30.7852   8
   0  -3  10 12.5623 91.0811  17
   0   3 -10 327.994 332.993  20
  -3   0  10-117.546 208.349   2
   3   0 -10-57.3552 204.111  11
   0   3 -10 131.575 245.259  15
  -3   0  10 30.1551 27.4393  17
   0  -3  10 21.2511 120.926   2
   3   0  10-22.8529 53.3174  16
   0   3 -10 292.988 355.135   7
   0   3 -10 5.82116 89.4522  18
   0   3 -10 137.345 154.741  11
   3   0 -10-36.2868 150.041  18
   0   3 -11-7.96767 33.5524   1
   0  -3  11 19.2625 56.1255  16
   0  -3  11 67.4949 69.1556  17
  -3   0  11-71.5602 247.549  17
   0   3 -11 90.9634 217.866  20
   0   3 -11 268.458 336.121  10
   0  -3  11 17.9134 106.744   2
   0  -3  11 69.7757 86.4153   8
  -3   0  11-86.7264 208.376   2
   0   3 -11 8.31872 85.8144  18
   0   3 -11-57.4687 30.9259  15
  -3   0  11-101.794 203.454  16
   0   3 -11-8.16353 25.8794  11
   0  -3  11-67.9884 48.0161   6
   0   3 -11-24.6059 135.286   7
   3   0  11 48.7868 118.555  16
  -3   0  12-136.448 268.394   2
   0   3 -12-248.606 438.276   7
   0  -3  12 0.22093 98.0760   6
  -3   0  12-184.799 280.567  17
   3   0  12 51.6676 91.6854  16
   0  -3  12-17.6238 8.05714   8
   0  -3  12 19.7249 46.2109   2
   0  -3  12-63.9217 86.2755  17
   0  -3  12 86.3456 116.965  16
   0   3 -12-58.8528 188.968  20
   0   3 -12 12.2724 73.7048  18
   3   0 -12-72.4953 196.732  18
   0   3 -12 114.585 232.543  10
   0   3 -12-203.388 333.331  15
   0   3 -12 27.5998 56.6816   1
   0   3 -12 74.2402 119.120  11
   0  -3  13 161.032 115.335   6
   0   3 -13 169.359 91.3406   1
   0   3 -13 317.905 247.161  10
   0   3 -13 862.874 461.210   9
   0  -3  13 840.483 218.595   8
   0  -3  13 447.484 273.207  16
   3   0  13 256.289 255.368  16
  -3   0  13 215.709 103.826   2
   0  -3  13 621.262 256.106  17
   0   3 -13 392.960 175.787  18
   0   3 -13 259.412 154.419  20
   0   3 -13 441.978 105.393  19
   0  -3  13 595.788 235.504   2
   0   3 -13 586.918 267.459  11
   0   3 -14-40.3425 78.2754  10
   0   3 -14 74.6827 43.0317  19
   0  -3  14 568.457 376.781  16
   0  -3  14 923.570 513.894   6
   0   3 -14-14.5333 99.2276  18
   0  -3  14 747.962 479.461   2
   0   3 -14-389.839 243.192  11
   0  -3  14 869.805 273.043   8
   0   3 -14 194.437 252.188   9
   0   3 -14 312.682 324.882  20
   3   0  14 31.9683 175.494  16
   0   3 -14 27.0497 66.1690   1
   0  -3  14-83.1604 127.187  17
   0   3 -15 8.26070 14.3023  19
   0   3 -15 50.0408 132.502   9
   0  -3  15 67.0765 110.089   6
   0   3 -15 118.801 92.2588  11
   0   3 -15 186.596 236.595  10
   0  -3  15 386.015 249.735  17
   0  -3  15 103.993 100.270  16
   0   3 -15 33.1317 151.775  20
   3   0  15 205.822 206.329  16
   0   3 -15 177.396 178.482  18
   0   3 -15 71.2030 69.0807   1
   0  -3  15 330.550 267.493   2
   0  -3  15 349.974 165.221   8
   0   3 -16 5.29560 91.3761  11
   0  -3  16-100.300 75.5996   8
   0   3 -16 45.6133 108.147   9
   0  -3  16 27.8814 116.953   2
   0   3 -16-25.3805 70.4294   1
   0  -3  16-253.399 216.243   6
   0   3 -16 53.9222 55.5901  19
   0   3 -16-40.3889 31.9081  20
   0   3 -16-17.4066 73.0537  18
   0   3 -16-129.532 252.567  10
   0  -3  16 88.1706 153.961  16
   0  -3  16 78.6663 156.724  17
   0   3 -17-6.62979 10.5476  18
   0   3 -17-64.2110 187.230  10
   0   3 -17-0.54102 155.649   9
   0  -3  17 288.036 256.854   2
   0   3 -17 68.5750 58.5806   1
   0  -3  17 178.720 173.661  17
   0   3 -17-12.5523 135.784  20
   0  -3  17 100.423 111.297   8
   0  -3  17 5.90895 63.1535  16
   0  -3  17-440.231 297.329   6
   0   3 -17 134.711 87.0146  19
   0   3 -17 87.1714 177.600  11
   0  -3  17 47.3359 16.7438   5
   0   3 -18 36.1778 160.175  10
   0   3 -18 12.9110 51.5309  11
   0   3 -18 189.318 114.261  19
   0  -3  18 344.457 333.957  16
   0  -3  18 60.5038 49.8998   5
   0  -3  18 52.9028 60.3708  17
   0  -3  18 192.334 225.721   8
   0  -3  18 82.9095 145.980   2
   0   3 -18 15.9990 91.9609  18
   0   3 -18 129.513 88.4664   9
   0   3 -18-213.371 334.355  20
   0   3 -18 127.597 95.3654   1
   0   3 -19-38.4013 415.866  20
   0  -3  19 848.214 299.693   8
   0   3 -19 262.182 153.658   1
   0   3 -19 197.622 269.478   9
   0   3 -19 125.000 124.292  10
   0  -3  19 743.076 478.775  16
   0  -3  19 1076.78 417.180  17
   0   3 -19-55.9983 219.008  18
   0  -3  19 979.761 458.008   2
   0   3 -19 156.854 138.336  11
   0   3 -20 156.015 216.839   9
   0   3 -20 65.6976 86.0542  10
   0  -3  20 139.668 246.904  16
   0  -3  20 39.6659 156.463   8
   0  -3  20 120.543 159.635   2
   0   3 -20-89.8903 193.834  11
   0   3 -21-151.135 372.786  10
   0   3 -21-291.816 298.536   9
   0   3 -21-296.438 380.833  11
   0  -3  21 866.069 391.673   2
   0  -3  21 775.125 510.105  16
   3  -1   0 649.603 161.498   6
   3   1   0 233.516 133.351  14
   3  -1   0 721.677 190.906  14
  -3   1   0 392.349 119.109  12
   3   1   0 492.894 168.304  18
   3   1   0 573.380 212.398   8
  -3   1   0 539.913 175.703   5
  -3   1   0 493.056 160.521   4
  -3   1   0 717.215 192.690  19
  -3  -1   0 118.882 55.1277  19
   3   1   0 520.404 204.925   1
   3  -1   0 662.445 211.775   8
  -3  -1   0 97.6312 42.5678   4
   3  -1   0 599.001 172.563   1
  -3   1  -1 453.264 162.739   5
  -3  -1   1 346.671 147.274   2
   3   1   1 116.179 62.5523   8
  -3   1  -1 445.971 165.245   4
  -3  -1   1 252.015 133.078   4
   3   1  -1 179.551 112.421  14
  -3   1  -1 277.124 110.397   3
  -3  -1   1 228.932 127.476  19
   3  -1  -1 315.552 145.590   8
   3   1  -1 537.239 183.145  18
  -3   1  -1 552.829 167.082  19
  -3   1   1 435.390 145.513  19
   3   1  -1 396.221 164.543   8
   3   1   1 93.3251 86.0385  14
   3  -1   1 481.417 178.445   8
   3  -1  -1 382.800 137.938  14
   3  -1   1 605.245 163.577   6
   3   1  -1 416.684 172.883   1
   3  -1  -1 321.831 133.185   1
   3  -1   1 538.299 166.140  14
  -3  -1   1 334.218 172.964   5
   3  -1   1 506.630 155.151   1
   3   1   1 207.579 126.599   1
   3   1  -1 366.960 118.839  13
  -3  -1   1 276.186 139.786  17
  -3   1  -1 442.214 129.424  12
   3  -1  -2 11.0341 54.4335   8
   3  -1   2 179.149 95.8207  14
   3  -1  -2 132.236 85.6219  14
   3   1  -2 108.320 80.2030  14
   3   1   2 0.87005 65.6969  14
   3   1  -2 219.363 100.201  13
  -3  -1   2 130.314 91.0906   4
   3  -1   2 139.716 74.4981  16
   3   1  -2 219.508 95.7754   8
   3   1  -2 174.271 99.3286  18
  -3   1  -2 186.153 114.826  19
  -3   1  -2 180.463 112.462   4
  -3  -1   2 121.281 77.3159  19
   3  -1  -2 50.5435 45.3441   1
  -3  -1   2 130.324 112.305  17
   3   1   2 47.4982 39.3552   1
   3  -1   2 238.240 134.028   8
   3  -1   2 210.139 93.2468   1
  -3   1  -2 194.818 93.1948   3
   3  -1   2 239.212 112.638   6
  -3   1  -2 173.442 95.3938  12
  -3   1   2 164.780 88.7857  19
   3   1  -2 216.178 133.500   1
  -3   1  -2 174.640 97.0720   5
  -3  -1   2 210.031 118.321   2
  -3  -1   2 195.511 124.151   5
   3  -1   3 30.0408 32.0685   1
   3   1  -3 37.3369 72.7752  18
  -3  -1   3 58.7104 83.1586   5
   3  -1   3 64.5628 91.5940   8
   3  -1   3 67.6401 55.2055   6
  -3  -1   3 21.0544 60.1871   2
   3  -1   3 55.5748 65.8941  14
  -3   1  -3 52.9137 62.0016  19
   3   1  -3 24.6938 7.98562   1
   1   3  -3 2.67527 26.7102  13
   3   1  -3 65.1463 63.5007  20
   3  -1   3 42.3252 62.8864  16
  -3  -1   3 17.4331 16.6260   4
  -3   1  -3 52.0615 63.3372   4
   3   1  -3 18.1974 29.8801  14
  -1   3  -3 20.8132 13.3159  12
  -3   1  -3 58.1763 71.8751   5
  -1   3  -3 14.9139 14.5881   3
   3   1  -3 62.4014 48.4579   8
  -3  -1   3 41.3923 44.0122  16
  -3  -1   3 32.8003 34.2611  17
  -3  -1   3 42.7616 44.9879  19
   3  -1  -3-13.4102 61.2464  14
   1   3  -4 257.163 126.177   3
  -3  -1   4 300.814 148.687   5
   3  -1   4 348.657 159.123  16
  -1   3  -4 145.869 133.648  13
   3   1  -4 403.902 177.270  11
  -1   3  -4 196.516 116.460   3
   3   1  -4 245.031 122.590  20
  -1   3  -4 247.362 117.975  12
  -3  -1   4 240.667 150.454  17
   3  -1   4 327.785 147.743   6
   3   1  -4 301.329 138.000  18
   3  -1   4 356.957 171.012   8
  -3  -1   4 266.953 103.190  16
  -3   1  -4 194.796 110.970   5
   3   1  -4 200.699 99.2473  14
   3  -1   4 279.579 110.818   1
  -3   1  -4 234.887 135.990   4
   3   1  -4 268.542 105.033   8
   1  -3   4 138.388 89.6691   6
   3   1  -4 290.863 143.287  10
  -3  -1   4 345.407 115.852  19
   3  -1   4 344.194 136.777  14
   3   1  -4 270.537 131.091   1
   1   3  -4 225.948 145.053  13
  -3  -1   4 315.150 157.143   2
  -3   1  -4 277.220 149.439  19
  -3  -1   4 280.699 121.553   4
  -3   1  -5 664.205 298.874   7
  -3  -1   5 410.247 133.209   4
  -3   1  -5 345.393 179.569  20
  -1  -3   5 270.627 117.531   6
   1  -3   5 55.6646 51.2638   8
   1   3  -5 314.148 142.747  18
  -3  -1   5 324.293 128.992  16
  -3   1  -5 247.722 150.483   4
  -3  -1   5 470.512 192.653   2
   3  -1   5 444.281 180.717  16
   3   1  -5 445.451 191.166  18
   3   1  -5 301.636 119.414  14
   3  -1   5 386.461 159.419  14
   3   1  -5 436.460 171.223   1
   3  -1   5 203.934 108.366   1
  -3  -1   5 381.473 207.046  17
   1   3  -5 499.287 184.391   3
  -1   3  -5 466.604 181.904   3
   1  -3   5 160.065 88.1118  16
  -3  -1   5 405.004 121.744  19
  -1   3  -5 335.900 163.417  13
   3   1  -5 567.941 238.577  11
  -3   1  -5 474.071 141.888   9
   1   3  -5 304.674 109.565  12
   3   1  -5 354.145 145.117  10
   1   3  -5 371.751 191.054  13
  -1   3  -5 453.853 160.668  12
   3  -1   5 432.208 184.704   6
  -3   1  -5 173.664 105.153   5
   3   1  -5 567.193 253.576   9
   3   1  -5 148.372 109.217  20
   3  -1   5 623.711 239.315   8
   1  -3   5 341.412 145.819   6
  -3   1  -5 316.529 152.433  19
   3   1  -5 120.347 57.1668   8
  -3   1  -5 355.381 141.714  10
  -3   1  -5 560.445 295.839  15
  -3  -1   5 424.797 173.385   5
  -1  -3   5 145.677 75.6056  16
   1   3  -6 1326.44 298.577   3
   3   1  -6 999.007 263.469   1
  -3   1  -6 988.672 385.331  15
   3  -1   6 1068.33 303.196   6
   3  -1   6 1326.32 373.822   8
   1   3  -6 1036.82 288.487  18
  -1   3  -6 960.272 302.154  13
   1  -3   6 1013.78 321.219  16
  -1  -3   6 1172.56 256.627   6
  -3   1  -6 538.407 211.823  19
  -1  -3   6 832.466 302.825   2
  -1   3  -6 1460.91 347.259   3
   3   1  -6 565.491 205.914  10
  -1   3  -6 854.795 228.420  18
  -3  -1   6 974.982 202.480   4
   3  -1   6 1236.91 327.479  16
  -1  -3   6 895.914 281.138  16
   3   1  -6 1111.47 313.451   9
   1   3  -6-8.12985 76.5985   1
  -3   1  -6 850.272 292.757  20
  -3   1  -6 611.396 191.578  10
  -3  -1   6 1176.81 295.970   5
   1  -3   6 736.760 204.595   8
   3   1  -6 1106.16 305.854  18
   3  -1   6 1180.39 182.963   2
   1   3  -6 1165.53 215.141  12
   1  -3   6 1263.18 302.235   6
  -3  -1   6 731.079 158.986  19
   3   1  -6 1272.85 362.893  11
   3   1  -6 299.059 156.102  20
   3   1  -6 1029.62 201.761  14
  -3   1  -6 1115.26 415.186   7
   1   3  -6 1423.29 360.160  13
  -3   1  -6 659.590 181.447   9
  -1   3  -6 1177.58 263.541  12
  -3  -1   6 1223.73 360.315  17
  -1  -3   6 867.513 323.148  17
  -3   1  -6 251.656 137.436   4
   3  -1   6 1047.26 282.605  14
  -3  -1   6 1187.19 319.062   2
  -3  -1   6 955.117 250.686  16
  -1  -3   7 301.648 183.402   2
  -3   1  -7 270.106 238.885  15
  -3  -1   7 476.876 239.829  17
  -3  -1   7 422.625 187.585   2
   1  -3   7 495.968 195.792   6
   1   3  -7 533.002 203.726   3
   3   1  -7 340.429 111.690  14
   3   1  -7 307.667 152.631   1
  -3   1  -7 153.637 128.797  19
  -3  -1   7 312.660 151.120   5
  -1   3  -7 474.753 139.027   4
  -1  -3   7 336.345 190.338  16
  -1  -3   7 411.800 206.493  17
   1  -3   7 423.187 218.290  16
   3   1  -7 348.818 172.041  18
   3   1  -7 14.5802 139.631  20
  -1   3  -7 222.666 75.0382  19
   1  -3   7 413.440 191.009  17
   1   3  -7 393.672 181.774  18
   3   1  -7 114.957 86.3818  10
   3  -1   7 416.652 198.855  16
  -1   3  -7 397.534 172.027  12
  -3   1  -7 177.704 101.378   9
   1  -3   7 385.897 111.623  14
  -1   3  -7 406.078 184.456   3
   1   3  -7 22.9176 40.6265   1
  -1   3  -7 456.317 208.343  13
   3   1  -7 406.859 207.930  11
   3  -1   7 314.162 171.009  14
  -1   3  -7 375.980 153.648  18
   3  -1   7 308.774 190.994   8
  -3   1  -7 236.826 156.845  20
  -3   1  -7 143.125 72.9981  10
   1  -3   7 307.685 123.241   8
  -1  -3   7 414.359 162.662   6
   1   3  -7 465.654 219.465  13
   1  -3   7 189.847 156.543   2
   3   1  -7 233.382 166.548   9
   3  -1   7 311.687 102.736   2
  -3  -1   7 282.154 144.917  16
   1   3  -7 423.950 137.145  12
  -3   1  -7 146.380 97.2818   7
   3  -1   7 325.509 171.193   6
   3  -1   8 1295.10 387.004   6
   3  -1   8 1013.21 315.201  14
  -3  -1   8 1882.15 472.393  17
  -3   1  -8 667.755 282.769  20
   1  -3   8 1736.49 420.184   2
   3  -1   8 1469.77 266.916   2
   1   3  -8 1839.81 397.554  18
  -3   1  -8 387.624 168.202   9
  -1  -3   8 2151.86 490.445  17
   1  -3   8 2041.46 425.788   6
   1   3  -8 2153.38 423.005   3
   1  -3   8 1952.70 248.231  14
  -1  -3   8 1708.63 451.330   2
   1  -3   8 1781.40 326.323   8
  -3   1  -8 425.157 166.060  10
   1  -3   8 1941.50 477.684  16
   1  -3   8 2164.11 410.715  17
   3   1  -8 1355.23 390.972  11
  -1   3  -8 1750.29 283.981   4
  -1   3  -8 1856.55 331.667  18
   3   1  -8 1488.72 239.522  14
  -1   3  -8 1400.99 207.472  19
  -3  -1   8 1858.16 431.589   2
   3  -1   8 1516.25 418.041  16
   3   1  -8 687.333 297.657   9
  -1   3  -8 1951.44 376.721  12
  -3  -1   8 1552.57 343.788   5
  -3   1  -8 179.451 125.340  19
   1   3  -8 336.520 144.522   1
   1   3  -8 1891.71 320.252  12
  -3  -1   8 1288.69 339.504  16
  -1   3  -8 1442.01 384.704  13
   3   1  -8-15.2256 278.666  20
   3   1  -8 497.766 212.295  10
  -1   3  -8 1846.70 421.642   3
  -1  -3   8 1763.90 447.532  16
   3  -1   8 1569.94 438.454   8
  -1  -3   8 1443.75 324.007   6
   3   1  -8 1308.99 366.388  18
  -3   1  -8 417.857 101.621  15
  -3   1  -8 329.097 130.367   7
   3   1  -8 1301.24 323.976   1
  -1  -3   9 214.768 184.863  17
   1  -3   9 226.463 160.847  17
  -3  -1   9 140.427 159.745  16
  -1  -3   9 314.171 227.823   2
  -1   3  -9 17.7682 61.3676   4
  -3   1  -9 147.984 137.033  20
  -3  -1   9 290.007 216.559  17
   1   3  -9 307.225 179.065  12
   1  -3   9 238.456 171.705  16
  -3  -1   9 114.178 40.8246   5
   3   1  -9 162.825 124.221   1
   3  -1   9 107.431 77.5984   6
   3   1  -9 28.4460 39.7379  10
  -1   3  -9 569.711 263.994  11
   3  -1   9 161.752 170.869   8
   3   1  -9 57.3801 124.320   9
  -3   1  -9 42.7888 37.3280  10
  -3  -1   9 164.954 125.522   2
   3   1  -9 78.4996 36.3850  11
   1   3  -9 248.713 151.504  18
  -1  -3   9 185.105 128.638   6
   3  -1   9 53.3542 77.9183  14
   3  -1   9 149.954 48.4510   2
  -1   3  -9 258.609 141.769  18
  -1  -3   9 292.487 173.221  16
  -1   3  -9 229.073 78.8074  19
  -3   1  -9-96.7664 193.960  19
   3   1  -9 186.889 82.5126  14
   1  -3   9 253.129 150.631   8
   1   3  -9 633.501 382.637  11
   1   3  -9 107.242 92.1645   1
   1  -3   9 279.206 98.5949  14
   3   1  -9 119.037 121.623  18
   3  -1   9 241.271 151.144  16
  -3   1  -9-18.9975 105.031   9
   1  -3   9 246.036 169.269   6
   1  -3   9 231.107 178.351   2
   1   3  -9 452.046 343.998  15
  -1  -3  10 253.164 218.654   2
   1   3 -10 336.018 276.796  20
   1  -3  10 340.825 167.334  17
  -1  -3  10 237.762 160.004  17
   1  -3  10 301.780 231.624   2
  -3  -1  10 161.479 173.209  17
   1   3 -10 131.227 79.6384   1
   3   1 -10 16.9887 76.3587  10
   1  -3  10 266.483 213.920  16
   1   3 -10 276.602 209.658  11
  -3   1 -10-8.25340 62.1904   9
   1   3 -10 171.402 185.385   7
  -1  -3  10 114.047 108.995   6
   3  -1  10 191.071 160.869  16
   1  -3  10 148.380 120.757   6
  -1   3 -10 328.715 175.059  11
  -3   1 -10-2.18648 98.2037  10
   1   3 -10 210.290 118.608  18
   1  -3  10 207.874 91.2526  14
  -1   3 -10 160.453 78.0151  18
   3   1 -10 68.5583 85.4228  11
   3   1 -10 162.654 82.5019  14
   3  -1  10 35.9490 85.1725   8
  -1  -3  10 230.588 178.284  16
  -3  -1  10 200.489 149.448   2
   3  -1  10 125.167 72.8393   2
  -1   3 -10 432.215 394.482  15
   3  -1  10 120.331 99.4726   6
  -3   1 -10-38.9664 195.915  20
  -3  -1  10 178.502 165.390  16
   1  -3  10 399.416 146.189   8
   3   1 -10 0.31682 55.7429   9
  -1   3 -10 254.099 87.0079  19
   1   3 -10 238.567 202.049  15
   3   1 -10 121.171 126.559  18
   3   1 -10 88.8585 105.005   1
  -3  -1  10-11.8806 150.370   5
  -1  -3  11 65.0505 85.3107   2
  -1   3 -11 308.608 268.753  20
  -1   3 -11 124.614 70.5834  19
   1   3 -11 73.7365 151.674  20
  -3  -1  11 48.3968 134.904  17
  -3   1 -11-57.9900 189.978  10
  -1  -3  11 72.9732 100.650  16
   1   3 -11 398.289 365.065  10
   1   3 -11 38.0630 81.3728  11
  -1  -3  11-9.09280 89.9676   6
   1   3 -11 80.5497 118.887  18
   3  -1  11-25.3704 52.3221   8
   3  -1  11 56.3922 18.6721   2
  -3   1 -11-36.2947 84.4184   9
   1   3 -11 35.2102 81.0663   1
   3   1 -11 61.4874 51.8647  14
  -1  -3  11 18.7908 28.6757   5
   1  -3  11 26.3539 41.5651   8
   3  -1  11 63.7567 117.601  16
  -1   3 -11 274.531 322.434  10
   3   1 -11-22.5895 87.9651   1
   1  -3  11 164.244 131.781  17
  -1   3 -11 163.850 205.576  15
   1   3 -11-91.6455 322.651   7
  -1  -3  11 45.5894 35.8058   8
   1  -3  11 66.7892 28.0686  16
  -1   3 -11-7.23522 79.9401  11
  -3   1 -11-443.714 284.699  20
  -3  -1  11 50.8953 138.948   2
  -1   3 -11 163.275 244.108   7
   3   1 -11-112.199 237.351  10
   1   3 -11 41.9786 128.404  15
   3   1 -11-60.3433 148.959   9
   1  -3  11-0.34761 106.338   6
  -1   3 -11 27.2949 36.2860  18
  -3  -1  11 79.5779 119.882  16
   1  -3  11-29.2663 102.575   2
   3   1 -11 36.7328 48.6050  11
  -1  -3  11 67.5530 147.646  17
   3  -1  11 33.6363 125.848   6
   3   1 -11 40.5623 101.454  18
   1  -3  11 11.5577 33.2781  14
  -3  -1  12 21.6857 94.6404   2
   3   1 -12 17.5976 69.3354   1
   1  -3  12 200.794 136.486   8
  -3   1 -12-113.745 224.534   9
  -1   3 -12-12.8598 26.1038  19
  -3   1 -12-288.709 367.434  20
  -1   3 -12-9.92314 23.6661  15
  -1   3 -12 14.1990 161.903  20
  -1  -3  12 75.1638 118.870  17
  -1   3 -12 55.0949 110.780  11
   1   3 -12 16.6437 146.699  20
   1  -3  12-84.4864 132.483  16
   1  -3  12-13.7788 23.3581   6
  -1   3 -12 92.9196 214.918   7
  -1   3 -12 5.10237 39.5535  18
   1  -3  12-150.403 143.095  14
   3   1 -12 0.20586 94.5469  18
   3   1 -12 13.0900 57.7154  11
   3   1 -12-235.021 369.883  10
  -1  -3  12 134.094 92.4895   2
   1   3 -12 30.1582 110.400  18
  -1  -3  12 74.6991 57.8229   8
   1  -3  12 61.5142 89.8822  17
  -1  -3  12 124.677 141.450  16
   3   1 -12-13.1738 37.6500  14
   3  -1  12-81.0226 191.340   8
   3   1 -12-96.8742 194.874   9
   3  -1  12-15.0980 38.3653   2
  -1  -3  12-32.7497 49.9367   6
  -1   3 -12 247.840 259.054  10
   1   3 -12 16.9317 9.76576   1
  -3  -1  12 21.6653 104.555  16
   1  -3  12 98.7717 159.086   2
   3  -1  12 36.7834 111.071  16
  -3  -1  12 20.8053 127.487  17
  -1  -3  12 38.8274 74.6801   5
   1   3 -12 10.2641 122.818  10
  -3   1 -12-130.550 246.704  10
   1   3 -12 60.5457 45.1909  11
   3  -1  12-13.1976 88.8070   6
   1  -3  13-367.491 230.919   6
  -3  -1  13-9.62272 12.7442   2
   1   3 -13 24.1654 29.9508  18
   1   3 -13-15.9353 117.865  20
  -1  -3  13 13.3207 116.001   2
   3   1 -13-52.8263 86.2691   1
  -1  -3  13-31.2193 59.1684   6
  -1   3 -13 9.60053 47.3169  18
  -1   3 -13-20.2692 46.0246  19
   1   3 -13-70.1416 87.0001   1
   1   3 -13-158.418 267.078  10
  -1  -3  13 2.92463 19.9427   5
   3   1 -13-81.7392 187.759   9
  -1   3 -13 162.250 246.381  10
   3  -1  13-267.805 216.818   6
  -1  -3  13 54.8623 102.143  16
  -1   3 -13 646.933 391.994   9
   1  -3  13-5.12563 152.578  16
  -3  -1  13-65.2133 117.457  17
   3   1 -13-84.6396 200.794  11
   3   1 -13 7.43507 16.3509  14
   3  -1  13-88.1494 160.545  16
  -3   1 -13-378.679 351.294   9
   1  -3  13 37.4530 42.7709   8
   3   1 -13 7.62311 89.2710  18
  -1   3 -13 31.7421 81.8549  20
   1   3 -13 57.3846 117.172  11
   1  -3  13-123.196 196.606   2
   1  -3  13-134.337 143.974  17
  -1   3 -13-337.589 558.084   7
  -1  -3  13-7.08334 47.0996  17
  -1   3 -13-273.740 516.321  15
  -1  -3  13 98.3999 65.0102   8
  -3  -1  13 62.1403 145.371  16
  -1   3 -13-66.3624 146.005  11
   3  -1  13-39.3261 114.196   2
   1   3 -13 244.300 291.169   9
   3  -1  13-172.449 292.899   8
   3   1 -14 3.70979 104.281  18
   1  -3  14 766.257 271.533   8
  -1   3 -14 96.0325 74.5011  11
  -1  -3  14 595.844 417.055   6
  -1   3 -14-83.5066 211.435  10
   1  -3  14 320.229 246.139   6
  -3  -1  14 344.920 257.638   2
   1  -3  14 293.293 234.985   2
  -1   3 -14-14.4951 41.5279   1
   1   3 -14 69.4992 115.936   9
   1   3 -14-13.9265 71.7975   1
  -1  -3  14 750.360 462.276   2
  -1  -3  14 322.581 310.163  16
  -3  -1  14 180.221 225.902  16
  -3  -1  14 187.193 162.959  17
  -1   3 -14 159.778 42.8516  19
   3  -1  14 252.552 118.954   2
  -1   3 -14 143.216 68.6507  18
   3  -1  14 222.124 141.877  16
   3   1 -14-76.6967 214.817   9
  -1   3 -14 126.976 141.033   9
   1   3 -14 139.238 179.068  10
  -1  -3  14 346.557 280.202  17
   3   1 -14 22.3246 122.450  11
   3   1 -14 110.495 128.323   1
  -1  -3  14 406.251 202.457   5
   1  -3  14 774.685 316.158  17
  -1   3 -14 81.7140 161.750  20
   3  -1  14-575.565 330.658   6
  -1  -3  14 955.554 226.374   8
   1   3 -14 96.6411 80.9752  20
   1   3 -14 155.707 151.979  18
   1   3 -14 234.617 123.138  11
   1  -3  14 318.391 277.592  16
  -1   3 -15 237.065 164.192  11
  -1  -3  15 423.290 191.057   2
  -1   3 -15 406.098 324.236  10
   1   3 -15 191.612 81.7131  11
   3   1 -15-15.7477 112.725  18
   3   1 -15-53.5237 179.309   9
  -1   3 -15 153.282 79.9957  19
  -1  -3  15 519.212 179.437   8
  -3  -1  15 162.034 93.0327  17
  -1   3 -15 110.934 80.5403  18
  -1  -3  15 439.259 245.727  16
   3  -1  15 261.526 177.768  16
   1  -3  15 383.953 222.052  16
   1  -3  15 696.470 248.470   8
  -1   3 -15 93.0416 54.9341   1
   1   3 -15 180.709 113.059   9
   3  -1  15-828.016 405.834   8
   1  -3  15 168.239 178.494   6
   1  -3  15 481.728 241.077   2
   1  -3  15 513.647 249.047  17
  -1  -3  15 326.110 224.829  17
   3   1 -15-51.1156 158.984  11
  -3  -1  15 352.844 259.979   2
   1   3 -15-11.7358 148.175  20
   3  -1  15 362.114 164.073   2
   1   3 -15 180.353 106.987  10
   3   1 -15 68.7645 135.470   1
  -1   3 -15 122.441 235.128  20
  -1   3 -15 380.057 286.054   9
   1   3 -15 210.615 193.598  18
  -1  -3  15-43.4379 154.487   6
  -3  -1  15 354.165 300.122  16
  -1  -3  15 386.100 145.577   5
   1   3 -15 166.477 106.988   1
   1   3 -16-20.8787 190.972  20
  -1  -3  16 1.22583 108.185   2
   1   3 -16 15.7852 55.7135   1
  -1   3 -16-51.4628 42.4830   1
   1   3 -16-117.301 179.407  11
   3  -1  16-491.048 427.962   8
   1  -3  16 278.528 267.021   2
  -1  -3  16 38.5605 59.1816   5
  -1   3 -16-49.7532 63.0766  19
  -1  -3  16 36.3805 163.020  16
  -1   3 -16-74.2102 130.164  11
   3   1 -16-236.808 346.062  11
  -3  -1  16 62.4483 199.945  16
   1  -3  16 84.5983 168.337  17
  -1  -3  16 23.8230 167.597  17
   3   1 -16 70.9921 72.0961   1
   3  -1  16 22.8591 75.3875   2
   3   1 -16-536.274 475.146   9
  -1  -3  16 102.007 109.653   8
  -1   3 -16-53.8826 171.706  10
  -1   3 -16 81.1614 206.783   9
   1   3 -16 63.0793 165.722   9
   1   3 -16-149.881 186.070  10
   3  -1  16 24.1360 218.170  16
   1  -3  16-10.4733 75.2032   6
   1  -3  16 179.133 287.548  16
  -1   3 -16-4.36719 109.820  20
  -3  -1  16 38.4924 139.944   2
   1  -3  16 60.7090 89.7424   8
  -3  -1  16-170.356 219.451  17
  -1   3 -16 22.1122 45.4592  18
   1   3 -16 24.5441 97.0370  18
   3   1 -17 64.8744 156.634   1
  -3  -1  17 344.777 312.628   2
   3  -1  17 296.922 333.286  16
   1   3 -17-3.37007 149.047   9
   1   3 -17-112.419 284.747  20
  -1   3 -17 115.900 165.158  20
  -1   3 -17-6.35430 119.967  18
   1  -3  17 255.709 258.322  16
  -1  -3  17 282.698 144.295   5
  -1  -3  17 383.055 250.761  17
   1  -3  17 356.036 257.836  17
   1   3 -17 16.1970 210.840  10
   3  -1  17-628.722 508.827   8
   1  -3  17 294.854 253.066   2
  -1   3 -17 76.6655 93.4408  19
  -1  -3  17 489.942 334.834  16
  -1   3 -17 68.0115 63.0599   1
  -1   3 -17-99.1778 84.7727   9
   1   3 -17 137.337 117.982   1
  -1  -3  17 721.754 240.779   8
  -3  -1  17-451.678 319.873  17
  -1   3 -17 33.3494 93.1935  11
  -3  -1  17 389.551 327.346  16
  -1   3 -17-17.9040 206.663  10
   1  -3  17 111.137 141.592   6
  -1  -3  17 395.590 270.279   2
   1   3 -17-58.9060 98.4744  18
   1   3 -17 82.5089 106.362  11
   3  -1  17 230.510 156.561   2
   1  -3  17 426.674 228.254   8
   1   3 -18-639.750 443.961  20
   1   3 -18 52.4765 119.161  18
  -1  -3  18 664.647 202.340   5
   1  -3  18 365.794 186.872  17
   1   3 -18-157.321 260.559   9
  -1   3 -18 119.991 72.0711   1
  -1  -3  18 881.060 276.516   8
   3  -1  18 591.066 283.859   2
   1  -3  18 741.010 412.304  16
  -3  -1  18 499.108 399.943  16
   1  -3  18 863.281 281.477   8
   3  -1  18 455.621 363.972  16
   1   3 -18 77.3295 84.5074  11
  -1   3 -18 91.7843 70.0942  19
  -1  -3  18 773.183 389.760  16
   3  -1  18-273.583 439.392   8
  -1  -3  18 697.482 334.494   2
  -1   3 -18 74.0095 85.0483  11
  -1   3 -18 101.144 183.427  10
  -1   3 -18-164.010 225.177   9
   1  -3  18 87.4025 213.801   6
  -1   3 -18-68.7978 330.205  20
   1  -3  18 1105.36 420.688   2
  -1  -3  18 770.822 367.942  17
  -3  -1  18 454.296 354.206   2
   1   3 -18 179.328 115.462   1
   1   3 -18 45.8682 196.810  10
  -1   3 -19 111.233 185.202  10
  -1   3 -19-127.528 216.881  11
   1   3 -19-24.9245 95.7650  11
  -1  -3  19 237.314 130.428   5
  -3  -1  19 70.1044 176.178   2
   1   3 -19 82.0707 115.180   1
   1  -3  19 421.979 317.589   2
   1   3 -19 35.8507 85.8768  18
   1   3 -19-621.534 659.860  20
  -1  -3  19 124.243 195.404  16
  -1  -3  19 120.646 205.768   2
  -3  -1  19 180.721 226.313  16
  -1   3 -19 176.815 304.893   9
   3  -1  19-32.2007 34.8194   2
  -1  -3  19 153.118 207.406  17
   1  -3  19 192.334 252.344   8
   1   3 -19-10.8149 141.566  10
  -1  -3  19 202.454 185.418   8
  -1   3 -19-473.339 466.655  20
   1   3 -19 139.167 175.011   9
   3  -1  19 26.4125 63.4971  16
   1  -3  19 399.638 423.177  16
   3  -1  19-604.231 603.244   8
   1   3 -20 871.137 542.256  10
   1   3 -20 433.393 288.116  11
  -1  -3  20 2040.68 723.144  16
   1   3 -20 714.763 503.828   9
   3  -1  20 1011.12 553.739  16
   3  -1  20 1040.11 518.240   2
  -1   3 -20-68.1654 262.534   9
  -3  -1  20 1352.79 594.217   2
  -1   3 -20-96.3125 282.721  10
   1  -3  20 1461.74 563.250   2
   1  -3  20 1417.54 463.060   8
  -3  -1  20 1094.97 611.725  16
  -1  -3  20 1799.14 657.837   2
   1  -3  20 939.888 556.776  16
   1   3 -20 58.3343 456.871  20
  -1  -3  20 1145.08 471.012  17
   1   3 -20-71.1204 265.972  18
  -1  -3  21-118.933 390.178  17
   1   3 -21-242.264 270.791   9
   1  -3  21 253.555 299.614   8
   1   3 -21-160.407 322.777  18
   1  -3  21-49.8601 101.386  16
   1   3 -21-268.089 469.828  10
   3  -1  21 141.118 218.602  16
  -1   3 -21-380.113 328.656   9
  -1  -3  21 141.595 271.085  16
   1   3 -21-176.961 288.110  11
  -1   3 -21-296.703 425.138  10
   1  -3  21 261.391 305.595   2
  -1  -3  21-196.442 260.751   2
   3  -2   0-16.6494 68.8904  14
  -3   2   0 31.8277 18.0620  19
   3   2   0 1.80389 79.6775   1
   3  -2   0-93.6216 82.1470   8
  -3   2  -1 34.5136 34.6831  12
   3  -2   1 54.5190 52.2162  14
   3  -2   1 39.5398 59.0273   8
   3   2  -1 12.5670 29.5102   1
  -3   2  -1 66.6897 57.2124  19
   3  -2   1 21.4005 58.5124   6
  -3   2  -2 806.215 202.298  12
  -3   2  -2 875.085 215.776  19
   3   2  -2 642.854 200.260  13
   3   2  -2 489.229 215.275   1
   3  -2   2 756.357 240.579   8
   3  -2   2 774.771 205.356  14
   3   2  -2 704.317 240.433  18
  -3   2  -2 532.032 190.145   3
   3  -2   2 828.431 225.425   6
  -3  -2   3 50.1319 63.1517  19
  -3   2  -3 275.817 123.821  12
   2  -3   3 50.3936 48.2381   6
   3  -2   3 219.574 90.5692   1
  -2   3  -3 153.356 87.2848  12
   2   3  -3 161.880 134.066  13
  -3  -2   3 125.021 134.960  17
  -3  -2   3 181.834 121.527   2
   3  -2   3 272.851 125.859  14
  -3   2  -3 199.792 114.283   4
  -3   2  -3 161.555 80.5987   5
   3   2  -3 178.287 134.940   1
   3  -2   3 296.277 141.971   6
  -3   2  -3 251.982 115.868  19
  -3   2  -3 210.166 112.787   3
   3   2  -3 245.049 151.502  18
   3   2  -3 295.095 139.183  13
   3   2  -3 202.169 81.1214   8
   3  -2   3 246.286 128.368   8
  -2   3  -3 139.057 106.158   3
   3   2  -4 51.3189 34.5467   3
  -3   2  -4-3.66649 48.9887  13
  -3  -2   4 67.6322 61.8167  16
  -2   3  -4-13.0661 77.7175  13
  -3   2  -4 75.1650 37.3484   3
   3   2  -4 82.2410 82.5004  13
  -3  -2   4 24.5149 75.3131  17
   3   2  -4 37.4066 66.5446  18
   3  -2   4 43.6172 23.2897  16
  -3  -2   4 33.6100 55.9753   2
   2   3  -4 19.0128 23.6855   3
  -3   2  -4 53.9183 42.6975   5
  -2   3  -4 43.5639 59.6066   3
  -3   2  -4 86.9888 75.5111  19
   3   2  -4-93.2098 79.8528  14
  -3  -2   4 38.7158 58.0139   5
   2  -3   4 30.2552 32.4815   6
  -2   3  -4 58.2996 48.9318  12
   3   2  -4 65.4125 56.8592   8
   2   3  -4 50.4307 77.2589  13
   2  -3   4 8.79442 60.7346   8
  -3  -2   4 51.6225 65.7720  19
  -3   2  -4 58.3123 74.1169  12
   3  -2   4 68.3580 59.9211   6
   3  -2   4 56.4597 66.7118   8
  -3   2  -4 38.1376 33.7269   4
   3   2  -4 49.4100 64.7573   1
   3  -2   4 48.6170 36.3341   1
   3  -2   4 52.7303 47.6105  14
   2   3  -5 1073.37 309.107  13
  -3  -2   5 971.170 316.702   2
  -3   2  -5 908.497 256.954  12
   3  -2   5 1061.31 299.167   8
   2  -3   5 901.560 264.602   6
   3  -2   5 1049.82 243.692  14
  -3   2  -5 537.790 188.921  13
  -2   3  -5 707.316 178.274  19
  -3  -2   5 678.681 251.116   5
   3   2  -5 728.678 249.551   1
  -2  -3   5 477.599 135.541   6
  -3   2  -5 1015.30 251.607  19
   2  -3   5 421.131 174.425  16
  -3   2  -5 1068.54 246.540   5
  -3  -2   5 872.288 226.478  16
  -2  -3   5 338.396 143.040  16
   3  -2   5 928.859 277.514  16
   3   2  -5 1213.33 194.755   8
  -3  -2   5 955.111 206.961  19
  -3  -2   5 806.255 305.875  17
  -2   3  -5 953.621 244.504  12
   3   2  -5 1174.12 215.634   3
  -3  -2   5 372.922 130.423   4
  -2   3  -5 529.169 224.795  13
   2   3  -5 892.375 233.414   3
  -2   3  -5 1048.02 288.953   3
   2  -3   5 563.560 157.160  14
   2   3  -5 59.5628 41.1468   1
  -2  -3   5 447.244 241.327  17
   3  -2   5 1218.25 307.268   6
  -3   2  -5 846.430 260.917   3
  -3   2  -5 995.940 273.828   4
   3   2  -5 1086.10 302.104  18
   2  -3   5 585.351 212.128   8
   2   3  -5 845.647 292.090  18
   3  -2   5 1040.54 183.524   1
   3   2  -6 744.507 192.851   3
  -3   2  -6 457.719 194.213  13
   2   3  -6 709.243 215.086   3
  -3  -2   6 594.854 148.098  19
   2  -3   6 555.461 231.243  16
   2  -3   6 786.891 263.852   6
  -3   2  -6 609.390 223.463   4
  -2  -3   6 526.320 250.608   2
  -2   3  -6 524.431 192.164  12
   2   3  -6 383.902 113.477  12
   3   2  -6 552.069 205.014   1
  -2  -3   6 453.971 206.027  17
  -3  -2   6 472.542 208.883   5
  -2  -3   6 529.329 153.774   6
   2  -3   6 569.927 159.072  14
  -3  -2   6 566.905 199.078  16
  -2   3  -6 536.099 156.743  19
   3  -2   6 750.230 266.262   8
   3   2  -6 5.49647 26.8346  14
  -3  -2   6 621.545 282.605  17
  -2   3  -6 396.878 173.073  13
  -2   3  -6 622.641 230.087   3
  -3  -2   6 462.909 150.241   4
   2   3  -6 196.033 143.046   1
  -2   3  -6 511.834 161.636   4
   3  -2   6 742.248 254.587   6
   2   3  -6 637.570 253.072  18
   2  -3   6 479.846 178.385   8
   3  -2   6 674.949 261.313  16
   2   3  -6 655.136 254.951  13
  -2  -3   6 416.483 189.589  16
   3  -2   6 720.057 215.933  14
   3   2  -6 655.845 253.964  18
  -3   2  -6 781.926 172.978  11
  -3   2  -6 570.511 197.929  19
  -3  -2   6 610.501 261.692   2
   3  -2   6 623.698 145.051   1
  -3   2  -6 521.535 188.205   5
  -2   3  -7 4670.56 586.486  12
   3  -2   7 5805.11 771.726   8
  -2   3  -7 4864.83 542.804   4
  -3  -2   7 4028.10 348.755  19
   3  -2   7 5538.62 734.284   6
   2  -3   7 4852.96 467.585  14
   2  -3   7 4859.07 565.307  17
  -2   3  -7 3522.77 579.795  13
   3   2  -7 4124.51 575.295   1
  -3   2  -7 2150.72 391.726   5
   3  -2   7 5501.43 753.106  16
   2   3  -7 5300.21 731.046  13
   2  -3   7 4543.00 587.654   8
  -2  -3   7 4011.62 617.864  16
  -3   2  -7 3272.59 552.263   4
   2  -3   7 4639.37 731.592  16
  -2  -3   7 3981.56 678.587   2
  -2  -3   7 3505.54 430.186   6
  -2  -3   7 4206.95 740.006  17
  -3   2  -7 4400.89 428.031  11
  -2   3  -7 4110.84 437.198  19
   2   3  -7 4371.34 395.840  12
  -2   3  -7 4359.72 352.129   5
  -3   2  -7 3739.06 515.240  19
   3  -2   7 5449.98 598.554  14
  -2   3  -7 4573.10 663.490   3
   2   3  -7 4983.18 683.562  18
  -3  -2   7 4699.67 656.196   5
   2  -3   7 5443.97 692.554   6
  -3  -2   7 5222.15 729.257   2
   2   3  -7 5303.90 608.922   3
   3   2  -7 4893.60 676.019  18
  -2   3  -7 4321.54 441.616  18
  -3  -2   7 4579.80 602.197  16
  -3  -2   7 3853.05 424.812   4
   3   2  -7 6237.66 860.114  11
   3   2  -7 4562.81 704.960  20
   3   2  -7 506.179 158.595  14
  -3  -2   7 5052.13 803.906  17
   3  -2   7 4446.74 481.160   2
   2   3  -7 1927.93 408.834   1
   2   3  -8 48.6634 109.391   3
  -3   2  -8 150.977 248.907  10
   2  -3   8-13.0021 81.7042   2
   3   2  -8 25.4356 67.1825   1
   3  -2   8 96.8835 121.993   8
   3   2  -8 50.2692 153.759  11
   3  -2   8 48.0806 58.7218   2
   3  -2   8 5.85502 28.7232  17
   3  -2   8-15.2058 55.3694  16
  -2  -3   8 61.2848 142.949  17
  -3  -2   8 11.4793 31.4034   2
  -3   2  -8 35.0746 4.69022   4
   2   3  -8 21.4070 29.8561  12
   2  -3   8-1.69878 81.9856  17
  -3   2  -8 23.6544 62.6615  19
  -3  -2   8 64.9790 117.893  16
   3  -2   8 23.8301 48.1629   6
  -2  -3   8 37.8424 109.334   2
  -2   3  -8 48.6921 132.165  12
  -3  -2   8-8.73597 55.2667  19
   2   3  -8 35.8011 83.9782  18
   2  -3   8 56.2574 53.6806   6
  -3   2  -8 207.988 256.770  15
  -2  -3   8 46.0064 79.3954  16
  -3   2  -8 491.019 370.944   7
   2   3  -8-5.41218 27.3670   1
   3   2  -8 22.3206 73.4253  20
  -3   2  -8 24.8430 43.7035  11
   3   2  -8 126.881 210.341  10
   3   2  -8 33.6204 51.7019  18
  -3  -2   8 38.5271 76.1733   5
   2  -3   8 36.4872 53.0239  14
  -2   3  -8 51.0189 59.2186  18
  -3  -2   8 58.2856 97.8625  17
  -3  -2   8 10.3883 30.7650   4
   3  -2   8 24.9841 91.9615  14
  -2   3  -8 127.750 162.909   3
  -3   2  -8 83.2030 137.135  20
  -2   3  -8 1.68099 33.9149   4
  -2   3  -8 84.0360 88.2574  13
   2  -3   8-27.1364 105.758   8
  -2   3  -8 6.62650 43.5937  19
   3   2  -8 14.4824 30.9160  14
  -2  -3   8-10.1096 24.8761   6
   2  -3   8 18.6906 22.2189  16
   3  -2   9 980.467 333.417   8
  -3   2  -9 1145.07 359.976   9
   3   2  -9 897.576 350.068  11
  -3  -2   9 999.392 357.907   2
   2   3  -9 838.467 210.138  12
   3   2  -9 688.630 267.627  18
   3   2  -9 1349.94 493.188   9
   2   3  -9 1331.79 492.397  11
   2   3  -9 831.524 348.464  15
  -3   2  -9 345.531 146.141  19
  -2   3  -9 588.680 219.467   4
  -3   2  -9 746.044 359.209  15
   2  -3   9 811.602 293.097   2
  -2   3  -9 745.286 305.583   3
   2  -3   9 1030.81 233.975  14
   2  -3   9 956.268 265.477  17
  -2   3  -9 773.950 291.306  12
   2   3  -9 415.044 176.278   1
  -3  -2   9 906.023 186.399   4
  -3   2  -9 990.057 427.911   7
   3  -2   9 920.865 234.631   2
   3  -2   9 721.308 243.043  14
  -3   2  -9 881.974 335.520  20
  -2   3  -9 865.731 215.202  18
   3  -2   9 860.810 329.922   6
   2  -3   9 895.476 344.087  16
  -3  -2   9 765.584 337.226  17
  -3  -2   9 756.592 282.324  16
  -2   3  -9 1430.63 333.545  11
   3   2  -9 676.549 310.311  20
   3  -2   9 1127.14 388.959  16
  -2  -3   9 308.640 137.454   6
  -2  -3   9 717.961 303.648   2
   2   3  -9 898.963 304.000  18
  -2   3  -9 798.160 207.550  19
  -2  -3   9 952.427 411.940  17
   3   2  -9 172.481 79.8122  14
   2  -3   9 1139.53 299.367   8
  -3  -2   9 940.854 284.286   5
   3   2  -9 757.012 255.380   1
   2  -3   9 885.018 306.380   6
   2   3  -9 1032.87 307.902   3
   3   2  -9 516.321 251.654  10
  -3   2  -9 630.665 275.424  10
  -2  -3   9 747.898 294.420  16
   2   3  -9 891.045 350.263   7
  -2   3  -9 632.430 292.191  13
  -3   2  -9 394.466 141.270  11
  -3   2 -10 224.247 134.904  19
   3   2 -10 411.888 298.634   9
  -3   2 -10 419.556 259.131  20
   2  -3  10 550.372 170.416  14
   3   2 -10 365.006 191.590  10
   2   3 -10 227.435 71.5438  15
  -2   3 -10 483.619 304.795  20
   3   2 -10 452.752 269.409  11
   2  -3  10 492.388 261.066  16
  -3  -2  10 542.988 265.533   2
   3   2 -10 172.525 158.129  20
  -2  -3  10 505.646 257.355   2
   3  -2  10 355.113 214.215   6
  -3   2 -10 264.802 165.857  10
   2   3 -10-17.2144 265.057   7
  -2  -3  10 409.246 185.315   5
   2   3 -10 475.021 232.368  18
  -2   3 -10 8.18491 142.665   4
  -3  -2  10 410.711 203.982   5
  -2   3 -10 708.932 175.348  19
  -2   3 -10 402.189 148.302  18
   2   3 -10 777.065 367.713  11
   2   3 -10 377.375 189.171   1
  -2  -3  10 143.521 110.128   6
  -2  -3  10 579.413 284.077  17
   2   3 -10 489.910 326.181  20
  -3   2 -10 300.249 162.138   9
  -3  -2  10 452.889 132.286   4
   2  -3  10 624.235 252.842   2
   2  -3  10 637.756 199.693  17
  -3  -2  10 380.675 241.520  16
   2  -3  10 473.776 251.245   6
  -3  -2  10 446.954 253.885  17
  -3   2 -10 328.142 230.927   7
  -3   2 -10 323.330 273.797  15
  -2   3 -10 927.048 248.864  11
   2  -3  10 738.935 215.538   8
   3  -2  10 649.310 285.501   8
   3   2 -10 113.559 65.1936  14
   3  -2  10 635.596 200.686   2
  -2  -3  10 432.488 211.397  16
   3   2 -10 341.540 182.874   1
   3  -2  10 646.929 293.333  16
  -3   2 -10 89.5458 55.4525  11
  -2   3 -10 1026.78 532.608  15
   3   2 -10 374.288 210.098  18
   3  -2  10 399.530 210.756  14
  -3  -2  11 96.2814 105.490   5
   2   3 -11 70.6332 64.8097   1
  -2  -3  11-5.19834 81.6507   6
  -2   3 -11 423.790 470.544   7
  -3   2 -11-87.2841 312.725  15
  -2   3 -11 204.496 314.626  20
   3   2 -11 101.129 80.8583   1
   2  -3  11 183.277 193.459   6
  -3   2 -11-418.149 457.397   7
  -3   2 -11-11.2888 106.795  20
  -2   3 -11 190.137 121.736  19
   2   3 -11 129.531 95.2362  18
   3  -2  11 230.008 191.976   8
   3   2 -11-64.1389 168.452  20
  -3   2 -11 100.981 90.4537   9
  -2   3 -11 241.393 174.646  11
  -2  -3  11 108.704 125.306   5
   2  -3  11 281.626 335.228  16
  -3   2 -11 8.64653 50.0018  19
   2  -3  11 181.874 138.038  17
   3  -2  11 88.5150 126.513   6
   2  -3  11 322.530 224.269   8
   2   3 -11 45.9653 92.5007  20
   3  -2  11 215.169 150.910   2
   3  -2  11 104.037 155.750  16
   3   2 -11 61.5961 44.0429  14
  -3  -2  11 84.0383 144.979   2
  -2   3 -11 83.8717 61.8332  18
  -2   3 -11 465.229 387.902  10
  -2   3 -11 205.897 381.958  15
  -2  -3  11 193.582 244.111  17
   2  -3  11 123.966 107.368  14
   3  -2  11 6.22160 88.9178  14
  -3  -2  11 161.924 167.191  17
   3   2 -11 95.4922 163.430  10
  -2  -3  11 206.607 192.869  16
  -3   2 -11 129.852 156.692  10
   3   2 -11 19.2469 146.889   9
   3   2 -11 81.8353 132.949  11
   3   2 -11 68.1184 22.8762  18
  -2  -3  11 112.978 153.955   2
  -3   2 -11 19.6350 68.6773  11
   2   3 -11 366.960 379.413  10
   2  -3  11 282.615 202.247   2
   2   3 -11 126.747 118.892  11
  -3  -2  11 156.005 183.434  16
   2   3 -12 37.6530 85.5083  10
  -3   2 -12-15.0385 13.7326  19
   3  -2  12-45.4052 193.675  14
   2   3 -12 109.833 125.571   1
  -2   3 -12 130.095 87.3974  19
  -2   3 -12 57.6118 27.7752  18
   3   2 -12-369.593 269.728  20
  -2   3 -12 192.093 268.674  10
   2   3 -12 23.3574 62.5782  11
   3   2 -12 73.6557 26.2187   1
  -3  -2  12 110.372 122.161  16
  -3  -2  12 105.295 64.1214  17
   3   2 -12 112.871 86.2596  11
  -3   2 -12 9.67239 75.8573  20
   2  -3  12 13.2602 116.988   2
  -2  -3  12 127.548 140.284  16
   3  -2  12 203.860 126.277   2
   3   2 -12 31.6169 40.3982  14
  -3   2 -12 72.3900 99.7829   9
   2  -3  12 168.447 137.615  14
  -2  -3  12 80.1547 93.6462  17
  -2   3 -12 170.288 206.348   7
  -3  -2  12 105.447 143.331   2
  -2  -3  12 70.3703 62.3874   2
   2   3 -12 122.618 89.4592  18
   2  -3  12 279.460 161.436  17
   3  -2  12 97.9284 124.980   6
   2  -3  12 75.3949 90.5258   8
  -3  -2  12 130.782 111.883   5
   2  -3  12 113.426 162.863  16
   3   2 -12 69.5241 38.9561   9
   2   3 -12 130.734 180.237  20
   3  -2  12 136.077 184.263   8
  -3   2 -12-35.1728 151.868  10
  -2   3 -12 240.517 301.053  20
  -2  -3  12 182.392 147.532   5
   3   2 -12 64.1456 97.3860  18
   3   2 -12 107.077 46.8170  10
   2  -3  12-77.7638 144.815   6
  -2  -3  12 26.8857 53.6845   6
   3  -2  12 132.479 74.3256  16
  -2   3 -12 168.028 144.273  15
  -2   3 -12 80.8561 21.8328  11
   2   3 -13 76.5199 118.073  18
   2   3 -13-37.4172 52.5741  10
  -3   2 -13-234.631 182.538   9
   2   3 -13 42.3204 91.0768   1
   2  -3  13-441.971 382.016  14
  -2  -3  13 12.8057 40.2474   6
   3  -2  13 44.5575 85.8047   6
  -2   3 -13 356.317 561.181  20
  -2   3 -13 238.990 282.833  19
  -3  -2  13 54.6242 77.6439   5
  -2   3 -13 240.820 301.647  18
  -2  -3  13 82.1896 139.235   5
   2   3 -13 661.517 449.904   9
  -3  -2  13 32.7764 102.652   2
   2  -3  13 47.0077 499.245   8
  -2  -3  13 272.860 372.716  17
   2   3 -13 87.0306 172.067  11
   3   2 -13-7.44495 24.4445  14
  -3   2 -13-225.216 267.669  20
   3  -2  13-176.632 87.0573   2
  -2   3 -13-798.929 328.306   7
  -2   3 -13 405.594 473.935  10
   3   2 -13 61.0902 127.176   1
   2  -3  13 89.1014 544.661  16
  -2  -3  13 102.818 186.850  16
   3   2 -13 133.536 150.045   9
  -3  -2  13 111.398 160.952  16
  -2   3 -13 299.198 434.054  11
  -2  -3  13 18.1831 170.412   2
   2   3 -13 131.232 271.050  20
  -3   2 -13-174.882 245.647  10
   3   2 -13 53.7394 53.6717  11
   3   2 -13 76.3639 108.883  18
   3   2 -13-132.376 360.515  20
   3   2 -13-152.173 247.480  10
  -2   3 -13-222.889 441.142  15
   3  -2  13-64.1955 176.144   8
   3  -2  13-29.4198 60.9167  16
  -3   2 -13-97.1226 105.276  19
   2  -3  13 22.3524 545.476   2
  -3  -2  13-21.9799 135.023  17
  -3   2 -14-180.174 141.362  19
  -2   3 -14-11.4877 154.667  20
   3  -2  14-50.0766 125.758   6
  -2  -3  14 18.0795 116.203  16
  -2   3 -14-140.916 126.083   9
   2   3 -14 6.40796 95.2100  10
  -3  -2  14-67.3164 190.074   2
   3   2 -14 56.7012 123.713  11
   2   3 -14 59.2570 137.043  18
  -3   2 -14-33.3613 41.4387  20
  -2  -3  14 13.9569 32.2318   8
  -2   3 -14-179.496 157.211  11
   3   2 -14 49.6649 85.8895   9
  -2  -3  14-45.6802 112.303   5
   3  -2  14-157.950 152.793   2
  -3   2 -14-106.088 117.473   9
   2   3 -14-81.2172 156.851   9
   3   2 -14 20.1461 28.6748   1
   2   3 -14 24.3967 144.256  20
  -2   3 -14 62.5560 143.012  10
   3  -2  14-2.92900 19.2980   8
  -3   2 -14-36.5682 147.624  10
  -2   3 -14-36.2125 95.2662  18
   3   2 -14-9.87026 111.551  10
  -2   3 -14-536.037 628.708  15
   2  -3  14-69.1978 128.286  17
  -3  -2  14 29.2044 75.6614   5
  -2  -3  14-15.0366 105.964  17
  -2  -3  14-102.633 175.849   2
   2  -3  14-14.7432 113.771  16
   2   3 -14-89.5796 139.865  11
   3   2 -14-0.36994 133.443  18
   3  -2  14-7.47236 106.168  16
   2   3 -14 57.1643 102.784   1
   2  -3  14 15.5297 86.9688   6
  -3  -2  14 1.86316 104.476  16
  -2   3 -14-19.3855 35.9832  19
   2  -3  14-13.6718 80.0568   2
   3   2 -14 19.7396 27.8364  14
  -3  -2  14 33.8601 153.902  17
   2  -3  14-24.7695 84.7584   8
   3   2 -15 11.8562 46.2122  11
  -3  -2  15-24.7780 50.4514   5
   3  -2  15 64.9526 123.712   2
   3   2 -15 21.8624 79.8112   1
   2  -3  15 57.6126 18.4879   2
  -2  -3  15 46.7663 194.129  16
  -2   3 -15 90.6569 145.391   9
   3   2 -15-65.6071 143.477  18
   2   3 -15 49.8116 241.867  20
   2   3 -15 62.8436 123.049  11
   3   2 -15 24.9200 39.2627  14
  -2   3 -15 52.0001 89.3907  11
   3  -2  15 231.694 234.348   8
  -3  -2  15 25.2703 114.901  17
  -2  -3  15 31.6194 60.3966   5
  -2   3 -15-28.8776 104.991  18
   2   3 -15-88.0990 239.218  10
   2   3 -15-36.3497 144.047   9
  -3  -2  15-22.3230 114.515   2
  -2   3 -15-4.48762 51.5251  20
   3  -2  15 24.3015 174.278  16
   2   3 -15-42.0331 132.168  18
   3   2 -15-64.8786 177.408  10
   2  -3  15-20.6326 146.531   6
   2  -3  15 13.5634 52.0934  16
   2  -3  15-82.6956 112.431   8
   3   2 -15 91.3579 31.7026   9
  -2  -3  15 78.9315 45.8435   2
   3  -2  15 98.1675 76.6386   6
   2  -3  15 82.2531 90.3974  17
  -3   2 -15-61.7949 161.955   9
  -2   3 -15 70.4843 84.2777  19
  -3   2 -15 8.37675 66.0319  10
  -2  -3  15 95.8492 52.1717   8
  -3  -2  15 100.917 228.208  16
   2   3 -15 59.9473 16.7503   1
  -2   3 -15 46.8099 136.174  10
  -2  -3  15 67.1925 151.719  17
  -3   2 -15 18.2979 59.3383  19
  -3   2 -15-188.009 215.515  20
  -2   3 -16 57.8653 153.700  20
   3   2 -16 71.0211 51.9040  14
  -3   2 -16-865.784 479.911  20
   3  -2  16 858.219 450.330  16
  -3   2 -16 3.65745 112.876   9
   2   3 -16 187.393 88.2628  11
   2  -3  16 793.137 334.956   2
  -3   2 -16-119.557 137.981  19
   2   3 -16 219.928 250.627  18
  -2   3 -16 145.693 172.575   9
   3  -2  16 383.174 264.789   6
   2   3 -16 353.154 234.163   9
   3   2 -16-7.22116 182.266  10
   2   3 -16 274.242 226.071  10
  -2   3 -16 169.247 161.352  11
  -2  -3  16 803.992 397.031  16
   2   3 -16 58.8956 148.197  20
   2  -3  16 299.493 281.706   6
  -2  -3  16 750.034 358.277   2
  -3  -2  16 561.508 236.148   5
  -2  -3  16 831.127 269.070   5
  -2   3 -16 220.400 137.747  19
   2  -3  16 863.346 365.451   8
  -3  -2  16 962.311 424.841  17
   2  -3  16 656.482 378.625  16
   3   2 -16 296.902 177.875   1
  -3  -2  16 542.139 302.065  16
  -3   2 -16 96.2448 199.407  10
   3   2 -16 117.268 164.291  18
   3   2 -16 91.3826 131.325  11
  -2   3 -16 230.635 128.291  10
   3   2 -16 76.1925 52.0052   9
  -2  -3  16 669.714 319.517  17
   3  -2  16 718.956 301.193   2
  -3  -2  16 609.589 310.009   2
   2   3 -16 288.298 155.920   1
   3  -2  16 913.605 429.568   8
   2  -3  16 342.893 141.747  17
  -2  -3  16 824.613 192.380   8
   3   2 -17 39.7642 73.0279   9
  -2   3 -17 83.3358 189.593  10
  -3  -2  17 640.951 368.187   2
  -3   2 -17-72.8906 120.075  19
  -3   2 -17-265.055 387.700  10
   2   3 -17 216.888 182.618  11
   2   3 -17 279.633 185.103   1
  -2  -3  17 553.277 385.278  17
  -3   2 -17-628.262 672.886  20
  -2   3 -17-21.1454 88.9270  11
  -2   3 -17-127.665 126.169  19
   3   2 -17-156.364 362.529  10
   2   3 -17-119.314 365.234  20
   3   2 -17 65.8573 47.2529  14
   3   2 -17 170.502 192.780   1
  -2  -3  17 694.450 369.186   2
  -2   3 -17-57.2554 190.225   9
   3  -2  17 680.401 278.495   2
  -2  -3  17 715.606 250.198   5
  -3   2 -17 146.811 51.6116   9
  -3  -2  17 409.074 197.209   5
   2   3 -17 0.99181 170.361  10
   3   2 -17 67.4138 156.869  18
   3  -2  17 543.188 362.904   8
   2   3 -17 54.7940 77.1694  18
   2  -3  17 276.285 278.113   6
   2  -3  17 558.499 390.647  16
   3  -2  17 705.587 462.870  16
  -2  -3  17 634.571 190.843   8
  -2   3 -17 132.312 245.948  20
   2  -3  17 815.534 317.580   8
   2   3 -17 249.373 253.741   9
  -3  -2  17 683.865 395.375  17
  -2  -3  17 686.316 365.171  16
  -3  -2  17 349.622 299.380  16
   2  -3  17 884.003 330.658   2
   3  -2  17 16.4769 194.483   6
   2  -3  17 11.3058 277.085  17
   3   2 -17 69.5887 148.370  11
   2  -3  18 75.6111 139.264   8
   3  -2  18 114.929 173.498   2
   3  -2  18-33.9365 201.226   8
   3   2 -18 38.5863 124.631  11
  -2   3 -18-36.0223 289.386  20
   3   2 -18 72.2443 100.022  18
   3  -2  18-30.3722 106.598  16
   2   3 -18-706.927 469.625  20
   2   3 -18 206.621 209.404   9
   2   3 -18 112.710 167.493  10
  -2  -3  18 391.759 317.717  16
   3   2 -18 132.358 161.065   1
  -3  -2  18 288.318 229.627   2
  -3  -2  18 82.0973 45.5129   5
  -2   3 -18-265.781 259.004  11
  -2   3 -18-68.3212 217.605  10
   3   2 -18-257.661 300.959   9
  -2   3 -18-84.8096 75.5109   9
   2   3 -18 106.480 137.862   1
  -2  -3  18 257.564 259.202   2
  -3  -2  18 74.8901 205.213  17
   2  -3  18 455.704 473.015  16
  -2  -3  18 146.599 149.171   5
   2  -3  18 213.113 263.933   2
  -2  -3  18 261.663 152.946   8
  -3   2 -18-191.113 192.314  19
   3  -2  18-155.521 387.405   6
  -2   3 -18 159.396 143.493  19
   2  -3  18 2.83349 81.4065   6
  -3  -2  18 116.808 243.873  16
  -2  -3  18 305.768 298.168  17
   2   3 -18 141.634 241.383  11
  -3   2 -18-102.345 228.733   9
   2   3 -18-58.0270 159.861  18
   3   2 -19-8.83294 222.157  18
   2   3 -19-30.8237 182.246  10
   2  -3  19 2136.58 798.548  16
  -2   3 -19-52.8103 363.384  20
   3  -2  19 2126.76 618.022   2
   2  -3  19 2340.47 645.430   2
  -2   3 -19 207.450 140.298  19
  -2   3 -19 373.409 316.247  10
  -3  -2  19 1428.28 404.312   5
  -2  -3  19 2156.96 684.373  17
   2   3 -19 314.350 242.560   9
   2   3 -19 266.616 280.894  18
   3   2 -19 205.054 187.376   1
   3   2 -19 153.717 169.534  11
   2  -3  19 2458.74 636.177   8
  -2  -3  19 2217.00 671.226   2
  -2  -3  19 2108.72 727.824  16
  -3   2 -19-333.827 271.212  19
  -3  -2  19 2168.44 714.118  17
  -3  -2  19 2108.21 695.022   2
  -2   3 -19 194.194 154.911   9
   3   2 -19-128.597 276.282   9
   2   3 -19 392.178 200.746  11
  -3  -2  19 1486.72 650.333  16
   3  -2  19 1847.76 750.915  16
   2  -3  19 573.781 238.170   6
  -2  -3  19 2121.53 425.167   5
   3  -2  19 2152.89 661.609   8
   2   3 -19 316.934 201.889   1
   2   3 -20-6.21732 186.711  11
  -3  -2  20 179.785 293.783  16
  -3   2 -20-202.698 194.015  19
  -2  -3  20 157.473 250.077  17
   3   2 -20-329.435 428.646   9
   2   3 -20-17.4885 222.840  10
  -2  -3  20 131.380 150.098  16
  -2   3 -20-189.779 255.943   9
   2   3 -20-262.630 230.415  18
   3   2 -20 177.080 178.417   1
  -3  -2  20 78.0413 112.110   5
   2   3 -20 34.7629 39.5444   1
   3  -2  20 258.666 221.594   2
  -3  -2  20 277.173 319.684   2
   3  -2  20 472.738 477.447  16
   2  -3  20-53.5554 22.1593   8
   2  -3  20 64.3298 206.546   2
  -2  -3  20 395.425 320.261   2
  -3  -2  20-592.763 391.413  17
   2  -3  20 456.543 366.413  16
   2   3 -20-72.7256 135.702   9
  -2   3 -20 110.961 183.924  10
   3  -2  20 628.550 337.464   8
   2   3 -21-124.383 416.997  10
   2   3 -21-113.182 284.684  18
  -3   2 -21-589.966 362.921  19
  -2  -3  21 1712.70 617.601  17
  -3  -2  21 1259.35 381.814   5
   3   2 -21 199.883 162.603   1
   2   3 -21-31.8323 297.519  11
  -3   3  -2 27.2701 54.7758  12
   3  -3   2-38.5029 96.6382   6
  -3   3  -3 22.4871 62.7125  12
   3   3  -3-10.0152 15.5879  13
   3  -3   3-19.3947 75.9925  14
  -3   3  -3-4.30259 42.3249  19
   3   3  -3 22.3234 42.2640   1
   3  -3   3 1.44939 30.6188   6
  -3   3  -3-18.2746 55.9425   3
   3  -3   3 20.9447 43.1885   8
   3   3  -4 693.502 282.294   1
  -3   3  -4 1898.46 404.035   3
  -3   3  -4 2037.17 367.218  12
  -3   3  -4 1877.52 335.239  19
   3   3  -4 1697.44 421.696  18
   3  -3   4 1756.11 382.528   6
   3  -3   4 1307.15 341.921   8
   3  -3   4 1462.80 301.749  14
   3   3  -4 1948.10 420.994  13
  -3   3  -5 10.1861 42.7100   3
   3   3  -5-6.39349 79.3678  18
  -3   3  -5-6.42606 45.3180  19
  -3  -3   5-16.1389 36.5867   6
   3  -3   5-27.1680 162.708  16
  -3  -3   5-18.8475 58.9123  17
   3  -3   5 13.7547 19.5009  14
   3  -3   5-48.5262 62.4427   8
   3   3  -5-4.19096 34.6838  13
  -3   3  -5-24.3709 61.2743  12
  -3   3  -5-3.40522 57.7266  13
  -3  -3   5-44.5819 68.2247   2
   3   3  -5-5.12063 37.4205   1
   3   3  -5 11.9086 30.9659   3
  -3   3  -5-9.49790 63.7118   4
   3  -3   5 34.9620 91.5604   6
   3   3  -6 1855.98 426.171  13
  -3  -3   6 920.201 277.241  16
  -3   3  -6 1600.44 386.864   3
  -3   3  -6 1601.44 348.912  12
  -3  -3   6 634.229 184.672  19
  -3  -3   6 1186.96 373.905   2
   3  -3   6 1275.91 374.284  16
  -3   3  -6 1356.86 258.317   5
   3  -3   6 1251.64 186.015   1
   3   3  -6 928.915 307.643   1
   3  -3   6 1603.74 307.289  14
  -3   3  -6 834.937 260.268  13
  -3  -3   6 1011.91 391.656  17
   3   3  -6 1835.17 331.662   3
  -3   3  -6 1599.87 337.546   4
   3  -3   6 1866.33 408.360   6
  -3  -3   6 1140.13 201.841   6
   3   3  -6 1685.09 424.314  18
  -3   3  -6 1476.13 297.109  19
   3  -3   6 1622.03 393.584   8
  -3   3  -7 2.64545 51.0197   4
  -3  -3   7 3.26331 45.4187   6
   3  -3   7-26.5236 32.7057  17
   3  -3   7 23.6130 50.9119  16
   3   3  -7-24.3177 44.6335   3
   3  -3   7 61.3736 88.9257   6
   3   3  -7-34.1776 21.7002   1
  -3   3  -7-39.1205 74.4790  19
  -3  -3   7-9.06297 60.4807   2
  -3  -3   7 28.1271 119.491  17
  -3   3  -7 23.2479 52.8373  18
  -3   3  -7 12.2095 64.1877  12
  -3  -3   7 21.4647 42.4171  19
   3  -3   7 54.4521 137.144   8
   3   3  -7 53.0209 99.2937  13
   3   3  -7 3.75312 11.9232  12
   3   3  -7 7.77839 84.9793  18
  -3  -3   7-14.2202 61.6546  16
   3  -3   7 1.12893 46.2382  14
  -3   3  -7 30.3052 105.372  13
  -3   3  -7 44.7980 94.8740   3
   3  -3   7-3.75804 19.2843   1
  -3   3  -7-1.73672 25.9262   5
  -3  -3   8 5500.93 849.901   2
  -3   3  -8 5349.37 607.150  19
   3  -3   8 7052.06 554.493  17
   3  -3   8 6330.74 800.730   8
  -3   3  -8 5294.40 690.571   4
  -3  -3   8 1713.42 286.018   6
   3  -3   8 6445.71 644.604  14
  -3  -3   8 5670.23 410.649  19
   3   3  -8 5908.86 426.337  12
  -3   3  -8 6014.09 446.692  18
  -3  -3   8 5436.19 731.955  16
  -3   3  -8 5666.67 564.407   5
   3  -3   8 6084.42 883.229  16
   3   3  -8 5080.19 684.447  15
  -3  -3   8 5343.23 915.136  17
  -3   3  -8 5007.86 744.118   3
   3   3  -8 6353.65 859.148  18
  -3   3  -8 5063.47 685.370  12
   3   3  -8 3981.85 633.975   1
   3   3  -8 5398.65 687.200   7
  -3  -3   8 2879.27 539.436   5
   3   3  -8 6570.10 687.549   3
  -3   3  -8 3769.69 606.465  13
   3  -3   8 7500.93 891.901   6
   3   3  -9-224.723 257.419  15
  -3   3  -9 54.2114 137.233  11
  -3  -3   9-47.5493 26.8106   5
  -3  -3   9-0.04709 8.74401  19
  -3   3  -9 54.6141 129.546  13
  -3   3  -9 27.8869 73.1449  19
  -3   3  -9 10.7346 45.6622  18
   3   3  -9 215.989 350.623  11
  -3  -3   9-5.99513 80.0618  16
   3  -3   9 7.51932 62.2206   2
  -3   3  -9 32.7747 151.764   3
   3  -3   9 7.77218 102.227   6
  -3   3  -9 81.4477 154.686  12
   3   3  -9 312.407 334.468  20
   3   3  -9 10.5041 77.6589   1
  -3  -3   9 0.09186 48.0887   6
  -3  -3   9 12.3938 47.5298   2
   3   3  -9 47.3739 68.0195  18
   3  -3   9 36.0083 40.7914  17
   3  -3   9-32.4014 55.0855  16
  -3   3  -9-26.7858 50.7789   4
   3  -3   9-35.5691 61.9406   8
   3   3  -9 30.7061 79.9048   3
  -3  -3   9 51.5318 166.488  17
   3  -3   9-8.21817 51.0665  14
   3   3  -9 13.6468 0.86823  12
   3   3 -10 406.509 306.969  20
  -3   3 -10 141.969 70.6754  18
   3   3 -10 149.565 119.465   1
   3  -3  10 277.999 140.407  14
  -3  -3  10 215.251 200.504   5
  -3   3 -10 233.598 98.9188  19
   3  -3  10 264.860 184.534   6
   3   3 -10 375.894 287.567  11
  -3  -3  10 230.043 159.467   2
  -3  -3  10 281.025 206.258  17
   3   3 -10 226.784 163.947  18
  -3   3 -10 286.223 250.957  20
   3  -3  10 289.913 177.157   2
  -3   3 -10 367.242 152.375  11
   3  -3  10 425.027 222.140   8
  -3   3 -10 170.812 143.199   4
  -3  -3  10 248.959 181.005  16
   3   3 -10 314.852 150.517  12
  -3  -3  10-24.0064 30.9184   6
   3  -3  10 152.617 132.342  16
   3  -3  10 283.792 123.193  17
   3  -3  11-41.7479 113.562   2
   3   3 -11 79.6538 225.222  10
   3  -3  11-126.073 129.944   6
  -3  -3  11 41.7384 146.487   2
  -3  -3  11 64.3069 127.326   5
   3  -3  11 31.3782 127.143  16
   3  -3  11-73.5602 89.2408   8
   3   3 -11-33.3755 110.681  11
   3  -3  11-42.6744 58.1078  14
   3  -3  11 17.7950 14.9555  17
  -3   3 -11-34.2667 19.0800  11
   3   3 -11 36.9526 87.3756   1
   3   3 -11-1.55486 73.8834  18
  -3   3 -11 259.942 341.700  15
  -3  -3  11 47.8283 32.7942  17
  -3   3 -11 12.8414 90.8462  19
  -3  -3  11-12.1060 93.8605  16
  -3   3 -11 2.81423 23.6765  18
   3   3 -11-38.6457 59.5836  20
  -3  -3  11-61.1479 93.0171   6
  -3   3 -11 155.246 233.207  10
  -3   3 -11 65.7357 204.640  20
  -3   3 -12 1265.29 532.367   9
  -3   3 -12 42.0823 50.8638  18
  -3   3 -12 158.673 120.652  19
  -3   3 -12 300.822 286.017  10
   3  -3  12 360.315 202.702   8
  -3  -3  12 243.954 204.373  17
  -3  -3  12 189.683 190.216  16
   3   3 -12 117.508 67.3717  20
  -3   3 -12 95.7875 204.037  20
   3  -3  12 234.770 177.396  14
   3   3 -12 166.671 114.121   1
  -3   3 -12 119.586 65.7059  11
  -3   3 -12 152.789 109.227  15
   3  -3  12 244.597 90.8531  17
   3   3 -12 129.587 145.717  10
   3  -3  12 144.695 40.5617   2
   3  -3  12 217.463 255.385  16
   3   3 -12 77.6581 98.8975  11
   3  -3  12 192.567 156.656   6
   3   3 -12 213.764 185.831  18
  -3  -3  12 178.270 165.417   2
  -3   3 -12 164.063 309.957   7
   3   3 -12 1081.48 510.973   9
  -3  -3  12 162.963 144.426   5
  -3   3 -13 1059.77 316.846  11
  -3  -3  13 247.585 312.516  16
   3   3 -13-1.26348 69.0606   1
  -3   3 -13 1484.63 753.219  15
   3   3 -13-84.7788 171.065  11
  -3   3 -13 12.7216 108.127  18
  -3  -3  13 180.750 327.334  17
  -3  -3  13 161.615 265.225   2
  -3   3 -13 1481.47 368.940  19
  -3  -3  13 101.859 191.955   5
   3   3 -13 74.6393 111.310  18
  -3   3 -13 571.663 257.015   7
  -3   3 -13 1484.40 708.297  20
  -3   3 -13 1471.65 554.678  10
   3  -3  13 1509.77 693.577  16
   3   3 -13 396.342 354.981   9
   3   3 -13-17.3350 115.877  10
   3   3 -13-62.2940 69.7630  20
  -3   3 -14 305.443 273.947  20
   3   3 -14 461.069 319.657   9
  -3   3 -14 174.549 131.127  11
   3   3 -14 117.820 93.0999  11
   3   3 -14 73.5261 77.7542   1
   3   3 -14 105.954 195.110  20
   3   3 -14 108.540 135.996  10
   3  -3  14 463.482 279.871   8
   3  -3  14 297.999 236.981   6
  -3  -3  14 345.370 194.269   5
  -3   3 -14 61.5089 87.1541   9
  -3  -3  14 232.012 178.652  17
  -3   3 -14-58.6022 292.332  15
  -3  -3  14 111.331 89.8061   2
  -3   3 -14 163.096 96.3896  19
   3  -3  14 32.9027 79.5736  14
  -3   3 -14 181.161 192.254  10
   3  -3  14 181.960 169.876   2
  -3  -3  14 277.094 209.075  16
   3  -3  14 170.312 215.403  16
  -3   3 -14-630.980 553.661   7
   3   3 -14 225.708 161.420  18
   3   3 -15 45.1308 152.043  10
  -3   3 -15 89.4828 169.042  10
   3   3 -15-56.1324 166.039  18
   3   3 -15-68.4296 109.822   1
  -3   3 -15 1.95938 94.2182   9
  -3  -3  15 32.6756 134.301   5
   3  -3  15 16.2227 138.665   2
  -3  -3  15 62.8876 140.786  16
  -3   3 -15 123.580 250.405  20
   3  -3  15 34.9484 124.595  16
   3   3 -15 4.49582 63.5618  20
   3  -3  15 148.455 216.802   8
   3   3 -15 33.7367 120.005  11
  -3   3 -15-8.51077 49.0732  11
  -3   3 -15-572.013 690.994  15
  -3  -3  15 51.4035 98.5323  17
   3  -3  15 22.0114 65.0932   6
   3   3 -15-67.0845 105.041   9
  -3   3 -15 170.285 131.053  19
  -3  -3  15-65.0353 76.7134   2
   3  -3  16 486.833 336.828   8
  -3   3 -16 259.164 204.328  19
  -3  -3  16 219.252 264.101  16
   3  -3  16 159.977 219.981   6
  -3   3 -16 67.4643 110.377   9
  -3   3 -16 0.77797 112.502  20
   3   3 -16-22.2769 279.782  20
  -3   3 -16-4.26566 124.395  10
   3  -3  16 301.427 234.187   2
   3   3 -16-70.8987 52.2569  10
   3   3 -16 287.508 257.552  11
   3   3 -16 110.618 146.290  18
   3   3 -16 96.8103 109.057   1
  -3   3 -16-34.1926 110.296  11
  -3  -3  16 244.493 216.659  17
   3  -3  16 162.849 226.050  16
  -3  -3  16 227.370 166.222   5
  -3  -3  16 297.097 292.053   2
   3   3 -16 92.5292 165.048   9
   3   3 -17-69.4206 215.494  11
   3  -3  17-291.697 252.348   6
  -3  -3  17 128.464 196.326   5
  -3   3 -17-315.268 286.605  11
  -3  -3  17 94.0430 180.469   2
  -3   3 -17-83.4349 96.6722   9
   3  -3  17 141.744 122.159   8
  -3   3 -17-311.053 271.986  10
  -3  -3  17 47.4328 55.2432   8
   3   3 -17-10.3919 125.338  10
  -3  -3  17-48.5520 147.412  16
  -3  -3  17 25.3518 163.937  17
  -3   3 -17 27.9439 85.6548  19
   3  -3  17 30.2688 85.8702   2
   3   3 -17-38.1585 176.240  18
   3   3 -17-41.4947 151.369   9
   3   3 -17-15.8886 26.3074   1
  -3   3 -17 302.498 340.853  20
   3  -3  17-34.8337 114.719  16
   3   3 -17-320.647 469.672  20
   3   3 -18 493.895 365.651   9
  -3   3 -18 332.840 235.130  10
  -3  -3  18 1342.61 585.115   2
  -3  -3  18 991.683 528.158  17
  -3  -3  18 1743.93 448.332   5
   3   3 -18 265.642 300.583  18
  -3   3 -18 302.729 186.096   9
  -3   3 -18-1.09962 52.7350  19
   3   3 -18 214.712 207.889  10
   3   3 -18 808.004 468.168  11
   3  -3  18 1786.91 544.571   8
  -3  -3  18 1554.69 595.079  16
   3  -3  18 923.630 480.417   6
   3   3 -18 473.139 254.959   1
   3  -3  18 1519.49 580.741  16
   3  -3  18 1506.55 495.411   2
  -3   3 -18 42.9045 81.4762  20
   3   3 -19-5.57085 61.0613  18
  -3  -3  19-62.1409 80.3177  17
  -3   3 -19-409.248 505.407  20
  -3   3 -19 35.8708 159.540   9
   3  -3  19-43.8357 81.3235   2
   3   3 -19-0.42956 105.692   9
  -3  -3  19 183.133 194.919   5
  -3   3 -19 38.8092 87.2870  10
  -3   3 -19 34.1773 66.0413  19
  -3  -3  19 135.833 237.063   2
   3   3 -19-56.1197 249.203  10
  -3  -3  19 36.2364 126.569  16
   3  -3  19 133.451 192.351  16
   3   3 -19 74.3652 133.416  11
   3  -3  19 236.109 356.520   8
   3   3 -19 88.1783 170.877   1
   3  -3  19-357.386 299.015   6
   3   3 -20 545.721 286.325   1
   3  -3  20 1005.86 464.565   6
   3   3 -20 185.126 183.803   9
  -3  -3  20 3683.49 916.106   2
   3  -3  20 3412.83 809.735   2
   3   3 -20 26.2839 266.255  10
   3   3 -20 359.373 321.290  18
   3  -3  20 3941.68 870.524   8
  -3  -3  20 2797.66 832.351  17
  -3   3 -20 346.130 266.590   9
   3  -3  20 3125.97 950.917  16
  -3   3 -20-169.743 169.578  19
  -3   3 -20 123.405 191.988  10
  -3  -3  20 2866.89 592.325   5
  -3  -3  20 2455.58 823.247  16
   3   3 -20 528.952 362.458  11
  -4   0   0 366.508 120.434   2
  -4   0   0 250.954 93.8566  12
  -4   0   0 355.121 183.769   5
   4   0   0 455.924 137.211   6
   4   0   0 308.356 138.363  14
  -4   0   0 257.378 127.157  17
   4   0   0 396.114 182.427   8
   4   0   0 322.757 146.353   1
  -4   0   0 339.352 179.666   4
  -4   0   0 353.905 164.842  19
   4   0   0 354.768 134.196  18
   4   0   0 527.741 151.311  11
  -4   0   1 23.3950 73.3504  19
   4   0   1-10.0047 41.2728  14
   4   0   1-5.66784 25.6133  18
  -4   0  -1-12.2188 27.9924   4
   4   0  -1-8.27895 43.0515   1
   4   0  -1 0.93336 11.3177   6
  -4   0   1 8.83928 39.7293   2
   4   0   1 49.8108 97.9569   8
   4   0  -1-11.5396 31.0036  11
   4   0   1 18.7272 73.9933   1
   4   0  -1-0.79578 17.3804  18
  -4   0   1 5.61379 32.3978  17
  -4   0  -1 7.39683 73.1022   5
  -4   0   1-4.33549 10.1116  12
  -4   0  -1 5.49144 12.6789  17
   4   0   1-0.89322 32.4124   6
  -4   0   1-1.59414 50.0749   4
   4   0  -1-5.54930 51.4357   8
   4   0  -1-100.758 79.0253   9
  -4   0  -1-14.0655 42.5033  19
   4   0  -1 18.7466 54.1282  14
  -4   0  -1-4.33470 31.5403   2
  -4   0   1-2.30256 30.5027   5
  -4   0  -2-2.00265 20.4233  19
   4   0   2 93.6634 109.983   8
  -4   0   2-1.66690 25.9510  12
   4   0  -2 10.1756 20.1026  14
   4   0   2 34.0247 68.7312  14
  -4   0   2 27.0118 47.0367   2
   4   0   2 33.5325 31.1190  16
   4   0  -2 7.71052 36.6348   1
  -4   0  -2-9.24728 37.2658   5
   4   0   2 41.3250 67.9769   1
  -4   0   2 52.8949 74.3425  19
   4   0  -2 47.8724 57.5533  18
   4   0  -2-77.2566 80.7856   9
   4   0   2 31.7060 54.4523   6
  -4   0  -2 18.9146 53.5594   4
   4   0  -2 4.18144 17.0509   8
  -4   0   2 26.2478 38.2037  17
  -4   0  -2 96.3729 112.152   7
   4   0  -2 31.5940 26.8534   6
  -4   0  -2 99.6676 122.214  15
   4   0  -2 12.4501 45.6867  11
  -4   0   2 30.1821 57.1206   5
   4   0   2 42.5896 56.5623  18
  -4   0   2 34.7582 57.6144   4
  -4   0  -2-1.37174 32.5802  17
  -4   0  -2-26.6149 84.5773  20
   4   0   3-14.1347 23.0599  18
  -4   0  -3-11.5700 74.8959   5
   4   0  -3-15.3895 58.9321   8
   4   0  -3-27.6568 64.4191  11
  -4   0  -3-11.4098 73.4669   4
  -4   0   3-16.3650 29.1472   4
  -4   0  -3-14.1709 41.5870  17
   4   0   3 18.5439 86.3326   8
  -4   0   3-10.0065 17.4064   5
  -4   0  -3-21.9396 55.7723   7
   4   0  -3-35.4775 92.4813   9
   4   0   3-8.14740 62.2125   1
  -4   0  -3-14.2022 75.8853  19
   4   0  -3 0.99118 28.9548  18
   4   0   3-30.1021 47.7484  16
   4   0   3 8.71428 44.1118  14
  -4   0   3-10.9373 48.9962   2
  -4   0   3-13.1849 40.4176  17
  -4   0   3-20.7799 51.4138  19
  -4   0  -3-41.0283 23.6407  15
   4   0  -3 22.8355 12.1247  14
   4   0   3 11.3444 56.8981   6
   4   0  -3 18.8620 42.3349   1
  -4   0   4 1599.93 321.757   4
   4   0  -4 909.448 255.773   8
  -4   0   4 1674.72 418.631  17
   4   0  -4 2095.89 354.330  14
   4   0  -4 1841.95 386.104   1
   4   0   4 1635.39 397.165  14
  -4   0  -4 594.225 268.998   7
  -4   0   4 2039.06 340.919  19
   4   0   4 972.951 293.897   1
   4   0   4 1386.82 338.663   6
   4   0  -4 1113.42 319.869  11
  -4   0  -4 394.231 193.155  19
   4   0  -4 1462.02 347.802  18
  -4   0  -4 612.591 302.296  15
   4   0   4 1517.92 311.539  16
  -4   0  -4 420.328 225.270   4
   0   4  -4 339.345 169.715  13
   4   0   4 2091.36 505.017   8
  -4   0   4 1838.06 362.056   2
   4   0  -4 41.9551 73.4117   9
  -4   0   4 1882.45 410.440   5
   0  -4   5-9.07268 63.8156   6
   4   0   5-63.3380 90.4509  14
   4   0   5-5.86887 64.6771   1
   4   0   5-92.0069 149.381   8
   4   0   5 0.71519 47.0353  16
  -4   0  -5-11.9128 92.0113  19
   4   0  -5-31.9980 164.844   9
   4   0  -5-16.5643 66.4516   1
   4   0   5-23.8530 60.3615   6
   4   0  -5 50.4684 76.2815  11
  -4   0   5-10.4035 54.5255   5
  -4   0   5-22.0032 35.7081   2
  -4   0   5 13.5329 26.8045  19
   4   0  -5 28.3255 42.3706  18
   0   4  -5-18.7692 47.8236   3
   4   0  -5-12.3028 32.5697  14
   0   4  -5-10.4875 56.6676  13
  -4   0   5-28.3863 29.4537  17
   4   0  -6 240.698 153.728  11
  -4   0  -6-64.3525 192.868  19
   0   4  -6 663.204 196.468  12
  -4   0   6 493.941 192.718   5
   4   0  -6 606.180 179.784  14
   4   0  -6 593.635 222.649   1
  -4   0   6 665.604 294.261  17
   0  -4   6 341.441 156.065   6
   4   0   6 737.331 338.363   8
  -4   0   6 586.028 227.007   2
   4   0   6 489.905 225.752   6
   0   4  -6 762.823 265.205   3
   4   0   6 430.925 231.073  14
   4   0  -6 364.246 185.730  18
   4   0   6 552.428 228.526  16
   0   4  -6 607.720 264.381  13
  -4   0   7-37.5311 82.7095   2
   0   4  -7 9.91766 45.8703   3
   4   0   7-39.1378 126.560   6
   0  -4   7 39.6245 80.5411   6
   4   0  -7-29.6938 68.0223  18
   4   0   7 25.9046 127.100   8
   0   4  -7 2.33342 94.1565  18
   4   0  -7-13.4707 73.8093   1
  -4   0   7-12.1399 39.5014  17
   4   0  -7 3.30287 9.30908  14
   0   4  -7 44.2083 71.7882  13
   0  -4   7-90.1883 221.381  16
   4   0   7 8.23181 85.5473  16
   0   4  -7-14.0366 41.8821  12
   4   0  -7-27.3174 100.475  11
   4   0   7 2.67631 63.1487  14
   4   0  -8 3210.89 553.799   1
   4   0  -8 1211.43 415.539  11
   0  -4   8 4952.65 795.728  17
   0   4  -8 6650.95 915.583  13
  -4   0   8 666.485 221.747  16
   4   0   8 3952.70 698.903  16
   4   0  -8 1998.21 495.672  18
   0   4  -8 6634.60 654.399  12
   4   0   8 3459.63 741.667   8
   4   0  -8 21.3058 297.081   9
   0   4  -8 6084.88 745.350  18
   0  -4   8 6382.52 744.508   6
  -4   0   8 5626.30 925.860  17
   4   0   8 3012.40 638.990   6
  -4   0   8 4930.20 754.165   2
   4   0  -8 3697.94 459.440  14
   0   4  -8 7373.01 869.918   3
   0  -4   8 4754.56 766.889  16
   0   4  -9 13.7749 13.1621   3
   0   4  -9 20.5323 33.8916  12
   0   4  -9 14.7835 84.8775  13
   0  -4   9-6.21039 29.0225   6
   0   4  -9-39.0441 94.2284  18
   4   0  -9-46.8743 118.051  18
  -4   0   9 15.0760 48.0909  17
  -4   0   9-56.7585 171.902  16
   4   0   9-42.9207 33.9317  16
   0   4  -9-10.8855 13.2006   4
   0  -4   9 15.7682 128.511  17
   4   0   9-145.636 342.442   8
   4   0   9-24.0401 128.079   6
   4   0  -9-45.0675 167.575  11
   4   0  -9 27.2302 63.3922   1
   4   0  -9 16.1482 20.8645  14
   0  -4   9 7.48942 81.6869  16
   0  -4   9 17.7629 94.0354   2
  -4   0   9-14.1834 77.7520   2
   0   4 -10 194.544 177.682   3
  -4   0  10 122.698 108.662   2
   4   0 -10 32.0047 72.7697   1
   4   0  10 169.423 190.754  16
   0  -4  10 86.9456 122.483   6
   4   0  10-221.946 486.861   8
   4   0 -10 21.4724 83.9713  18
   0  -4  10 179.918 63.5826  14
   0  -4  10 242.956 221.605   2
   4   0 -10-31.0401 187.570  11
   0   4 -10 217.807 158.673  18
   0   4 -10 182.372 88.5903  12
  -4   0  10-40.7988 124.049  16
  -4   0  10 275.680 244.712  17
   0  -4  10 167.847 160.641  17
   4   0  10-36.2161 174.035   6
   0  -4  10 263.620 213.297  16
   0   4 -10 199.706 195.618  13
   0  -4  11-17.6834 81.5757  17
   4   0 -11-32.5008 141.996  18
   4   0 -11-108.736 263.955  11
   0   4 -11 83.5427 138.073   3
   4   0 -11-129.786 183.516   1
   0  -4  11-28.2538 85.2263  16
   4   0  11 9.34010 151.757  16
   0  -4  11 33.7671 42.7878   6
   0  -4  11-32.0181 33.4568  14
  -4   0  11-10.7426 125.583  17
   0   4 -11-6.91410 46.5951  12
   0  -4  11-34.3696 62.1131   8
   0  -4  11 87.5913 112.516   2
   4   0  11-141.235 309.086   6
   0   4 -11 80.5874 188.739  13
  -4   0  11-30.6743 90.9591  16
  -4   0  11-18.3678 20.5280   2
   0   4 -11-1.70688 66.2705  18
   4   0 -12-91.4503 213.162  18
   4   0 -12-78.1402 131.228   1
   0   4 -12 94.3830 134.544  12
   0  -4  12-76.0110 128.460  17
   0   4 -12 93.5963 142.082  13
  -4   0  12 5.06588 129.761   2
   0  -4  12-26.4907 55.1563   8
   4   0  12 12.9194 66.1508  16
   0   4 -12 262.167 338.581  15
   0  -4  12-6.35260 42.4101   6
   0  -4  12 100.123 134.905  16
   0  -4  12 148.884 193.364   2
   0   4 -12 347.235 416.416   7
   0   4 -12 36.7993 81.1218  18
   0   4 -12 117.284 96.1063  11
  -4   0  12-9.79808 161.275  17
   0   4 -12 171.574 233.814   3
  -4   0  13-4.57103 162.106   2
   0   4 -13 642.411 485.305   7
   4   0  13-5.21291 127.744  16
   4   0 -13-61.9717 258.837  18
   0   4 -13 485.703 438.812  15
   0  -4  14 90.3280 63.5811   8
   0   4 -14-169.183 312.878   7
   4   0  14 194.396 305.130  16
   0   4 -14 0.34461 115.061  20
   0  -4  14 120.500 150.237   6
   0  -4  14 205.835 225.541  16
   0   4 -14 78.4817 111.785  18
   0   4 -14 182.200 152.783  11
   0   4 -14 129.152 169.158  15
  -4   0  14 16.5593 31.9656   2
   0  -4  14 49.5348 133.447   2
   0   4 -14-11.6502 50.3403   1
   0  -4  14 195.817 184.755  17
   0   4 -14 374.177 379.574  10
   0  -4  15 134.009 156.754   2
   0   4 -15 161.704 311.899  20
   0   4 -15 52.4717 103.355  18
   0   4 -15 71.0061 113.345  11
   0   4 -15 164.914 219.910  10
   0  -4  15-77.1502 128.467   6
   0   4 -15 20.6082 26.6221   1
   0   4 -15-496.698 632.048   7
   0   4 -15 723.087 506.132   9
   4   0  15-7.57865 111.752  16
   0  -4  15 82.3261 197.176  17
   0  -4  15-4.71364 94.4070  16
   0   4 -15-335.437 541.123  15
   0  -4  15 41.9600 53.8855   8
   4   0  16-1.31862 73.0079  16
   0  -4  16 200.748 228.207   2
   0   4 -16 56.5304 59.9862  18
   0  -4  16-69.9710 111.433   6
   0  -4  16 168.724 205.218  16
   0   4 -16-44.2556 13.4118  11
   0   4 -16 354.451 344.777  10
   0   4 -16-51.5815 79.1553   1
   0  -4  16 59.4007 117.732  17
   0   4 -16 480.626 387.140   9
   0   4 -16 1.43080 158.236  20
   0  -4  16 113.750 126.050   8
   0  -4  17 168.035 253.046  16
   0   4 -17 15.4640 181.386  20
   0  -4  17 150.042 141.001   8
   0  -4  17 45.9646 119.553  17
   0   4 -17 57.4464 85.0614   1
   0   4 -17-46.4612 130.560   9
   0   4 -17-195.728 249.451  11
   0   4 -17 14.8816 197.107  10
   0  -4  17-71.1147 206.320   6
   0   4 -17-10.4249 100.704  18
   0  -4  17 149.563 256.400   2
   0   4 -18 519.363 500.217  20
   0  -4  18 364.762 241.397   6
   0  -4  18 1490.28 535.980  17
   0   4 -18 463.055 287.651  18
   0   4 -18 801.679 362.572  11
   0   4 -18 778.065 481.770   9
   0   4 -18 1164.41 571.210  10
   0  -4  18 1354.01 515.386   2
   0  -4  18 1444.31 570.335  16
   0  -4  18 1824.87 407.941   8
   0  -4  19 417.308 336.216   2
   0   4 -19 712.459 448.514   9
   0   4 -19 62.9657 27.8638  18
   0  -4  19 232.170 150.324  17
   0   4 -19 544.205 385.166  10
   0  -4  19 483.976 222.272   8
   0   4 -19 423.527 268.798  11
   0  -4  19 474.367 431.381  16
   0   4 -19 386.680 407.597  20
   0  -4  19-81.3433 240.950   6
   0   4 -20 73.9489 251.713  20
   0   4 -20 312.228 60.8567  10
   0  -4  20 2233.94 695.157   2
   0   4 -20 338.939 356.789   9
   0   4 -20 247.197 116.436  18
   0  -4  20 1756.25 700.234  16
   0  -4  20 1830.29 603.147  17
   0  -4  20-739.629 426.623   6
   0   4 -20 824.242 403.261  11
   4   1   0 1348.08 351.707  14
  -4   1   0 1761.71 370.701   4
  -4  -1   0 1185.57 373.214   5
   4  -1   0 547.099 172.468  18
   4   1   0 2171.65 443.217   1
   4  -1   0 2779.85 368.683   6
   4   1   0 2236.05 387.536  18
  -4  -1   0 864.683 276.582  19
  -4   1   0 2547.40 410.888  19
  -4   1   0 604.836 197.234  17
  -4   1   0 1481.71 260.045  12
   4  -1   0 2260.94 439.334   8
  -4  -1   0 1178.13 329.479  17
   4  -1   0 2258.37 377.076   1
  -4  -1   0 795.706 268.866   4
   4   1   0 2416.20 482.815   8
   4  -1   0 2473.56 398.480  14
   4   1   0 337.313 122.173   6
  -4   1   0 2158.71 416.589   5
  -4   1  -1 100.790 114.441   4
  -4   1  -1 103.957 100.006   5
   4   1   1 38.6954 66.7358  18
   4   1  -1 22.3110 18.9846   6
   4  -1  -1 104.963 78.5100  14
   4   1   1 21.9601 28.6094   1
  -4   1   1 108.791 95.8899   5
   4   1  -1 162.162 144.529   8
   4   1  -1 129.037 125.845   1
   4   1  -1 83.3464 67.8050  13
   4  -1  -1 5.13329 29.8801  18
  -4   1  -1 39.8282 18.2883   2
   4  -1  -1 52.9389 38.6190   6
  -4  -1   1 76.9005 114.725   4
   4  -1   1 119.888 93.0932   1
  -4   1   1 42.7655 38.5008   4
   4  -1   1 119.807 126.615  14
  -4  -1   1 102.633 92.3552  19
   4   1   1 0.70517 18.1323   6
   4   1   1 25.4069 65.9535  14
   4   1   1 79.3155 79.8146   8
  -4  -1   1 91.8445 81.4930   2
   4  -1   1 172.714 128.831   6
   4  -1  -1 77.8443 85.5255   1
  -4  -1   1 149.087 150.020   5
  -4   1  -1 117.991 85.5760  12
   4  -1   1 160.329 166.003   8
   4  -1   1 38.0451 36.7461  18
  -4  -1  -1 13.3898 30.2416  19
  -4  -1   1 33.5357 56.6873  17
  -4   1  -1 20.7638 5.63799   3
  -4   1   1 14.8987 10.6095  17
   4  -1  -1 73.3357 83.9924   8
   4   1  -1 98.5438 89.1338  18
  -4   1  -1 11.2228 14.6239  17
  -4  -1  -1-33.2232 122.656   4
  -4   1  -1 137.787 154.744  19
   4   1  -1 53.8001 51.5173  14
  -4   1   1 112.418 80.1246  19
  -4   1   1 14.3026 32.2712  12
  -4   1  -2 223.481 146.736  19
   4   1  -2 139.822 94.8867  14
   4  -1   2 314.754 153.616  14
  -4  -1   2 193.382 129.424  19
  -4  -1   2 192.855 126.115   2
   4   1   2 65.2663 44.2307  14
   4  -1   2 278.907 176.296   8
  -4  -1   2 128.874 109.458   5
  -4   1   2 86.1320 34.6766   5
   4   1  -2 255.437 110.964  13
   4  -1   2 233.512 117.449   1
  -4   1   2 168.066 103.983  19
   4   1  -2 183.468 114.171  18
   4   1   2 129.999 142.257   8
   4  -1   2 75.0590 45.7171  18
   4  -1   2 99.0888 57.2799  16
  -4   1  -2 187.998 124.377   5
  -4  -1   2 144.044 149.816  17
   4  -1  -2 212.889 120.324  14
  -4   1  -2 145.821 82.1594   3
   4  -1  -2 104.590 100.125   8
   4  -1  -2 14.8474 40.2362  18
   4   1   2 80.3298 97.9120   1
  -4   1   2 78.5184 77.8389  17
  -4   1  -2 227.356 134.652   4
  -4  -1   2 160.273 122.911   4
   4   1  -2 270.252 157.304   1
  -4   1  -2 170.360 113.697  12
   4  -1   2 259.328 121.967   6
  -4   1  -2 49.9477 42.4338  17
   4  -1  -2 122.742 71.3470   1
   4   1   2 3.69090 55.8031   6
   4   1  -2 301.196 164.203   8
  -4   1  -3 489.284 209.586   4
  -4  -1   3 442.989 175.142  19
   4   1  -3 595.740 199.407   8
   4  -1  -3 297.227 138.272  14
   4  -1   3 596.859 189.251   1
   4   1  -3 533.745 218.203   1
   4  -1  -3 330.800 165.735   1
   4  -1   3 665.967 268.981   8
   4   1  -3 279.349 107.020  20
  -4  -1   3 531.008 205.430   2
  -4   1  -3 414.271 157.539   3
   4   1   3 140.542 79.4200   8
   4  -1   3 486.450 189.126  14
  -4   1  -3 400.656 174.335  19
   4  -1  -3 19.9317 40.4810  18
  -4  -1   3 420.903 182.973   4
   4  -1   3 631.381 203.189   6
  -4   1   3 391.727 155.691  19
   4  -1   3 514.728 171.818  16
  -4   1  -3 461.272 206.420   5
   4   1  -3 826.306 291.539  11
  -4  -1   3 415.802 210.929   5
   4   1  -3 347.028 166.758  14
   4   1   3 147.976 101.369  14
   4   1  -3 532.174 197.585  18
   4   1   3 58.4068 76.8500   1
  -4  -1   3 477.505 111.191  16
  -4   1   3 109.900 87.1188  17
   4  -1  -3 34.7264 70.9013   8
  -4   1  -3 478.273 182.346  12
  -4  -1   3 429.876 209.015  17
   4   1   3-1.42178 103.723   6
   4  -1  -4 74.4101 65.5899  14
   4  -1   4 90.9784 84.8657  14
   1   4  -4 56.6082 67.4470  13
   4   1   4-89.1619 149.154   6
  -4   1  -4 52.9764 83.9744   5
   4  -1  -4-5.47624 95.9853  18
  -4  -1   4 148.375 84.7358  16
  -4  -1   4 104.667 116.392   5
  -4  -1   4 88.4535 83.3891  19
   4  -1   4 139.942 102.620  16
  -4   1  -4 148.490 120.373  20
  -4   1  -4 122.672 122.072  19
   4   1  -4 63.9680 80.5502  18
  -4  -1   4 98.7307 86.6439   2
   4   1  -4-23.6205 85.3650  20
   4   1  -4 139.809 159.499  11
  -4   1  -4 144.347 109.277  10
  -1   4  -4 64.5355 82.9922   3
  -4   1  -4 81.6852 109.741   4
   4  -1  -4 33.1255 46.9121   1
   4   1  -4 100.822 85.5982  10
  -4  -1   4 117.400 94.7449   4
   4  -1   4 159.064 184.852   8
   4   1  -4 104.235 70.7378   8
   4  -1   4 112.112 81.8682   1
  -4   1   4 13.0897 122.978  17
  -4  -1   4 100.758 89.8192  17
   4   1  -4 56.0687 67.8891  14
   4   1  -4 99.6022 99.1812   1
   4  -1   4 140.696 107.303   6
  -4   1  -4 102.163 73.5893  13
  -4   1   4 21.9063 64.4967  19
   4   1  -5 2625.21 399.602  14
   4  -1   5 4045.10 673.015   8
  -4   1  -5 3611.91 762.087  15
  -1   4  -5 1087.84 368.739  13
  -4  -1   5 3386.60 573.573   5
  -4   1  -5 2308.12 442.459  20
   4   1  -5 3341.83 596.815  11
   4  -1  -5 920.256 274.267   1
   4  -1   5 3473.96 520.311  16
  -4  -1   5 3102.50 512.972   2
   4  -1   5 3745.99 569.027   6
   1   4  -5 2375.57 451.400   3
  -4   1  -5 2019.82 320.558  10
  -1   4  -5 2805.99 521.471   3
   4   1  -5 2974.21 523.674  18
  -4   1  -5 1996.89 459.443   4
  -4  -1   5 3172.11 456.150   4
   4  -1   5 3486.62 545.645  14
   4   1  -5 3000.06 498.617   1
   4   1  -5 2705.82 475.269   9
  -4  -1   5 2818.32 566.303  17
  -4  -1   5 3193.98 414.757  19
  -4   1  -5 1816.95 428.965   5
  -4   1   5 1115.11 355.366  17
  -4  -1   5 2692.11 366.652  16
  -4   1  -5 1885.33 412.786  19
   1   4  -5 2412.14 535.282  13
  -1   4  -5 2314.67 380.404  12
   4  -1   5 2620.37 421.296   1
   1  -4   5 903.725 272.079   6
  -4   1  -5 1681.54 247.392   9
   4   1  -5 2231.23 352.510   8
   4  -1  -5 1205.19 275.403  14
   4   1  -6 667.620 238.284   9
  -4  -1   6 954.523 240.539   4
   1   4  -6 1014.34 340.227  13
  -4  -1   6 861.623 329.482  17
   4  -1   6 294.913 149.968   1
   4  -1  -6-12.8964 113.149  18
  -4   1  -6 988.724 433.156  15
   4   1  -6 950.188 289.871   1
  -4   1   6 264.402 66.1034  17
  -4   1  -6 678.608 263.980  20
   4   1  -6 362.992 166.016  10
  -4   1  -6 439.057 185.133  19
   4   1  -6 1048.70 357.428  11
   1  -4   6 601.645 223.937   6
  -4  -1   6 962.664 222.386  19
  -4  -1   6 755.413 211.394  16
   4   1  -6 801.635 226.854  14
  -4   1  -6 284.426 100.240   9
  -4   1  -6 494.992 167.908  10
  -4   1  -6 378.702 208.538   4
   4  -1   6 1066.44 371.111   8
  -1   4  -6 710.839 298.923  13
   4   1  -6 796.319 281.876  18
   4  -1   6 982.580 299.606   6
   1   4  -6 1028.96 298.371   3
   4  -1   6 1086.23 311.195  16
  -1   4  -6 998.773 263.069  12
  -1   4  -6 1122.59 328.875   3
   1   4  -6 474.224 150.495  12
   4  -1   6 1112.56 318.559  14
  -4  -1   6 991.255 303.672   5
  -4   1  -6 830.815 387.208   7
  -1  -4   6 373.832 164.395   6
  -4  -1   6 939.288 298.009   2
   4   1  -7 1502.03 434.080  11
   4  -1   7 1710.73 432.082   6
   4  -1   7 1914.90 516.008   8
  -4  -1   7 1708.43 404.570   5
   4   1  -7 412.655 163.920  10
  -4  -1   7 940.546 215.050  19
  -4   1  -7 781.688 287.967  20
  -4  -1   7 1412.14 299.181   4
  -4  -1   7 1713.21 491.754  17
   1   4  -7 1523.23 286.109  12
  -4  -1   7 1804.37 432.880   2
   1   4  -7 1546.51 416.178  18
  -1  -4   7 712.420 271.829  16
   1   4  -7 2032.59 485.250  13
  -4  -1   7 1326.34 323.122  16
   4   1  -7 1471.44 395.374  18
  -4   1  -7 1124.48 418.734   7
  -1  -4   7 1078.45 277.877   6
   4   1  -7 1453.41 282.988  14
  -4   1  -7 148.765 106.236   4
   1  -4   7 1257.83 335.575   6
   4   1  -7 849.152 307.904   9
   4  -1   7 1558.29 213.671   2
   4   1  -7 1660.69 391.762   1
  -1   4  -7 2278.82 488.546   3
  -4   1  -7 573.046 226.292  19
   4  -1   7 1669.30 419.828  16
  -1   4  -7 1445.31 413.517  13
   1  -4   7 853.102 295.382  16
   1   4  -7 2044.68 433.233   3
  -4   1  -7 1082.52 432.968  15
  -1   4  -7 1624.73 341.946  12
   4  -1   7 1614.97 404.043  14
  -4   1  -7 377.623 131.905   9
  -4   1  -7 530.802 187.397  10
  -4   1  -8 37.8265 28.5745   9
   1  -4   8 94.6027 89.0276  16
   4  -1   8 56.0250 30.9939   2
   4  -1   8 55.8668 78.1264  16
   4   1  -8 22.4751 22.9783  14
  -4  -1   8 50.8233 77.3092   5
  -1   4  -8 46.4779 16.8326  12
   1  -4   8 124.398 155.111  17
   4   1  -8 47.0829 100.434  11
   1   4  -8 136.318 130.157   3
  -1   4  -8 101.804 107.782   3
   1  -4   8 132.037 103.549   6
  -1  -4   8 75.8920 61.5619   6
  -4   1  -8-12.0000 96.2371  10
   4  -1   8 136.969 174.097   6
  -1  -4   8 70.2711 100.150  16
  -1  -4   8 85.7252 117.409  17
  -4   1  -8-52.7501 328.729   7
  -4   1  -8 37.8886 84.2171  20
  -4   1  -8-10.7578 89.1162  19
  -1   4  -8 111.382 144.388  13
  -4  -1   8 45.6923 76.3054  16
   1   4  -8 155.581 164.308  13
  -4   1  -8-15.9701 192.259  15
   4   1  -8 92.2172 79.8949  18
   4   1  -8 76.6583 53.9728   9
   4   1  -8-35.7157 61.4254  10
   4   1  -8 137.060 123.498   1
   1   4  -8 78.6073 133.667  18
   1   4  -8 73.6936 68.2489  12
   4  -1   8 168.803 185.247   8
  -4  -1   8 123.720 209.757  17
  -4  -1   8 108.004 116.731   2
  -1   4  -8 43.6525 90.2287  18
   4  -1   8 143.595 145.326  14
   4   1  -9 635.030 303.467  11
  -4   1  -9 127.622 75.9518  10
  -1   4  -9 1019.43 350.071   3
  -1  -4   9 859.621 276.939   6
   4   1  -9 340.673 174.519   9
  -1   4  -9 948.787 345.929  13
   1   4  -9 931.586 241.014  12
   4   1  -9 698.747 275.112   1
  -4   1  -9 244.641 180.774  20
   1   4  -9 1087.51 336.440  18
  -4  -1   9 1012.30 390.681  17
   4  -1   9 900.621 381.067   8
  -4  -1   9 926.627 312.831   5
   1  -4   9 902.224 303.952   6
   4  -1   9 791.444 195.840   2
   1  -4   9 484.232 169.753   8
  -1   4  -9 1173.10 231.418   4
  -4   1  -9 0.08891 114.357   9
  -1   4  -9 1061.81 286.809  12
   1   4  -9 1098.39 330.400   3
   4   1  -9 528.920 257.568  18
   1  -4   9 828.277 341.273  16
   1   4  -9 973.323 347.478  13
   4  -1   9 939.635 373.139  16
   1  -4   9 1162.95 338.991  17
  -1   4  -9 1040.70 281.521  18
   4  -1   9 649.097 288.493  14
   4   1  -9 773.259 201.457  14
  -4  -1   9 1003.43 367.550   2
  -1  -4   9 786.542 368.453   2
   4  -1   9 776.472 334.037   6
  -4   1  -9 20.7556 34.1868  19
  -4  -1   9 686.947 265.221  16
  -4   1  -9-259.520 414.728  15
   4   1  -9 2.88527 158.628  10
  -1  -4   9 980.704 369.789  17
  -1  -4   9 867.284 329.135  16
   1  -4   9 875.560 179.517  14
   4  -1  10 490.250 291.923   6
   4   1 -10 497.075 165.179  14
   4  -1  10 607.873 339.741   8
  -4  -1  10 338.024 213.826  16
   1   4 -10 654.492 302.054  13
   4   1 -10 415.367 205.927   1
  -1   4 -10 523.466 246.495   3
   1   4 -10 14.7313 76.5953   1
  -1   4 -10 489.579 152.600   4
   4  -1  10 240.724 154.096  14
  -4   1 -10-44.1948 170.990   9
  -4   1 -10-11.4138 164.349  19
  -1  -4  10 633.100 321.307  17
  -1  -4  10 399.232 191.227   6
  -1  -4  10 431.084 271.825   2
  -4   1 -10-84.6814 210.419  20
  -1  -4  10 482.016 242.033  16
   4   1 -10 167.765 58.0067   9
   4  -1  10 483.618 248.308  16
  -4  -1  10 471.382 209.634   5
  -1   4 -10 718.161 228.070  18
   1   4 -10 672.464 273.427  18
  -4  -1  10 516.932 293.011  17
   1  -4  10 668.513 149.370  14
   4   1 -10 377.895 228.993  18
   1  -4  10 621.747 250.892   6
   1  -4  10 425.406 167.250   2
   1  -4  10 772.150 251.177  17
  -1   4 -10 619.362 284.767  13
   1   4 -10 679.336 269.657   3
  -4   1 -10 19.1983 105.048  10
   1  -4  10 533.691 162.876   8
   1  -4  10 626.043 309.404  16
   4   1 -10-75.6358 254.833  10
   1   4 -10 571.729 193.530  12
  -4  -1  10 623.362 267.052   2
   4  -1  10 383.067 136.394   2
   4   1 -10 299.890 217.113  11
  -1   4 -10 568.396 204.087  12
  -4  -1  11 137.808 142.210  17
   4  -1  11 43.1848 62.6950   2
  -1   4 -11 140.807 112.724  18
   4  -1  11 97.2476 104.092  16
   1  -4  11 236.273 149.481  17
   4   1 -11 101.240 88.4717  14
   1  -4  11 141.928 77.9935  14
  -1   4 -11 185.570 180.747  12
   4  -1  11 76.8042 137.975   6
   4   1 -11-95.2901 283.236  10
  -1  -4  11-85.2706 179.528   2
  -4   1 -11-164.549 316.875  20
   1  -4  11-58.7155 135.497   6
   4  -1  11 83.5680 204.831   8
  -4   1 -11-69.8547 201.298  19
  -4  -1  11 39.1988 112.421   2
   1  -4  11 112.370 105.296  16
   1  -4  11 25.0272 58.4713   8
  -1  -4  11 69.4389 82.0906   6
   1   4 -11 144.620 160.953   3
   4   1 -11 59.4083 70.0855  18
   4   1 -11-6.64306 121.419  11
  -1  -4  11 88.0336 170.763  17
  -1   4 -11 177.498 233.420  13
  -4  -1  11 54.8004 77.9674   5
   1   4 -11 15.3368 101.535  12
  -1   4 -11-9.73356 87.2900   4
   4   1 -11-37.7522 69.8008   1
  -1  -4  11 256.903 224.320  16
   1   4 -11 10.5090 78.5371   1
   4   1 -11 54.7462 100.539   9
   1   4 -11 95.0894 89.7429  18
  -4  -1  11 88.4928 169.678  16
  -1   4 -11 198.699 181.093   3
   1  -4  11 129.129 164.752   2
   1   4 -11 135.201 213.538  13
  -1   4 -12 223.832 197.921  12
  -1   4 -12 364.460 371.481  15
  -4   1 -12-236.998 251.748  19
  -4  -1  12 97.5437 166.859  16
   1  -4  12 44.6187 29.4799  16
   1  -4  12 82.0804 119.135   6
   1   4 -12 45.1284 54.5383   1
   4  -1  12 108.493 181.007   8
   4   1 -12 8.20375 68.8857   1
  -1   4 -12 241.618 199.451   3
   1   4 -12 287.342 176.153  12
   4   1 -12-96.4480 228.441   9
  -1   4 -12 335.346 227.232  11
   4   1 -12-1.62913 92.0598  18
  -1   4 -12-9.92077 64.5663  19
  -4  -1  12 24.1227 108.994   5
  -1  -4  12 350.989 284.667  16
  -1   4 -12 360.468 282.617  13
   1  -4  12 168.047 88.2130   2
   1  -4  12 160.608 103.831   8
   4   1 -12-30.7877 98.4680  11
  -1  -4  12 426.715 302.409   2
  -1   4 -12 40.6172 23.8374  18
   4  -1  12 107.752 48.1532   2
  -4  -1  12 75.2264 117.232  17
   1   4 -12 531.662 403.005   7
   1   4 -12 243.958 216.509   3
   1  -4  12-196.034 190.593  17
  -1  -4  12 394.918 273.942  17
   1   4 -12 294.918 318.046  15
   1  -4  12 48.4818 39.4009  14
  -1  -4  12 218.451 163.550   6
  -4  -1  12 115.159 164.119   2
   4   1 -12 49.4601 66.5125  14
   4  -1  12 131.404 172.839  16
   1   4 -12 173.731 182.780  18
   1   4 -12 931.194 414.453  11
   4  -1  12 97.1195 143.243   6
   4   1 -13-9.97501 181.025   9
   4   1 -13-22.7885 137.551  18
  -4  -1  13-3.30825 135.196  17
   4   1 -13 17.1575 56.2604   1
   4   1 -13 3.09889 11.2695  14
   1   4 -13 671.394 353.723  18
   4  -1  13-20.1311 158.997   6
   1   4 -13 852.245 392.201   1
   4  -1  13-53.5800 108.588   2
  -1   4 -13 1865.56 770.664  15
  -1  -4  13 649.752 284.057   6
  -1  -4  13 704.502 345.161  16
   4  -1  13 50.2170 91.5763   8
   1   4 -13 919.523 451.999  11
  -1  -4  13 1270.49 451.058  17
   4  -1  13 52.6754 82.1094  16
   4   1 -13-72.2658 232.048  11
  -1  -4  13 747.962 415.812   2
   1   4 -13 535.388 462.801   7
  -4  -1  13 35.2784 171.025  16
  -4  -1  13-169.306 245.510   5
   1   4 -13 455.449 363.484  15
  -4  -1  13 21.4830 30.1873   2
  -1  -4  14 570.273 146.786   8
  -1   4 -14 856.217 462.885  10
  -1  -4  14 263.323 247.195   6
   1  -4  14 456.390 292.227   6
  -1  -4  14 561.695 354.979  16
   4   1 -14 215.519 170.643   1
  -4  -1  14 510.482 293.862   2
  -1   4 -14 449.336 387.927   7
   4   1 -14 271.667 125.729  14
   1  -4  14 1156.27 351.562  17
  -1   4 -14 469.216 126.955  19
   1   4 -14 736.279 314.571  11
  -1   4 -14 808.119 301.651  11
   1   4 -14 945.057 469.725  10
   1  -4  14-15.3907 81.1838  14
  -1   4 -14 736.374 257.892  18
  -1  -4  14 717.386 323.645  17
   4   1 -14 120.168 158.513  18
  -4  -1  14 454.716 298.193  16
   4   1 -14 187.655 215.367  11
  -4  -1  14 688.654 333.377  17
  -4  -1  14 123.756 185.508   5
   1   4 -14 544.968 293.297  18
   4  -1  14 510.898 267.234   8
   4  -1  14 559.032 209.499   2
  -1   4 -14 706.884 443.611  20
   1   4 -14 37.4950 89.9223   1
   1   4 -14-191.006 500.613   7
   1   4 -14 704.057 394.587  20
  -1   4 -14 426.227 337.173  15
   1   4 -14 6.00314 388.772  15
   4   1 -14 107.227 89.7886   9
   1  -4  14 702.279 320.612  16
   1  -4  14 756.107 313.251   2
  -1  -4  14 777.998 351.269   2
   4  -1  14 386.839 310.950  16
   1  -4  14 554.497 159.481   8
   4  -1  14 192.196 65.6957   6
  -1  -4  15-116.417 170.026   6
   4  -1  15 46.4714 30.0667   2
   1   4 -15 15.9736 7.31254   1
   1  -4  15 331.408 183.190   8
   1  -4  15-24.0190 91.0560   6
   1  -4  15 144.080 189.153   2
  -1   4 -15-2.48973 205.534  10
  -1   4 -15 39.7562 36.0850  11
  -4  -1  15-95.7857 149.232  17
   1  -4  15 87.5135 141.276  16
  -1   4 -15-391.705 440.262   7
  -1   4 -15 73.2345 19.6287  18
   4  -1  15-469.035 314.519   6
  -1   4 -15 893.818 528.317   9
  -1  -4  15 141.128 289.178   2
   1   4 -15 118.667 141.969  18
  -1  -4  15 134.720 90.5436  17
   4   1 -15 19.3071 70.2986  18
   1   4 -15-104.329 227.999  20
   4  -1  15 15.1704 58.5899  16
   4   1 -15-593.037 379.424   9
  -1   4 -15-2.07082 116.936  20
  -1   4 -15-138.372 358.557  15
   4   1 -15 35.8395 66.0331   1
   1  -4  15 146.440 169.391  17
   4   1 -15-126.197 212.469  11
  -1  -4  15 34.6947 83.9918  16
   4  -1  15-13.4455 73.6800   8
  -1   4 -15 81.0627 57.8087  19
   1   4 -15 274.607 255.046  11
   1   4 -15 1351.22 646.928   9
   4   1 -15 38.2616 32.0456  14
   1   4 -15 176.918 217.635  10
  -4  -1  15 72.2245 153.002  16
  -1  -4  15 109.131 62.7775   8
  -4  -1  15 126.977 207.036   2
  -1   4 -16 882.536 476.080   9
   1  -4  16 479.899 303.601   6
   4  -1  16 390.411 312.358  16
  -1   4 -16 385.133 193.699  18
   1  -4  16 974.157 298.736   8
   1  -4  16 940.081 385.743   2
  -1   4 -16-191.882 517.429  15
   4   1 -16-63.5132 218.122  18
   1   4 -16 597.113 315.526  11
  -1   4 -16 268.518 139.750  11
  -1   4 -16 265.735 448.908  20
   4   1 -16-86.0379 265.633  11
  -1  -4  16 575.408 165.917   8
   4   1 -16 151.079 102.445  14
  -1  -4  16 809.154 398.885  16
  -4  -1  16 542.632 356.817   2
   1   4 -16 231.994 250.085  18
  -1   4 -16 427.051 332.182  10
  -1  -4  16 833.492 382.591   2
   1   4 -16 583.400 392.141  10
   4  -1  16-426.589 310.395   6
  -1   4 -16 331.134 112.884  19
   1  -4  16 871.777 475.508  16
  -1  -4  16 10.1259 27.4049   6
  -1  -4  16 694.140 331.878  17
  -4  -1  16 558.286 363.216  17
  -4  -1  16 344.403 266.053  16
   4  -1  16 329.625 255.444   8
   4   1 -16 45.5871 25.2071   1
   1   4 -16 1563.34 644.195   9
   1  -4  16 773.176 317.581  17
   1   4 -16 138.118 144.905   1
   4  -1  16 516.334 228.398   2
   1   4 -16 290.073 326.656  20
  -1   4 -17 444.296 409.047   9
   1  -4  17 147.143 176.586   6
   1  -4  17 494.805 337.123   2
  -1   4 -17 262.729 127.500  19
   4  -1  17 337.016 206.270   2
   1  -4  17 520.372 379.904  16
  -1   4 -17 326.657 355.938  10
  -1   4 -17 169.829 355.729  20
   1   4 -17 142.291 185.456  10
   1   4 -17 22.3661 17.8670  11
  -1   4 -17 242.447 212.139  11
  -4  -1  17 276.884 295.128  16
  -1  -4  17 449.756 324.155   2
  -4  -1  17 227.455 106.427  17
   4  -1  17 283.756 177.200   8
  -1  -4  17 411.617 139.176   8
   1   4 -17 147.111 166.197   9
   4   1 -17 37.7728 100.589   1
  -1  -4  17 299.224 212.456  17
   1   4 -17 159.674 144.355  18
   1   4 -17 116.418 201.884  20
   1  -4  17 582.409 314.459  17
  -1  -4  17-24.4996 61.6001   6
   4  -1  17 94.9711 250.119  16
  -4  -1  17 397.658 307.135   2
  -1  -4  17 616.476 358.798  16
   1  -4  17 561.181 258.973   8
   1   4 -17 106.052 103.840   1
  -1   4 -17 217.582 201.588  18
  -1   4 -18 651.538 416.534  10
   4  -1  18 748.215 367.100   2
  -1   4 -18 345.794 311.010  20
  -1  -4  18 801.757 441.376  17
  -1  -4  18 1074.51 551.745  16
   1  -4  18 1159.72 383.982   8
  -4  -1  18 607.373 448.238   2
  -1   4 -18 723.598 342.086  11
   1   4 -18 802.608 498.235  10
   1   4 -18 565.092 509.709  20
   4  -1  18 352.232 300.478  16
   1   4 -18 774.433 381.114  11
  -4  -1  18 863.250 479.819  16
   1   4 -18 846.468 453.879   9
  -1  -4  18 854.180 434.967   2
   4  -1  18 633.691 398.818   8
  -1   4 -18 719.827 507.301   9
   1  -4  18 1088.87 570.337  16
  -1  -4  18-415.248 292.364   6
   1  -4  18 1277.88 517.341   2
  -1  -4  18 1002.54 261.568   8
   1  -4  18 989.375 387.437  17
  -1   4 -18 221.862 205.889  18
  -4  -1  18-46.4275 295.272  17
   1   4 -18 370.290 331.328  18
   1  -4  18 412.747 275.249   6
   1   4 -18 123.630 152.676   1
   1   4 -19 210.018 440.826  20
   1   4 -19 967.956 438.666  11
   1  -4  19 624.164 375.658   6
   1   4 -19 541.637 375.462  18
  -1   4 -19 367.402 231.225  18
   1  -4  19 2626.91 581.620   8
   1   4 -19 653.294 373.350  10
   4  -1  19 932.640 246.254   8
   4  -1  19 1663.80 513.707   2
   1  -4  19 2383.18 707.228   2
  -1   4 -19 278.767 492.479  20
  -1   4 -19 1127.42 559.031  10
  -1   4 -19 896.580 401.198  11
  -1  -4  19-585.714 361.756   6
  -1  -4  19 2106.78 662.436  17
  -1  -4  19 2297.37 750.134  16
  -1  -4  19 1975.47 698.454   2
  -1   4 -19 958.501 435.091   9
  -4  -1  19 2093.09 743.994   2
   1  -4  19 2295.22 631.697  17
   1   4 -19 1109.27 511.485   9
   4  -1  19 1516.13 689.001  16
  -4  -1  19 1414.48 612.364  16
   1  -4  19 2477.21 807.112  16
   1  -4  20-51.4517 299.722   6
   1  -4  20 383.321 348.979   2
   1  -4  20 210.227 231.630  17
   1  -4  20 363.550 310.528   8
   1   4 -20 57.4465 85.7641  18
  -1   4 -20-20.0066 55.6788  10
  -1  -4  20 436.568 435.131   2
   1   4 -20 69.8830 205.331  20
   1   4 -20 190.761 30.5401   9
   1   4 -20 295.189 214.193  10
   4  -1  20-72.3469 227.556   8
  -1   4 -20-21.7173 285.258  20
   1   4 -20 448.066 352.953  11
   4  -1  20 63.2902 108.377   2
  -1  -4  20 206.965 185.627  17
   4  -1  20 182.443 319.073  16
  -1  -4  20 405.241 417.183  16
  -1   4 -20 204.007 285.754   9
   1  -4  20 385.179 431.278  16
  -4  -1  20 315.569 411.442  16
  -4  -1  20 211.257 287.408   2
  -1   4 -20 100.884 115.207  11
  -1   4 -20 0.47210 147.515  18
   4  -2   0 91.1751 37.4803   1
  -4   2   0 314.124 153.866  19
   4  -2   0 166.132 99.2614  14
   4  -2   0 22.0560 58.4051   6
   4   2   0 166.391 134.212   1
   4  -2   0 119.568 117.421   8
   4  -2   1 1204.07 335.874   8
   4  -2   1 1007.79 250.980   1
   4   2  -1 1043.25 335.661   1
  -4   2  -1 1641.70 332.709  19
   4   2  -1 1202.23 317.063  18
   4  -2  -1 848.943 242.520  14
  -4   2  -1 1043.22 247.741  12
   4   2   1 266.892 193.526   1
  -4   2   1 1297.52 298.797  19
   4  -2  -1 270.943 140.437   8
   4  -2   1 1514.35 322.776  14
   4   2  -1 616.667 216.078   8
   4  -2   1 1051.13 263.122   6
  -4   2  -2 250.663 131.845   3
   4   2  -2 312.528 169.475   1
  -4   2  -2 320.689 156.229   5
  -4  -2   2 70.0302 49.8729  19
   4  -2   2 400.421 155.687   1
   4  -2   2 536.659 198.613  14
  -4   2  -2 454.878 166.281  12
   4  -2   2 519.482 186.645   6
   4   2  -2 313.439 196.478   8
   4   2  -2 459.789 191.715  18
   4   2  -2 36.1170 77.9306  14
  -4   2  -2 505.541 195.704  19
  -4   2  -2 347.654 158.338   4
   4  -2   2 463.197 227.985   8
   4   2  -2 307.640 143.985  13
  -4  -2   2 196.036 178.835  17
   4   2  -3 1530.48 402.283   1
   4   2  -3 2005.18 361.887  13
  -4   2  -3 1867.72 367.462   5
   4  -2   3 1751.23 312.382   1
  -4  -2   3 882.637 315.405   5
  -4  -2   3 1226.43 343.530   2
   4   2  -3 2073.76 440.488  18
  -4  -2   3 815.370 255.826  19
  -4   2  -3 1618.57 366.829   4
   4  -2   3 1893.79 362.204  14
   4   2  -3 1674.18 356.733   8
   4  -2   3 2017.26 443.111   8
  -4   2  -3 1789.74 342.466  12
   4  -2   3 2246.55 409.282   6
  -4  -2   3 1110.22 364.843  17
  -4   2  -3 1497.79 334.071   3
   4   2  -3 225.083 148.336  14
  -4   2  -3 1865.48 362.597  19
  -4  -2   4 1473.28 373.886   2
   2  -4   4 298.768 124.770   6
  -4  -2   4 857.340 324.339   5
   4  -2   4 1917.64 395.618   6
  -2   4  -4 1084.46 277.267  12
  -4   2  -4 1473.73 342.796  19
  -4   2  -4 1560.88 339.331   5
  -4  -2   4 441.293 181.114   4
   4   2  -4 1795.84 339.693   8
  -4  -2   4 1005.65 253.364  19
  -4  -2   4 1144.40 408.723  17
   4   2  -4 1506.70 370.983  18
  -4  -2   4 593.762 156.822  16
   4   2  -4 1644.78 344.992  13
  -4   2  -4 1500.23 365.727   4
   4  -2   4 1469.56 268.585   1
  -4   2  -4 1303.43 319.701   3
   4  -2   4 1598.55 417.911   8
   4  -2   4 1625.07 335.887  14
   4   2  -4 1369.60 378.744   1
   4   2  -4 244.471 156.179  14
  -2   4  -4 1127.46 342.466   3
   2   4  -4 857.653 325.881  13
   4  -2   4 1109.29 298.793  16
   4   2  -4 566.153 129.003   3
  -4   2  -4 1494.87 327.926  12
   4  -2   5 28.3497 52.0829  14
  -2   4  -5 15.7306 14.2225   3
  -2   4  -5-31.5389 148.572  13
  -4  -2   5 9.42313 46.4972   5
   2   4  -5 18.0654 49.4183  13
   4  -2   5 24.6932 60.7444  16
   4   2  -5 15.4135 19.1106   3
   4  -2   5 39.0829 52.6062   1
   4   2  -5 4.65719 50.7393  14
  -4  -2   5 27.0559 46.0431  16
   4   2  -5-53.9155 80.3651   1
   4   2  -5 4.12154 51.6852   8
   2  -4   5 30.1887 50.0510   6
  -4   2  -5-1.67398 22.9659   3
   4   2  -5 7.11956 61.3019  18
  -4  -2   5 62.6737 104.052  17
  -4  -2   5 52.3120 89.0604   4
  -4   2  -5-8.17161 25.8018   5
  -4  -2   5 44.8348 84.6432  19
  -4  -2   5 0.42907 61.1558   2
  -4   2  -5 13.3558 24.6689  13
  -4   2  -5 13.6303 98.2489  12
   4  -2   5-0.79310 56.7692   6
   4  -2   5-56.9511 96.6964   8
  -2   4  -5 21.7978 45.9035  12
  -4   2  -5 57.9688 90.1481   4
  -4   2  -5-28.6716 19.1000  19
  -4   2  -6 3518.92 553.903   5
  -2   4  -6 3044.36 477.645  12
  -4   2  -6 1767.61 346.076  13
   4   2  -6 4118.15 410.053   3
  -4  -2   6 3145.67 614.733   5
  -4   2  -6 3318.06 588.791   4
   4  -2   6 4118.11 463.009   1
   4   2  -6 3480.65 584.441   1
   2   4  -6 2785.48 575.332  18
   2  -4   6 2511.65 481.537   6
   4   2  -6 4922.53 815.292  11
  -4  -2   6 3886.44 644.964   2
  -4  -2   6 3441.86 470.318  16
  -4  -2   6 2374.06 421.837   4
  -4  -2   6 3397.56 432.100  19
   4  -2   6 4290.39 692.971   8
   2  -4   6 573.468 184.374   8
  -4   2  -6 3030.95 523.900  12
   2   4  -6 3411.18 529.729   3
   4  -2   6 3951.73 623.011  16
  -4  -2   6 3070.54 657.625  17
   4   2  -6 3867.40 632.709  18
   4   2  -6 3605.41 587.752  20
   4   2  -6 3433.13 393.427   8
  -4   2  -6 3354.40 520.503  19
  -4   2  -6 2724.14 506.660   3
  -2   4  -6 3821.42 638.523   3
  -2  -4   6 1057.09 242.486   6
   4  -2   6 4749.33 673.699   6
   4  -2   6 4449.51 584.473  14
  -2   4  -6 1347.33 409.107  13
   2   4  -6 3974.45 695.524  13
   4  -2   7 472.243 232.651   6
   4   2  -7 645.384 313.571  10
   2   4  -7 530.363 204.139   3
  -4   2  -7 247.115 148.119   5
   4   2  -7 397.112 202.566  20
  -4  -2   7 474.581 233.321   2
  -2   4  -7 465.033 233.998   3
   4   2  -7 133.882 106.874  14
   2  -4   7 382.819 214.171   6
   4  -2   7 315.190 142.427   1
  -2  -4   7 37.2380 127.068  16
   2   4  -7 335.057 176.431  18
  -2   4  -7 482.099 200.563  12
  -4  -2   7 559.878 274.330   5
   4   2  -7 416.653 221.446  18
   2  -4   7 115.426 36.1159  16
  -4   2  -7 180.729 65.1291  11
   4   2  -7 497.995 278.653  11
   4  -2   7 420.855 232.052  16
   4  -2   7 455.777 216.024   8
  -4   2  -7 280.032 165.604   4
   4  -2   7 650.930 232.503  14
  -2  -4   7 305.126 272.526  17
   2  -4   7 184.109 73.8113  14
  -4  -2   7 439.114 191.631  16
   4   2  -7 399.483 195.465   1
  -4   2  -7 525.435 314.670  20
  -4  -2   7 317.556 154.674   4
   2   4  -7 166.080 71.4998  12
  -2  -4   7 304.673 142.045   6
  -4  -2   7 348.950 116.680  19
   2   4  -7 457.162 232.185  13
  -4   2  -7 250.605 159.640  19
  -4  -2   7 314.106 228.233  17
   4   2  -7 162.243 78.3134   8
   2  -4   7 152.135 110.128   8
  -2   4  -7 197.573 152.194  13
  -2   4  -8 2251.86 372.040   4
   4  -2   8 2863.33 516.465  14
   4   2  -8 2944.61 659.085  11
  -4   2  -8 2450.13 573.580  20
   4  -2   8 2494.29 354.456   2
  -4   2  -8 2238.38 441.202  10
   2   4  -8 2359.06 523.792  18
  -2   4  -8 2626.86 470.750  12
   2   4  -8 2130.76 315.143  12
   2  -4   8 1867.10 514.148  16
   4   2  -8 1513.87 440.180  20
  -4   2  -8 1229.20 410.628   4
  -4  -2   8 2403.93 523.349   5
   4   2  -8 2019.09 476.890  10
  -2  -4   8 1665.45 442.753  16
   4  -2   8 2892.13 580.060   6
   2  -4   8 1447.06 345.001   8
   2   4  -8 2822.28 606.718  13
  -4  -2   8 2381.75 532.996   2
   2   4  -8 2836.15 513.657   3
  -2  -4   8 1236.28 418.573   2
  -2   4  -8 1478.81 428.975  13
  -4  -2   8 1895.80 295.819  19
  -4   2  -8 396.494 109.801  11
  -4  -2   8 2384.97 389.340   4
   2  -4   8 2339.17 494.017   6
  -4  -2   8 2378.49 601.326  17
  -2   4  -8 2485.14 522.436   3
   4  -2   8 3343.26 664.630   8
   4   2  -8 2566.99 548.701  18
  -4   2  -8 2679.73 756.067  15
   4  -2   8 2918.52 593.058  16
  -4   2  -8 1760.66 408.007  19
   4   2  -8 1958.99 450.015   1
   4  -2   8 139.885 106.641   1
  -2  -4   8 1801.55 345.141   6
   2  -4   8 1826.80 310.033  14
  -2   4  -8 1153.00 236.480  19
  -4  -2   8 2391.53 463.646  16
  -2  -4   8 1392.90 484.881  17
  -2   4  -8 1811.06 356.615  18
   4   2  -9 587.742 371.177   9
   4  -2   9 323.320 188.382  14
  -4  -2   9 289.563 134.596   4
   2  -4   9 327.197 123.278  14
   2   4  -9 376.429 253.057  13
  -2   4  -9 331.668 155.047   4
  -2  -4   9 158.339 95.6782   6
   2  -4   9 396.555 224.687   6
  -4   2  -9 269.510 125.528  10
  -4  -2   9 247.091 129.550  17
   4   2  -9 165.460 201.398  10
  -2  -4   9 187.927 167.793  17
  -4  -2   9 366.102 224.945   5
  -4  -2   9 321.887 206.108  16
   2   4  -9 267.993 156.094   3
   4  -2   9 437.349 274.739   8
   4   2  -9 388.545 251.396  11
   2   4  -9 371.030 212.051  18
  -4  -2   9 321.230 206.194   2
   4   2  -9 94.5413 72.0529  14
  -4   2  -9 137.311 143.412  19
  -4   2  -9 23.3998 164.855   4
   4   2  -9 273.448 168.165   1
   2   4  -9 60.0124 106.891   1
   2  -4   9 294.975 139.027  17
  -2   4  -9 238.222 162.219   3
   2  -4   9 265.400 121.696   8
   4   2  -9 132.908 107.644  20
  -4   2  -9 28.6274 85.4550  20
   2   4  -9 281.823 128.446  12
   4  -2   9 264.640 187.700   6
   4   2  -9 306.511 200.074  18
  -2   4  -9 316.928 222.853  13
  -2  -4   9 268.213 183.287  16
   4  -2   9 356.486 220.384  16
  -2   4  -9 332.668 162.564  18
  -4   2  -9 416.557 333.720  15
  -4   2  -9 283.845 165.353   9
  -4   2  -9 414.859 345.687   7
   4  -2   9 357.100 133.776   2
  -2   4  -9 220.236 130.289  12
  -2  -4   9 157.314 181.203   2
   2  -4   9 168.339 112.614  16
  -4  -2   9 92.0719 29.8377  19
  -2   4  -9 200.311 87.7245  19
  -4   2 -10 402.662 235.016  10
  -2   4 -10 323.378 197.811  13
  -4   2 -10 672.580 421.194  15
  -4   2 -10 323.076 177.272  19
   4  -2  10 613.033 297.958   6
   4   2 -10 687.671 312.475  11
   2  -4  10 748.443 279.775   6
  -2  -4  10 401.915 199.865   6
  -4  -2  10 529.820 286.856   2
   4  -2  10 625.473 197.667   2
   2   4 -10 659.457 269.262   3
  -2   4 -10 513.971 205.298  12
   2   4 -10 498.202 156.529  12
  -4  -2  10 532.599 259.014  16
  -2   4 -10 702.121 196.112  18
  -4   2 -10 436.031 265.910   7
   2  -4  10 528.886 198.991   8
   4   2 -10 531.620 274.786  18
   4   2 -10 206.257 109.224  14
  -4  -2  10 563.967 175.990   4
  -4   2 -10 475.527 251.905  20
  -4   2 -10 377.873 175.401   9
  -2  -4  10 420.866 245.040   2
  -2  -4  10 441.351 234.739  17
  -4  -2  10 664.262 279.218   5
  -2   4 -10 702.007 218.478   4
  -2  -4  10 573.855 296.737  16
   2  -4  10 923.079 284.961  17
   2   4 -10 662.142 328.992  13
   4  -2  10 749.997 350.346  16
   4   2 -10 480.568 206.178   1
  -2   4 -10 620.733 282.235   3
   2   4 -10 61.3139 74.3891   1
   2  -4  10 695.972 188.525  14
  -4  -2  10 644.341 313.081  17
   2  -4  10 748.014 359.622  16
   4   2 -10 131.873 110.522  20
   4   2 -10 424.382 204.645   9
   4  -2  10 582.498 263.975  14
   4  -2  10 683.997 307.136   8
   4   2 -10 364.471 215.002  10
  -2   4 -10 426.056 130.938  19
   2   4 -10 627.816 267.100  18
  -4   2 -11 885.928 355.499  20
  -4   2 -11 438.395 193.996   9
   4  -2  11 1168.16 428.294   6
   4   2 -11 391.583 250.351  10
  -2  -4  11 774.821 290.782   6
  -4  -2  11 1300.62 461.964  17
  -2   4 -11 1051.32 393.733   3
   2   4 -11 1799.61 611.436  15
  -2  -4  11 1762.86 525.330  17
  -2   4 -11 1257.09 338.256  12
  -2   4 -11 2027.45 461.065  11
  -4  -2  11 1222.58 365.492   5
   4  -2  11 1541.53 336.122   2
   4   2 -11 1155.69 450.123  11
  -2  -4  11 1336.91 449.671  16
   4   2 -11 224.049 115.083  20
  -4   2 -11 413.189 298.398  15
   4   2 -11 779.240 308.950   9
  -2  -4  11 1452.02 502.947   2
   2   4 -11 1556.43 543.172   7
   2  -4  11 1935.90 521.258   6
  -4  -2  11 1303.65 264.734   4
   2  -4  11 1436.04 362.540   8
   2  -4  11 1808.79 369.403  17
   2   4 -11 600.673 239.437   1
   2   4 -11 1645.88 426.610   3
   4   2 -11 985.393 333.262   1
   2  -4  11 1811.78 319.012  14
   4  -2  11 1737.02 495.968   8
   2   4 -11 2073.03 639.483  11
  -4   2 -11 359.010 146.014  19
  -4  -2  11 1200.77 413.474   2
   4   2 -11 928.907 378.967  18
  -2   4 -11 1421.71 288.390  18
   2   4 -11 1687.87 526.061  13
   2   4 -11 1550.89 305.841  12
   4  -2  11 1483.83 486.286  16
   2   4 -11 1506.77 431.725  18
   4   2 -11 423.303 152.928  14
  -4  -2  11 1083.25 373.310  16
  -4   2 -11 496.029 228.232  10
  -2   4 -11 997.897 277.839   4
  -4   2 -11 405.529 244.554   7
   4  -2  11 1036.82 351.658  14
  -2   4 -11 891.482 338.773  13
   2  -4  11 1706.45 548.763  16
   2  -4  11 1262.33 437.144   2
   4   2 -12-35.9244 41.8861  14
  -4   2 -12-84.7530 140.446  10
  -4  -2  12 44.6072 173.203  17
   4   2 -12 31.3626 131.867  11
   4   2 -12 73.9554 89.6619   1
  -4   2 -12-79.6819 39.0834   9
   2   4 -12 25.5004 238.528   3
   2  -4  12-39.1095 592.260   2
  -4   2 -12-59.9333 81.1499  19
   2   4 -12 465.484 502.183  20
   2   4 -12-172.129 180.219  15
   4   2 -12-268.803 372.548  20
  -4   2 -12-159.014 103.350  20
   4   2 -12-141.332 168.719  10
   4   2 -12-261.489 204.539   9
  -2  -4  12 46.2777 227.995   2
   4  -2  12-61.9461 74.1853  14
   4  -2  12-111.846 82.7056   6
   4  -2  12 68.6775 248.158   8
   2   4 -12 66.5758 146.055  18
  -2  -4  12 153.732 126.951   6
   4  -2  12-117.359 105.127   2
  -2   4 -12 74.3080 300.111  18
  -2   4 -12 256.997 375.177   4
   2  -4  12 33.3202 527.423  16
  -2  -4  12-29.2350 351.142  17
  -4  -2  12-42.6155 76.1473   4
   2   4 -12 242.565 377.562  11
   4  -2  12-115.708 138.321  16
   2   4 -12 60.9397 256.621  12
  -2  -4  12 78.4331 255.587  16
  -4  -2  12-0.62053 97.5904   2
   2  -4  12-134.316 219.963  14
   4   2 -12 37.3977 69.8758  18
  -4  -2  12-34.7696 100.312  16
   2   4 -12-158.103 66.2514   7
  -4  -2  12 32.6954 65.5784   5
   2   4 -12-63.8255 184.187   1
   2  -4  12 17.7111 514.862   6
  -4   2 -12-544.510 597.992  15
   4  -2  13 759.971 376.030   6
   2   4 -13 490.818 493.204  20
  -4   2 -13 105.619 217.197  20
   4   2 -13 193.130 195.686   9
   4  -2  13 816.877 419.903  16
  -4   2 -13 155.673 193.056  19
   2   4 -13 842.267 288.540  12
  -2  -4  13 160.379 245.943   6
   2   4 -13 654.730 330.119   3
   2   4 -13 1013.30 470.848  11
   4  -2  13 65.0351 175.190  14
  -2  -4  13 741.717 390.862  16
   4   2 -13 420.416 222.697   1
  -4   2 -13 41.4734 78.5805  10
   4   2 -13 208.200 188.908  11
   4   2 -13 57.6971 133.808  10
  -2  -4  13 801.983 547.957  17
  -4  -2  13 622.704 325.864   2
  -4  -2  13 365.491 228.305  16
  -4   2 -13 88.8701 105.539   9
  -2   4 -13 2487.58 1019.30  15
   4   2 -13 341.156 187.467  18
   4  -2  13 967.072 260.688   2
   4   2 -13 148.462 84.6103  14
   2   4 -13 478.430 332.327  18
   2   4 -13-61.1663 261.284  15
  -4  -2  13 745.083 335.426  17
   2   4 -13 192.056 174.912   1
   2   4 -13-41.1636 302.914   7
  -4  -2  13 646.760 256.951   5
  -2  -4  13 803.629 475.509   2
   4  -2  13 1098.17 542.538   8
  -2   4 -14-2.88369 65.2450  18
  -2  -4  14 81.1270 123.220   6
   2  -4  14 97.2187 106.683  14
   4   2 -14-47.5244 55.2887  14
   2   4 -14-144.399 222.016  20
   2  -4  14 144.981 166.205   6
   2   4 -14 116.778 188.384  12
   4   2 -14-4.41372 196.899  10
  -4  -2  14 45.4407 26.1707   2
  -2   4 -14 128.644 192.987  20
  -4   2 -14 65.0480 44.6453  10
   2   4 -14 41.8629 95.3652   1
  -2   4 -14 249.904 323.283  10
  -2  -4  14-20.9706 90.8041   2
   4   2 -14-189.873 229.288   9
  -2  -4  14-1.10049 34.5948  17
   4   2 -14 36.7990 105.715  11
   2  -4  14-53.6197 60.0642  17
  -4   2 -14-6.30765 34.9203  19
   4  -2  14-13.0953 109.756   8
   2   4 -14 241.430 309.671  10
  -2   4 -14-42.8804 62.0461  19
   4   2 -14 15.5200 139.023  18
   2  -4  14-27.7115 135.127  16
   2  -4  14 173.747 161.783   2
  -2   4 -14 210.608 359.822   7
  -4   2 -14 8.88121 77.6282   9
   2   4 -14-49.9829 24.7720  18
   4  -2  14-72.6789 189.048   6
  -2   4 -14 83.1845 156.843  11
   2   4 -14 232.926 227.651  11
  -4  -2  14 2.32678 118.184   5
   2  -4  14-32.2115 42.8034   8
  -2  -4  14-18.6608 43.0151  16
   4  -2  14 32.4253 58.2590   2
   4  -2  14 13.0862 34.6689  16
  -4  -2  14 27.6925 96.6453  16
  -2   4 -14-192.240 123.565  15
   4   2 -14 21.8378 71.5065   1
  -4  -2  14 41.5363 29.2736  17
  -4   2 -14-78.8743 242.077  20
   2   4 -15 256.185 170.026   1
   2  -4  15 1166.38 359.636  17
   2  -4  15 1325.06 433.987   2
   2  -4  15 758.755 344.017   6
   4   2 -15 269.738 165.483   9
  -2   4 -15 734.652 390.647  10
   4  -2  15 846.196 464.434  16
  -4  -2  15 871.088 422.278  16
   4   2 -15 24.7780 182.017  10
  -2  -4  15 1075.97 444.936  16
  -4   2 -15 113.185 137.909  10
   2   4 -15 1216.21 462.426  11
  -2   4 -15 822.683 302.889  11
   2  -4  15 1390.26 393.858   8
  -4   2 -15 104.629 127.146   9
  -2   4 -15 505.400 503.097  20
   4  -2  15 862.347 416.454   6
  -2   4 -15 587.757 222.188  18
  -2   4 -15 684.063 192.320  19
   4   2 -15 456.177 286.512  11
   2  -4  15 1009.27 452.246  16
   4   2 -15 99.1343 82.6017  14
   4  -2  15 1338.70 484.618   8
   4   2 -15 396.810 292.304  18
  -2   4 -15 470.747 333.248   7
  -4  -2  15 1012.52 479.696  17
  -2  -4  15 33.0798 82.5846   6
  -4  -2  15 1193.43 400.887   5
  -4  -2  15 1058.52 450.593   2
  -4   2 -15 36.6806 146.953  20
   2   4 -15 498.855 375.462  18
   4  -2  15 1295.22 366.578   2
  -2  -4  15 1254.37 456.463  17
   2   4 -15 1091.73 530.994  20
  -2   4 -15 1848.42 657.681   9
   4   2 -15 379.022 207.050   1
  -2   4 -15 666.497 431.993  15
  -4   2 -15-55.8016 141.837  19
   2   4 -15 1853.62 707.503   9
   2   4 -15 794.102 349.587  10
  -2  -4  15 1268.72 492.311   2
   2  -4  16 30.0538 86.6630   6
   4   2 -16 112.970 91.7548  11
   2   4 -16 183.221 170.867   1
   2   4 -16-143.896 148.494  20
  -4   2 -16-155.639 269.635  10
  -2   4 -16 0.19195 84.7234  18
   2   4 -16 331.553 361.992   9
  -4  -2  16 35.3594 144.320   2
   2  -4  16 19.2459 77.3127  17
  -2   4 -16 26.9056 46.0048  19
   2  -4  16-18.0554 105.059   8
   4  -2  16 16.1263 60.1285  16
   2   4 -16 123.095 242.424  10
   4   2 -16 21.3361 54.3664  14
   4  -2  16 14.8768 53.8819   6
  -4  -2  16 89.3669 158.859  17
   2   4 -16 77.3834 137.590  11
  -4   2 -16-295.915 476.962  20
   4   2 -16-57.2542 39.7650   9
  -2   4 -16-215.392 462.065  15
  -2   4 -16 144.289 230.504  10
  -4  -2  16 102.760 134.748   5
  -2   4 -16 326.096 324.899   9
   2  -4  16 189.006 203.098   2
  -2   4 -16-103.845 185.720  11
   4   2 -16-44.2116 76.3240  18
   2  -4  16 155.353 206.002  16
   4  -2  16 70.1133 223.526   8
  -2  -4  16 34.0881 202.306   2
  -2  -4  16 8.84873 97.0782  17
  -2   4 -16-673.370 583.296   7
  -4   2 -16-67.2034 113.947  19
  -4   2 -16 21.0302 28.8003   9
  -2   4 -16 125.849 302.123  20
  -2  -4  16 65.1334 162.534  16
   4  -2  16-21.0635 115.853   2
  -4  -2  16 131.293 244.498  16
   2   4 -16-11.4968 106.599  18
   4   2 -16-157.260 366.925  10
   4   2 -16 27.1636 26.9990   1
  -2  -4  16 71.0051 83.4273   6
   2  -4  17 811.726 453.112   6
   4   2 -17 107.948 70.8206  14
  -2   4 -17 782.621 504.844  20
   2  -4  17 2086.38 486.364   8
   2   4 -17 591.742 419.227  20
   2   4 -17 430.628 220.827   1
   2  -4  17 1637.22 455.658  17
  -4  -2  17 1431.08 540.666   2
   4   2 -17-321.544 535.763  10
  -4   2 -17-248.745 396.480  10
   4   2 -17 195.079 231.921  18
   2   4 -17 1300.89 513.993  11
  -4  -2  17 1580.20 627.409  17
   4   2 -17-131.879 271.450   9
  -2  -4  17 501.983 141.274   5
   4  -2  17 1578.27 609.802   8
  -2   4 -17 801.222 223.243  19
  -4   2 -17-285.309 324.957   9
  -4   2 -17 106.870 145.481  19
  -2   4 -17 706.313 433.523  10
   2   4 -17 1292.89 515.770   9
  -4  -2  17 1359.66 553.582  16
  -4  -2  17 1392.23 420.005   5
   4  -2  17 935.980 452.448   6
  -2   4 -17 591.549 319.271   9
  -2  -4  17 1487.75 551.798  17
   4   2 -17 289.109 295.821  11
   2  -4  17 1617.45 570.703   2
   2   4 -17 550.604 370.081  18
  -2  -4  17-448.438 286.858   6
  -2   4 -17 829.864 352.870  11
   2  -4  17 1232.74 576.873  16
  -2  -4  17 1570.54 606.107  16
   4  -2  17 1752.81 670.068  16
   4  -2  17 1635.39 478.837   2
   4   2 -17 434.066 269.356   1
  -2  -4  17 1488.04 538.842   2
   2   4 -17 866.208 512.379  10
  -2   4 -17 309.526 182.002  18
   2   4 -18 808.413 498.689  18
   2  -4  18 1785.69 534.379  17
  -4  -2  18 2204.06 696.881   2
  -4   2 -18-201.612 385.485   9
   2  -4  18 2186.48 780.536  16
   2   4 -18 581.961 259.952   1
  -4   2 -18 154.028 207.904  19
  -2   4 -18 1210.41 524.096   9
  -2   4 -18 663.202 318.063  11
   2  -4  18 2935.52 629.854   8
   2   4 -18 1266.26 558.380  10
  -4  -2  18 2035.91 527.714   5
  -2  -4  18 956.440 285.661   5
  -2   4 -18 395.230 203.050  18
   2  -4  18 2556.61 702.452   2
   2   4 -18 1377.71 569.193  11
  -2   4 -18 821.247 409.464  10
  -2  -4  18 2275.85 730.242   2
   4   2 -18 35.7316 209.526   9
   4   2 -18 390.301 262.513   1
   4  -2  18 2420.03 587.469   2
  -4  -2  18 1744.95 736.604  17
   4  -2  18 755.841 434.563   6
   4  -2  18 2166.56 754.623   8
   2  -4  18 1289.43 559.791   6
  -2  -4  18 1656.29 576.821  17
   4   2 -18 518.741 336.055  11
   4  -2  18 1938.01 680.907  16
   4   2 -18 293.030 303.876  18
  -4  -2  18 1523.27 567.695  16
   2   4 -18 263.009 377.906  20
  -2   4 -18 497.386 408.664  20
  -2   4 -18 1039.85 276.673  19
  -2  -4  18 2131.42 689.974  16
   2   4 -18 1372.55 642.098   9
   2  -4  19 114.659 122.249   6
   4   2 -19-38.9732 239.548   9
   4   2 -19 94.1951 165.341  11
   2  -4  19 1200.77 456.875   8
   2   4 -19 147.534 246.036  20
  -2   4 -19 8.45116 206.500  18
   2  -4  19 778.457 536.881  16
  -2  -4  19 1053.16 586.093  16
   2  -4  19 1005.64 497.391   2
  -4   2 -19-105.416 185.803  19
   2   4 -19 379.771 329.193  18
   2   4 -19 699.721 419.439  11
   4   2 -19-6.42636 224.831  18
  -2   4 -19 350.159 377.928   9
   4   2 -19 54.6468 138.315   1
  -4  -2  19 912.578 371.538   5
   2   4 -19 1065.67 582.540   9
  -2  -4  19 937.853 590.727   2
  -2   4 -19 451.561 368.046  10
  -2  -4  19 1180.28 629.430  17
  -4  -2  19 690.233 481.925  17
   2  -4  19 575.620 271.282  17
  -4  -2  19 562.637 331.913  16
   4  -2  19 4.83574 466.517   6
  -4  -2  19 836.103 465.156   2
   4  -2  19 962.617 540.872  16
  -2   4 -19 114.096 430.179  20
  -2   4 -19 209.144 253.653  11
   4  -2  19 891.098 388.862   2
   4  -2  19 734.416 481.897   8
   2   4 -19 191.825 230.329   1
   2   4 -19 514.226 349.557  10
  -4  -2  20 2192.25 784.639  17
   4   2 -20 256.340 179.230   1
   2   4 -20 571.221 424.511  18
  -2  -4  20 2659.96 787.488   2
   4   2 -20-1.25272 299.420  18
   2   4 -20 1160.10 516.973  11
   2   4 -20 333.293 137.388  10
   2   4 -20 416.452 366.451   9
  -2   4 -20 264.840 121.064  10
   2  -4  20 1068.74 490.501   6
   4   2 -20 171.580 159.482  11
  -2   4 -20 598.471 322.976   9
   2   4 -20-17.1704 261.775  20
   4  -2  20 2241.86 821.238  16
  -4   2 -20-93.6898 190.904  19
  -2   4 -20 243.900 156.855  11
   2  -4  20 2593.93 788.550   2
  -2  -4  20 2541.30 765.783  17
  -4  -2  20 2421.51 597.214   5
   2  -4  20 3046.84 651.518   8
   4   2 -20-754.967 494.107   9
  -4  -2  20 2286.82 756.146   2
   4  -2  20 3003.65 872.785   8
   4  -2  20 2589.02 663.411   2
   2  -4  20 1454.61 407.840  17
   2  -4  20 2644.66 826.340  16
  -2  -4  20 2067.30 800.452  16
  -2   4 -20 576.593 428.020  20
  -4  -2  20 2375.31 745.877  16
  -4   3  -1-10.1872 78.1056  19
   4  -3   2 682.397 277.140   8
  -4   3  -2 1301.55 304.742  19
  -4   3  -2 941.902 255.781  12
   4   3  -2 373.909 234.666   1
   4  -3   2 607.599 219.844   6
   4  -3   2 781.731 239.649  14
  -4   3  -3 127.778 109.447   3
   4  -3   3 169.524 127.836  14
   4   3  -3 174.994 129.513  13
   4   3  -3 145.971 42.6190  18
  -4   3  -3 230.370 152.491  19
   4   3  -3 123.776 138.467   1
  -4   3  -3 185.619 124.180  12
   4  -3   3 81.4116 56.5581   8
   4  -3   3 119.386 87.2791   6
   4  -3   4 819.387 247.711  14
  -3   4  -4 521.109 242.631   3
  -4   3  -4 693.203 219.406   4
   4   3  -4 980.856 301.956  13
   3   4  -4 528.978 274.048  13
  -4   3  -4 822.716 251.663  12
   3  -4   4 295.944 163.160   6
   4  -3   4 487.451 150.639   1
   4   3  -4 938.795 348.020  18
  -4   3  -4 685.250 253.000   3
   4   3  -4 569.827 261.277   1
  -4  -3   4 486.584 315.267  17
  -4   3  -4 823.078 244.307  19
   4  -3   4 714.586 276.411   8
  -3   4  -4 655.350 227.164  12
  -4   3  -4 542.199 166.141   5
   4  -3   4 887.284 281.015   6
   4  -3   5 3004.73 581.920   8
  -4  -3   5 2094.07 534.924   2
   4   3  -5 3970.59 622.436  13
   4  -3   5 2672.24 351.644   1
  -4  -3   5 904.812 243.149  19
   3  -4   5 829.404 285.414   8
   4   3  -5 2343.76 543.971   1
  -4   3  -5 3396.72 531.891  12
   3   4  -5 2263.48 536.607  18
  -3   4  -5 3204.02 510.583  12
  -4   3  -5 2732.19 434.955   5
   3  -4   5 1774.84 421.135   6
   4   3  -5 2524.63 421.110   8
   3   4  -5 3484.53 640.629  13
   4   3  -5 3591.95 658.003  18
   4  -3   5 1292.05 363.628  16
   4  -3   5 3814.25 594.459   6
  -4  -3   5 1575.63 492.847  17
  -4   3  -5 3023.92 518.475   4
  -4   3  -5 3222.63 494.385  19
   4  -3   5 3408.53 491.896  14
  -3   4  -5 2982.87 578.123   3
  -4   3  -5 3336.43 584.964   3
  -3   4  -6 98.1680 147.446  13
   3   4  -6 9.36728 52.8493   1
   4   3  -6 11.6292 6.62932   3
   3  -4   6-20.3448 33.1758   8
  -4  -3   6 37.0527 193.087  17
  -3   4  -6-21.8240 71.9264   3
  -3  -4   6-38.6270 28.2988  17
   3   4  -6 20.6801 31.4025  13
   3  -4   6-30.8329 43.3981   6
  -4   3  -6 58.1446 108.593  19
   4   3  -6 81.1908 109.995   1
  -4   3  -6 18.4505 86.6231  13
  -4  -3   6 81.0557 136.278   2
   4  -3   6 17.4548 88.4287   8
   3   4  -6 37.0048 6.49800  18
   3   4  -6 3.78553 39.0370   3
  -4  -3   6 13.9749 16.2072  19
  -4   3  -6 64.8405 152.599  12
  -4   3  -6 104.647 125.907   4
   4   3  -6 32.7228 75.1628  13
   4  -3   6 70.5210 118.006   6
   3  -4   6 20.2548 44.1890  14
  -3   4  -6 17.0905 26.8081  12
  -4   3  -6-39.8766 84.7580   3
  -4   3  -6 22.0347 47.5361   5
   4   3  -6 39.9601 91.1046  18
  -4  -3   6-64.2041 131.106  16
   4  -3   6 32.3538 63.4969   1
  -3  -4   6-18.6571 65.1451   6
  -3   4  -6-39.1220 102.391  19
   4  -3   6 9.30310 35.0071  14
   4   3  -6 4.18885 16.1180   8
   4  -3   6 20.8046 70.8968  16
  -4   3  -7 3446.33 564.173  12
   4  -3   7 4262.12 412.424   1
   3  -4   7 3088.16 449.201  14
  -3  -4   7 2178.56 331.608   6
  -3  -4   7 1793.14 581.240  17
  -3   4  -7 1905.61 466.152  13
   3   4  -7 4502.61 755.745  13
  -3   4  -7 3442.69 512.258   4
   4  -3   7 3606.04 678.375  16
   4   3  -7 4383.57 502.815   3
  -4   3  -7 3447.64 628.205   3
   4   3  -7 4179.42 721.000  18
   3  -4   7 3811.71 647.518   6
  -4   3  -7 4014.79 640.078   4
   3  -4   7 1774.56 454.686  16
  -4   3  -7 3777.03 560.698  19
   4   3  -7 3191.85 615.101   1
   3   4  -7 623.110 273.364   1
   3  -4   7 2558.40 525.597   8
   4   3  -7 4704.10 432.474   8
  -4  -3   7 3572.40 689.725   2
  -3   4  -7 3181.31 457.871  19
  -4   3  -7 4209.32 558.204   5
  -3   4  -7 3752.36 577.358  12
   3   4  -7 3870.57 711.106  18
  -4  -3   7 3112.85 712.550  17
   4  -3   7 4919.83 736.164   6
  -3   4  -7 4369.46 733.966   3
   4   3  -7 4580.53 699.232  13
  -4  -3   7 1740.13 451.808   5
   4  -3   7 4400.43 577.813  14
  -4  -3   7 2738.92 489.120  16
  -4  -3   7 3292.23 435.828  19
  -4   3  -7 1732.02 406.473  13
   4  -3   7 4154.23 695.840   8
   3   4  -7 4269.00 591.067   3
  -3  -4   8 724.893 333.173   2
   4   3  -8 1212.50 278.143   3
  -4  -3   8 1043.52 222.432  19
   3   4  -8 1103.02 300.178   3
   3   4  -8 1240.15 410.312  13
   4   3  -8 1318.20 389.541  13
  -4   3  -8 973.159 285.901  19
  -4   3  -8 811.114 322.213  12
  -4   3  -8 449.439 222.025  13
   4   3  -8 556.076 111.317  12
   4  -3   8 1069.93 211.386   1
  -3   4  -8 644.767 266.951  13
   4  -3   8 893.708 347.392  16
   3   4  -8 246.560 190.497   1
  -4   3  -8 932.819 276.943   5
  -4  -3   8 505.254 254.783   5
   3  -4   8 1078.65 356.239   6
  -4   3  -8 974.688 330.097   4
  -3  -4   8 523.755 221.991  16
  -4  -3   8 899.768 359.427  17
  -4   3  -8 772.099 288.597   3
  -4  -3   8 1101.92 398.482   2
  -3   4  -8 929.873 201.627   5
   4   3  -8 689.262 152.327   8
   4  -3   8 1228.54 399.586   8
  -3   4  -8 1059.79 292.185   4
   3   4  -8 1071.48 395.648  18
   3  -4   8 812.185 273.784   8
  -3  -4   8 711.674 191.100   6
   3  -4   8 726.743 323.073  16
  -3   4  -8 1160.69 318.162  12
  -3  -4   8 811.423 373.380  17
   4   3  -8 889.723 333.379   1
  -3   4  -8 949.492 239.322  19
  -4  -3   8 891.881 294.337  16
   4  -3   8 1319.30 320.996  14
  -3   4  -8 1016.97 347.957   3
   4  -3   8 1033.93 345.497   6
   4   3  -8 981.425 358.522  18
   3  -4   8 1009.00 258.196  14
  -3  -4   8 354.627 117.582  19
  -3   4  -8 790.068 205.020  18
  -4   3  -9 1361.82 447.757   3
  -4   3  -9 2278.75 343.832  11
  -3   4  -9 2018.01 311.716   5
   4  -3   9 689.108 176.617   1
  -4   3  -9 845.917 154.644  18
  -4  -3   9 1573.50 251.649  19
  -4   3  -9 1575.24 426.832  12
   3  -4   9 2162.37 378.787  14
   4  -3   9 1792.09 240.585  17
   3   4  -9 767.784 296.138   1
   3  -4   9 2550.06 398.864  17
  -4   3  -9 1387.83 346.631   5
  -4  -3   9 1423.50 437.449   5
   4   3  -9 2591.59 682.844  11
  -4  -3   9 2056.18 549.725   2
   4   3  -9 1951.05 567.429  20
   4   3  -9 2105.16 529.376  18
  -4   3  -9 1561.92 419.603   4
  -3  -4   9 1054.35 259.837   6
   3  -4   9 2485.11 535.748   6
  -3  -4   9 1626.65 546.125  17
   4  -3   9 2292.34 555.186   8
   3  -4   9 1695.15 494.275  16
  -3   4  -9 1939.98 310.144  18
   3  -4   9 1994.60 451.744   8
   4   3  -9 1451.08 419.374   1
  -3   4  -9 1906.42 426.301  12
  -4  -3   9 1770.28 549.134  17
   3   4  -9 2307.17 561.842  18
  -3   4  -9 2098.98 432.735   4
   4   3  -9 1921.01 230.822  12
  -3   4  -9 1807.59 488.358   3
  -4   3  -9 1224.75 350.148  13
   4  -3   9 2511.17 557.499   6
   4  -3   9 2188.42 566.856  16
  -4  -3   9 1927.13 454.479  16
  -3  -4   9 1430.52 221.025  19
  -3   4  -9 1303.59 388.886  13
  -4   3  -9 1716.01 381.288  19
   3   4  -9 2119.27 531.338  13
  -3  -4   9 1457.12 494.320   2
   3   4  -9 1704.64 265.383  12
  -3  -4   9 1368.95 407.233  16
   4  -3   9 2428.83 457.722  14
   4   3  -9 2166.38 401.995   3
  -3   4  -9 1853.16 337.316  19
   3   4  -9 2225.25 451.223   3
   4  -3  10 176.617 140.700  14
   4   3 -10-34.0581 195.859  20
   3  -4  10 176.889 128.447  14
   3   4 -10 133.643 83.2608  12
  -3  -4  10 85.3313 192.451  17
  -3  -4  10 80.5148 86.0996   6
   3   4 -10 58.8924 36.1176   1
   3  -4  10 170.270 103.266  17
  -3   4 -10 131.058 86.9762  18
   3  -4  10 239.454 227.577   6
  -4   3 -10 165.278 233.762  20
   4  -3  10 131.841 142.220   2
  -3   4 -10 169.871 177.516  13
   4  -3  10 102.237 34.2042  16
  -4  -3  10-61.6647 144.256   4
   3   4 -10 306.456 238.136  13
  -3  -4  10 104.276 133.409  16
  -4   3 -10 113.030 122.252   4
   4   3 -10 185.236 171.145  11
  -4   3 -10 114.189 24.5836  11
  -4  -3  10 71.4747 103.083   5
  -3  -4  10 162.027 225.905   2
   4   3 -10 68.6631 150.720  18
   4  -3  10 9.78150 45.4144   6
  -4  -3  10 46.3860 7.76213  19
  -3   4 -10 96.5746 98.3324  19
  -4  -3  10 255.614 268.583  17
  -4  -3  10 56.2217 120.066   2
  -4  -3  10 113.746 61.5060  16
   4   3 -10 84.2547 88.4656   1
   4   3 -10 145.374 142.796   3
   3  -4  10 209.983 273.470  16
  -4   3 -10 15.1198 32.2080  18
  -4   3 -10 168.433 181.148  13
   3  -4  10 79.7190 123.453   8
   3   4 -10 181.468 194.950  18
  -4   3 -10 119.756 115.508  19
   4  -3  10 134.468 138.759   8
  -3   4 -10 146.612 94.0640   5
  -3   4 -10 98.1698 51.4833   3
  -3   4 -10 71.6117 25.2869  12
   4   3 -10 292.854 374.456  10
   4  -3  10 49.5478 43.4083  17
   4   3 -10 101.583 53.9759  12
   3   4 -10 110.465 119.632   3
   3   4 -10 403.965 305.116  15
  -3   4 -10 183.588 167.889   4
  -3  -4  11 86.0549 46.1850  17
   3  -4  11 113.780 114.632   8
   4  -3  11 231.838 127.292  14
  -4  -3  11 152.648 132.634   5
   4   3 -11 226.309 138.888  18
   4  -3  11 194.530 124.558   6
  -4   3 -11 370.448 303.075  10
  -3  -4  11 212.031 233.236   2
  -3   4 -11 241.808 199.561  12
   3   4 -11 590.051 456.975  11
  -4   3 -11 115.947 157.941  20
  -3   4 -11 299.799 250.431   3
  -3   4 -11 409.107 153.438  11
   4   3 -11 251.300 160.195   1
  -3   4 -11 238.938 99.6779  19
   3   4 -11 258.877 178.948   3
  -4   3 -11 96.2740 119.900  19
  -4   3 -11 61.5419 28.9733  11
   4   3 -11 239.740 223.817  11
  -3   4 -11 168.034 68.7222  18
  -4   3 -11 635.429 473.485   7
   4  -3  11 243.047 199.584   8
   4  -3  11 191.032 145.949   2
   4  -3  11 163.602 90.2724  16
   3   4 -11 181.840 170.442  18
  -3   4 -11 180.312 133.074   4
   3  -4  11 328.770 124.419  17
   4   3 -11 252.184 258.446  20
   3  -4  11 350.899 238.155  16
  -4  -3  11 95.2118 44.6228   4
   4  -3  11-31.2563 128.235  17
   3   4 -11 228.196 100.890  12
   3   4 -11 267.533 232.116  13
  -3  -4  11 174.862 180.125  16
  -3  -4  11 8.30400 56.2095   6
  -3   4 -11 193.174 165.810  13
  -4  -3  11 88.1667 63.8211   2
   3   4 -11-32.4422 136.081   1
  -4  -3  11 44.6436 148.469  17
   3  -4  11 174.436 105.418  14
   3   4 -11 98.0975 51.9265   7
   3   4 -11 71.5957 127.063  15
  -4   3 -11 341.654 372.872  15
   3  -4  11 334.568 231.308   6
  -4   3 -11-121.289 212.269   4
   4   3 -11 353.302 297.451  10
  -4  -3  11 257.829 170.130  16
  -3  -4  12 1963.22 672.564  17
   4   3 -12 1856.65 644.436   9
   4   3 -12 737.291 351.586  11
   3   4 -12 1000.02 227.225  12
  -3  -4  12 938.778 460.838  16
   3   4 -12 920.773 342.611   3
   3   4 -12 775.935 334.007  18
  -3  -4  12 1320.72 604.024   2
   4   3 -12 797.341 401.815  10
   4   3 -12 622.286 316.853  20
  -4  -3  12 1798.06 582.926   2
   3   4 -12 2456.34 820.599  20
   4   3 -12 399.538 194.748   1
  -4   3 -12 2762.07 947.306   7
   3   4 -12 958.739 385.738   1
   3   4 -12 843.310 363.477  15
   4   3 -12 535.162 315.386  18
  -4  -3  12 828.148 343.199   5
   3  -4  12 1796.46 363.374  14
  -4  -3  12 1052.53 412.260  16
  -4  -3  12 644.347 194.353   4
   4  -3  12 2442.58 634.294   6
  -3  -4  12 825.336 394.374   6
   4  -3  12 1692.85 454.399  14
   3   4 -12 1351.69 510.469  11
   4  -3  12 1988.31 504.271   2
   4  -3  12 3074.56 778.093  16
   3  -4  13 123.773 167.999   2
  -3   4 -13 423.061 316.379  13
  -3  -4  13-10.4563 126.011   6
   3  -4  13 86.9184 55.8847  14
   4   3 -13 150.804 170.467  20
   3  -4  13 37.1459 81.5019   6
   4  -3  13 63.7745 74.5133  14
  -4  -3  13 187.637 189.595  16
   3   4 -13 66.5830 138.588   3
  -3  -4  13 98.1031 212.863  17
  -3  -4  13 99.0684 176.741  16
  -3   4 -13 204.510 287.357  15
   4   3 -13 130.518 37.2961  11
   4  -3  13-0.24999 139.548   6
  -3   4 -13 41.8222 41.0615  18
  -3   4 -13 154.304 216.467  12
  -3   4 -13 136.575 178.463   3
  -4   3 -13 87.0484 94.0002  19
  -4   3 -13 153.963 295.287  15
   3   4 -13 98.9007 87.8614  11
   4  -3  13 123.731 172.332   8
  -4   3 -13 126.804 25.9901  10
   3  -4  13-502.989 247.473   8
  -4  -3  13 113.802 150.450   5
  -3   4 -13 627.098 581.983   7
   3   4 -13 363.743 449.847  10
   3  -4  13 156.277 77.3638  17
   3  -4  13 182.888 249.404  16
  -4  -3  13 36.1910 23.2065  17
   3   4 -13 147.847 123.255  18
  -4   3 -13 196.783 193.593   9
  -3  -4  13 55.5500 60.4413   2
   4   3 -13 598.206 407.805   9
  -3   4 -13-111.579 113.779  19
  -3   4 -13 448.036 206.509  11
   3   4 -13 181.792 116.995  12
   4  -3  13 134.351 98.6483   2
  -4  -3  13 394.730 320.613   2
  -4  -3  13 136.560 99.6007   4
   3   4 -13 249.619 333.822  20
   4   3 -13 145.834 189.317  18
  -4   3 -13 57.9318 72.7601  11
   4  -3  13 79.7690 138.601  16
   4   3 -13 126.514 163.416   1
  -4   3 -13 160.926 187.231  20
  -4   3 -13-274.555 352.544   7
   4   3 -13 169.244 211.702  10
   3   4 -13 74.5236 101.323   1
  -3   4 -13 288.836 327.614  20
  -4  -3  14 884.508 381.764   2
   3  -4  14 526.566 218.813  14
   3   4 -14 403.939 231.393   1
  -3   4 -14 640.564 360.616  12
   4  -3  14 627.885 326.649   6
   4  -3  14 956.583 346.081   2
   4  -3  14 1125.39 371.914   8
  -3  -4  14 970.544 440.800   2
  -3  -4  14 762.256 323.969  17
   3  -4  14 763.340 326.824   6
  -4   3 -14 223.492 139.874   9
  -3   4 -14 633.296 225.050  11
  -4  -3  14 830.919 431.839  17
   3   4 -14 609.553 286.382  11
  -4   3 -14 58.3434 224.979  15
   4   3 -14 415.957 267.876  18
   3   4 -14 449.574 285.197  18
   3   4 -14 836.322 368.880   3
  -3   4 -14 551.955 367.672   3
   4   3 -14 522.678 339.253  11
  -3   4 -14 444.958 185.488  19
  -4   3 -14 394.116 305.588  20
  -4  -3  14 716.865 311.440   5
  -3   4 -14 627.844 352.569  13
  -4   3 -14 350.044 186.351  19
  -4   3 -14-172.687 566.926   7
   3  -4  14 596.564 423.577  16
  -3   4 -14 703.906 443.960  15
  -3   4 -14 368.242 325.101  20
   4   3 -14 341.405 184.975   9
   3  -4  14 884.239 353.112   2
   4  -3  14 498.817 244.433  14
   3   4 -14 541.032 305.896  20
  -3   4 -14 870.514 480.969  10
  -3   4 -14 293.810 135.724  18
   3   4 -14 561.001 366.181  10
   3   4 -14 666.129 234.658  12
  -3  -4  14 677.466 364.088  16
   4   3 -14 387.145 277.131  10
   4   3 -14 503.521 271.217   1
   3  -4  14 843.290 351.531   8
   4  -3  14 787.622 394.054  16
  -4  -3  14 559.834 176.737   4
  -4   3 -14 619.390 333.681  10
  -4   3 -14-30.0700 145.770  11
  -4  -3  14 853.141 379.510  16
   3  -4  14 651.023 230.170  17
  -3   4 -14 1015.94 559.903   7
   4   3 -14 101.065 110.439  20
  -3  -4  14-7.61669 85.3573   6
   4  -3  15 12.5874 50.1166   6
   4   3 -15 51.2822 195.679   9
  -3  -4  15 78.4482 191.106   2
   3   4 -15 1042.75 600.291   9
   3   4 -15 186.142 209.111  12
   3   4 -15 43.5426 27.1052   1
  -3  -4  15-0.83640 147.170   5
   3  -4  15 141.784 196.141   2
   3   4 -15-5.34282 27.9703  11
   4   3 -15-7.30612 165.227  11
  -3   4 -15 48.1594 93.2042  11
  -4   3 -15-115.881 63.8832  20
   4  -3  15-12.4748 117.891  14
   4   3 -15 102.733 135.537  20
  -4  -3  15 49.3834 92.3156   5
  -3   4 -15 805.592 461.299   9
   3  -4  15-0.49079 82.3034  14
  -3   4 -15 182.189 275.311  15
  -4   3 -15-255.262 203.112   9
   3  -4  15 160.463 190.794   8
   3   4 -15 57.1327 103.179  18
   4  -3  15 74.3716 150.286  16
  -3   4 -15 8.86874 78.9091  18
  -3  -4  15-69.0013 197.855   6
  -4  -3  15 196.430 244.437  17
  -4  -3  15-53.8862 141.793   2
   3  -4  15-170.424 176.156   6
  -4  -3  15 185.922 235.241  16
   4   3 -15-46.3936 177.523  18
   3  -4  15-26.5632 139.102  16
   4  -3  15 109.586 129.497   2
   3  -4  15 34.9411 110.419  17
   3   4 -15 145.674 219.174  20
  -4   3 -15 46.1719 6.02732  19
  -3  -4  15-228.887 215.756  17
  -4  -3  15 41.1017 58.1629   4
   3   4 -15 10.3668 129.996  10
  -3   4 -15 71.5768 247.604  20
  -4   3 -15 64.7999 135.157  10
  -3  -4  15 114.216 173.464  16
   4  -3  15 268.435 307.408   8
  -3   4 -15 44.3009 73.1779  19
  -3   4 -15 96.0626 191.090   7
  -4   3 -15-402.330 600.177  15
   4   3 -15-13.9804 7.06593  10
  -3   4 -15 8.07216 128.975  10
   4   3 -15-12.0389 52.9477   1
   3   4 -16 143.471 211.586  10
   3  -4  16-126.927 158.810   6
   4  -3  16 146.275 130.019   6
  -3   4 -16 67.9752 140.390  10
   3   4 -16-15.6377 98.4201   1
  -3  -4  16-5.30358 113.979  16
   4   3 -16-16.9024 159.763  10
   3   4 -16 229.692 220.668  18
  -3   4 -16-32.2979 62.1106  11
   4   3 -16 198.407 157.475   1
  -3   4 -16 39.7699 194.101  15
  -3  -4  16 51.0203 79.8879   2
   3   4 -16 118.491 168.147  11
   4   3 -16-101.071 173.152  11
  -3   4 -16 149.914 318.983  20
  -4   3 -16-62.4578 208.338  10
  -3   4 -16 348.448 297.653   9
   3   4 -16 695.944 460.378   9
  -4   3 -16 106.066 234.797  20
  -4   3 -16 62.3345 102.680  19
  -3  -4  16-118.338 124.899  17
  -3   4 -16 29.5476 16.8901  19
   3  -4  16 294.713 282.378   2
   4   3 -16 133.264 32.7982   9
  -4  -3  16-3.33674 89.1745   2
   3  -4  16 153.175 123.490  17
   4   3 -16-21.7674 107.477  18
  -4  -3  16 41.3904 105.767  17
  -3   4 -16-318.358 431.071   7
  -3   4 -16 50.6295 25.5589  18
   4  -3  16 176.368 172.840   8
   4  -3  16 286.745 261.081   2
   3  -4  16-32.9516 122.195  14
   3  -4  16 135.543 205.165  16
  -4  -3  16 216.794 290.802  16
   3  -4  16 136.579 75.8476   8
  -4   3 -16 101.240 176.927   9
  -4  -3  16 100.371 75.1981   4
  -4  -3  16 129.088 151.497   5
  -3  -4  16 69.9263 119.784   5
   4  -3  16 162.259 240.086  16
   4   3 -16-223.978 442.072  20
   3   4 -16 266.447 256.293  20
   4  -3  17 1007.68 447.976   8
   4  -3  17 223.226 184.192   6
   4   3 -17 190.711 273.941   9
  -4  -3  17 620.865 393.550  16
  -4  -3  17 430.664 149.474   4
  -3   4 -17 137.035 270.392  20
  -3   4 -17-13.1142 169.050  18
   3   4 -17 238.713 197.074   1
   3  -4  17 284.784 304.177   6
  -3   4 -17 339.834 177.193  19
  -4  -3  17 620.783 360.416   2
   3  -4  17 680.182 371.900   2
   3   4 -17 310.569 322.490  10
   3   4 -17 471.221 365.998  11
   3  -4  17 515.102 352.183  16
  -4   3 -17 244.972 283.720  20
  -3   4 -17 350.880 224.329   9
   3   4 -17 376.850 347.310   9
  -4   3 -17 57.4510 164.345  10
  -4  -3  17 517.781 269.933   5
   4   3 -17 105.439 212.430  18
  -3  -4  17 410.279 208.993   5
  -3   4 -17-369.979 665.976  15
  -4  -3  17 520.607 305.331  17
   4  -3  17 662.911 445.436  16
  -4   3 -17 61.3062 33.6721   9
  -3  -4  17 759.937 416.869  17
  -3   4 -17 175.630 138.070  11
  -3  -4  17 684.325 413.919  16
   4   3 -17 253.658 225.263   1
  -3  -4  17 570.651 373.458   2
   3   4 -17 174.409 186.060  18
   3  -4  17 849.705 347.561   8
   3  -4  17 341.824 187.563  17
   4  -3  17 670.596 328.326   2
   3   4 -17 165.760 286.571  20
  -4   3 -17 178.859 170.119  19
  -3   4 -17 157.844 150.718  10
   4   3 -17 395.848 245.945  11
   4   3 -17-112.820 212.361  10
  -3   4 -18 280.255 159.844  19
  -3  -4  18 987.570 383.731   5
  -3  -4  18 784.712 454.654  16
  -4  -3  18 967.276 375.935   5
  -3   4 -18 279.744 248.745  20
   4   3 -18-50.4224 118.030  10
   3  -4  18 1338.65 422.989   8
  -4  -3  18 591.619 290.229   2
  -4  -3  18 848.173 459.588  16
   3   4 -18 1090.67 566.735   9
   4  -3  18 1121.59 479.003   8
  -4   3 -18 11.6067 76.7171  19
   3  -4  18 862.152 468.771  16
  -4   3 -18 316.435 319.329  10
   3   4 -18 235.551 196.937   1
   3  -4  18 942.346 412.959   2
  -3  -4  18 878.231 444.969  17
  -3  -4  18 783.455 415.160   2
  -3   4 -18 233.438 158.350  11
   4  -3  18 1196.08 451.563   2
  -3   4 -18 496.835 270.429   9
  -4  -3  18 919.585 476.743  17
  -4   3 -18 94.4007 106.616   9
   3  -4  18 315.635 100.828  17
   3  -4  18 504.253 382.156   6
   3   4 -18 294.788 212.693  10
   4   3 -18 427.293 295.088   9
   3   4 -18 129.377 363.888  20
   4   3 -18 424.239 268.910   1
   3   4 -18 626.680 400.113  11
   3   4 -18 290.340 281.303  18
   4   3 -18 328.708 326.357  18
   4  -3  18 1295.14 605.887  16
  -4   3 -18 53.5644 133.486  20
   4  -3  18 622.743 344.220   6
   4   3 -18 402.412 298.216  11
  -3   4 -18 466.545 290.743  10
   4  -3  19 1550.40 661.535   6
  -3  -4  19 2178.62 745.171   2
   3  -4  19 1286.97 556.929   6
   3   4 -19 763.721 490.655  18
   4  -3  19 3053.59 675.467   2
  -3   4 -19 809.010 387.287   9
  -3  -4  19 1897.67 490.195   5
   4   3 -19 1237.08 602.986   9
  -4  -3  19 1960.25 776.179  17
   4   3 -19 621.578 338.489   1
   3   4 -19 715.243 312.627   1
  -3   4 -19 296.653 182.774  11
  -4  -3  19 1985.45 778.018  16
   3  -4  19 2482.53 722.349   2
   3   4 -19 1528.91 630.765  11
  -3   4 -19 196.911 397.821  20
  -4   3 -19 75.2912 414.915  20
   3   4 -19 378.169 289.157  20
   3   4 -19 1249.42 631.844   9
  -4   3 -19 432.933 299.793  10
   3  -4  19 2560.73 658.433   8
   4   3 -19 863.535 502.622  11
   4  -3  19 3180.42 782.642   8
   4   3 -19 641.905 477.949  18
  -4  -3  19 2123.35 738.885   2
  -4  -3  19 2486.61 610.731   5
   3   4 -19 969.937 513.772  10
  -3   4 -19 763.343 388.948  10
  -3  -4  19 1995.49 669.393  17
   3  -4  19 2704.63 865.910  16
  -3  -4  19 1857.01 649.682  16
   4  -3  19 2677.99 894.236  16
   4   3 -19 216.760 55.9468  10
  -4   3 -19 246.844 205.823  19
  -4   3 -19 233.091 174.471   9
   3  -4  20 92.0694 179.919   6
  -4  -3  20 3.40995 62.0684  17
  -4  -3  20 36.9556 111.733   2
   4   3 -20 131.650 19.2440  11
  -4   3 -20-321.514 432.963  10
   4  -3  20-80.3173 255.040   6
  -3   4 -20-152.871 260.749  20
  -3  -4  20 145.483 210.534   2
   4  -3  20 377.948 347.211   8
  -3   4 -20 56.8834 154.186  10
   3   4 -20-10.7513 85.3030   1
   4   3 -20-507.858 460.841   9
  -3   4 -20-370.572 322.607  11
   3   4 -20 224.989 352.816   9
   4  -3  20 214.549 282.183   2
  -4  -3  20 300.872 259.274   5
   3   4 -20 47.0797 233.579  10
  -3  -4  20 253.225 322.290  17
  -4   3 -20-115.218 165.341  19
   3  -4  20 263.668 299.473   8
   3  -4  20 120.927 30.5703   2
   4   3 -20-44.2746 207.664  18
   3   4 -20-131.824 505.287  20
  -4   3 -20-58.3892 256.453   9
  -4  -3  20 77.9389 97.1808  16
   3   4 -20 54.0819 63.7578  11
   4   3 -20-295.943 518.498  10
   3  -4  20 355.876 384.993  16
  -3  -4  20 317.980 320.262  16
   4   3 -20 31.7575 35.3780   1
   4  -3  20 260.078 362.213  16
   3   4 -20 62.5230 132.312  18
  -3   4 -20-18.3698 65.3699   9
  -4   4  -3 9.42837 12.7568  12
   4  -4   3-32.6304 89.5145   6
  -4   4  -4 26.3433 34.2258   3
   4   4  -4-69.5282 178.540   1
   4  -4   4-47.4621 96.7015  14
  -4   4  -4-36.8011 116.646  19
   4   4  -4-107.881 247.998  18
   4   4  -4-4.62697 43.8867  13
  -4   4  -4 25.0417 49.0437  12
   4  -4   4 29.8235 47.8758   6
   4  -4   4-1.10717 124.845   8
   4  -4   5 2.08623 27.9066  14
  -4   4  -5 14.8027 92.5762  12
   4   4  -5 41.6355 132.875  18
  -4   4  -5 11.0278 26.3836  19
  -4   4  -5 8.16902 69.4475   3
   4   4  -5 9.04448 21.1537  13
   4   4  -5 15.2692 113.937   1
   4  -4   5-34.8329 74.7102   6
   4  -4   5 42.2234 54.9998   8
  -4   4  -6 1535.11 362.912   4
   4  -4   6 1517.66 347.315  14
   4   4  -6 2358.30 528.328  13
  -4   4  -6 2005.11 501.114   3
   4   4  -6 1819.65 495.443  18
  -4   4  -6 1839.97 377.179  19
  -4   4  -6 1823.36 419.219  12
   4   4  -6 973.372 385.752   1
   4  -4   6 1560.43 413.658   6
  -4  -4   6 717.810 399.820  17
   4  -4   6 1443.77 420.661   8
  -4   4  -6-137.517 253.547  13
   4  -4   7 28.8597 115.150   6
   4   4  -7-7.59450 26.5191   3
   4  -4   7 37.7504 53.3265  14
   4   4  -7 89.0942 153.297  13
  -4  -4   7 0.83600 33.8836   6
  -4   4  -7-3.52636 50.4537  12
   4   4  -7-76.6927 136.138   8
   4   4  -7-37.3640 116.176  18
   4  -4   7 4.80584 13.8085   1
  -4  -4   7 53.7335 122.757   2
  -4  -4   7-159.349 226.653  17
  -4   4  -7-34.8493 99.5802  13
   4  -4   7-123.757 287.859  16
  -4   4  -7-11.3752 52.1932   5
  -4   4  -7 33.9193 84.9098  19
   4   4  -7 22.2481 129.612   1
  -4   4  -7 33.2702 64.3961   4
   4  -4   7-44.1661 105.963   8
  -4   4  -7 78.6767 129.607   3
  -4  -4   7-50.1765 127.298  19
   4  -4   8 2521.38 306.508   1
  -4   4  -8 1718.67 265.233  18
   4   4  -8 3542.45 677.484  13
   4   4  -8 1542.94 467.058   1
  -4   4  -8 1074.56 353.410  13
   4   4  -8 2972.12 355.358   8
  -4   4  -8 2519.21 414.773   5
  -4  -4   8 1877.19 539.989   2
  -4  -4   8 1703.42 557.885  17
  -4  -4   8 1399.12 294.940  19
  -4   4  -8 2516.90 453.374  19
   4  -4   8 2830.34 476.461  14
   4   4  -8 2718.64 629.935  18
   4  -4   8 2512.79 573.053   8
  -4   4  -8 2777.69 522.103  12
  -4   4  -8 2698.14 521.032   4
  -4  -4   8 1140.99 338.214  16
   4  -4   8 1723.22 492.207  16
  -4  -4   8 1411.47 254.138   6
  -4   4  -8 2574.28 584.261   3
   4  -4   8 2957.88 600.142   6
   4   4  -8 2811.64 470.604   3
  -4   4  -9 75.6934 101.252   4
  -4   4  -9 54.2192 133.848  13
  -4   4  -9 1.13264 41.7178  18
   4  -4   9 99.2290 156.505   6
   4   4  -9-21.8503 21.7139  13
  -4   4  -9 34.0187 47.7876   3
  -4  -4   9 83.8302 93.9176   6
  -4   4  -9 60.3627 96.2655   5
   4  -4   9 25.0405 41.6832   1
  -4  -4   9-18.2554 91.6431  16
  -4  -4   9 13.4429 69.3404  19
  -4  -4   9 173.490 218.044  17
   4   4  -9 14.2074 58.6751   3
   4  -4   9-36.8749 96.8750  16
   4   4  -9-69.9544 105.815   1
   4  -4   9 10.4763 28.6328  14
   4   4  -9-24.5281 31.1729  18
  -4   4  -9-26.4729 51.9655  19
  -4   4  -9 3.65411 45.6634  12
   4  -4   9 49.1506 149.804   8
  -4  -4   9 93.2197 219.591   2
   4  -4   9 80.1902 110.535  17
  -4  -4  10 23.2232 67.1723   6
   4  -4  10 1190.52 398.920   6
  -4   4 -10 928.031 304.735  12
   4  -4  10 677.031 151.688   1
  -4   4 -10 784.778 293.602   3
  -4   4 -10 1061.25 279.553   5
   4  -4  10 1244.73 318.884  14
   4   4 -10 689.865 199.849   7
  -4   4 -10 1100.33 274.633  19
   4   4 -10 728.019 279.352   1
  -4  -4  10 912.114 343.696  16
  -4   4 -10 1249.82 385.510   4
  -4  -4  10 1059.56 419.072   2
  -4  -4  10 977.876 187.612  19
   4   4 -10 1296.73 454.176  18
   4   4 -10 1295.54 332.923   3
   4  -4  10 1390.39 238.408  17
   4   4 -10 847.318 280.083  15
  -4   4 -10 1077.21 194.394  18
   4   4 -10 751.838 158.441  12
   4  -4  10 912.189 365.307  16
   4   4 -10 1353.86 437.251  13
  -4   4 -10 567.012 260.480  13
  -4  -4  10 995.132 429.492  17
   4  -4  10 1217.21 354.184   8
   4  -4  11 406.899 194.936  14
   4  -4  11 454.829 209.444  17
   4   4 -11 857.015 610.337  11
   4  -4  11 1314.21 464.253   6
  -4   4 -11 1711.06 517.043   4
  -4   4 -11 682.802 342.555   5
  -4  -4  11 672.590 369.451  16
  -4  -4  11 1418.91 592.998   2
  -4   4 -11 102.198 97.1833  18
  -4  -4  11 1165.11 333.893   6
   4   4 -11 695.451 353.804   3
   4   4 -11 1380.28 561.029   1
   4   4 -11 365.360 323.966  18
   4  -4  11 1328.41 604.561  16
  -4  -4  11 439.176 166.752  19
   4  -4  12 177.497 139.906  14
   4   4 -12 405.547 312.406  13
  -4   4 -12 71.7091 80.1891  13
   4   4 -12 243.687 183.195   3
  -4   4 -12 244.649 241.773   3
  -4  -4  12 251.204 229.666  16
  -4   4 -12 141.812 82.9796  11
   4   4 -12 293.989 289.117  20
  -4   4 -12 74.1988 50.0913  19
  -4  -4  12 191.018 227.370   2
   4  -4  12 306.679 265.433   6
  -4   4 -12 67.4021 84.3598   4
  -4   4 -12 160.963 225.284  12
  -4  -4  12 159.551 119.029  17
   4  -4  12 61.3263 86.1113   8
   4   4 -12 154.184 59.8536  12
   4  -4  12 212.131 52.8859  17
   4  -4  12 267.688 181.751  16
  -4   4 -12 88.7039 46.7895  18
   4   4 -12 374.402 341.128  11
   4   4 -12 73.7599 90.3361  18
   4   4 -12 139.153 160.672   1
  -4  -4  12 7.42832 24.0827   6
   4  -4  13 60.1135 115.375  14
   4   4 -13 52.4216 176.431  18
   4  -4  13 36.6121 132.443   2
  -4   4 -13 26.6695 144.537   3
   4  -4  13-27.3652 26.6918   6
   4  -4  13 13.0207 33.7427  17
  -4   4 -13-20.0017 44.2079  18
  -4   4 -13 165.568 213.233  12
   4   4 -13 1.00051 66.1988  12
  -4   4 -13 577.341 571.398  15
  -4  -4  13 19.3213 164.080   5
   4   4 -13 21.7608 95.3763   3
   4   4 -13 192.181 319.685  11
  -4   4 -13 126.275 135.225  11
  -4  -4  13-30.8170 144.593   2
   4   4 -13 199.983 392.891  10
   4   4 -13-37.1672 68.1025   1
   4   4 -13 60.5208 241.964  20
   4  -4  13-26.2748 87.3350   8
  -4   4 -13 419.145 390.825  10
  -4  -4  13 37.5687 58.2323  16
  -4   4 -13 257.957 346.914  20
   4  -4  13 99.7582 221.368  16
  -4  -4  13 28.8939 110.724  17
  -4   4 -13 46.7369 133.407  13
  -4   4 -13-118.203 256.987   4
  -4  -4  13-73.6181 200.941   6
  -4   4 -13 339.740 464.874   7
  -4   4 -13-13.5950 16.1129  19
   4  -4  14 173.583 140.972  14
   4  -4  14 492.104 306.517   6
   4  -4  14 520.150 378.640  16
  -4   4 -14 344.012 271.398  12
   4   4 -14 305.900 243.604   3
  -4   4 -14 307.425 251.836   3
  -4  -4  14 39.4990 157.179   5
  -4   4 -14 323.719 318.136  15
  -4  -4  14 311.046 273.505   2
  -4   4 -14 248.146 93.9150  11
   4   4 -14 248.327 113.724  18
  -4   4 -14 493.593 363.285  20
   4   4 -14 192.953 234.591  20
   4   4 -14 367.351 143.858  12
   4   4 -14 343.144 318.283  10
  -4   4 -14 211.695 186.323  13
   4   4 -14 246.484 236.840  11
  -4  -4  14 326.659 283.931  17
  -4   4 -14 69.0247 34.4646  18
  -4   4 -14 521.258 331.522  10
   4  -4  14 149.700 92.0426  17
   4  -4  14 353.320 273.135   8
   4  -4  14 300.531 262.471   2
  -4  -4  14 423.191 291.361  16
   4   4 -14 259.665 212.492   1
  -4   4 -14 132.258 113.522  19
  -4   4 -14 367.814 422.921   7
  -4  -4  15-218.569 220.879  17
   4  -4  15 84.4412 163.163   6
  -4  -4  15-72.1635 143.049   5
   4   4 -15 28.0515 132.740   1
  -4   4 -15 96.7450 97.7210   7
   4  -4  15 88.6892 216.726   8
   4   4 -15 147.848 208.366   3
  -4   4 -15 1.82715 50.9294  19
   4   4 -15-165.156 266.199  11
   4  -4  15-47.7839 130.323  17
   4   4 -15 35.8992 151.123  20
  -4   4 -15 357.594 271.475  13
   4  -4  15 95.7417 156.394   2
   4   4 -15 225.117 271.846  10
   4   4 -15 629.210 457.420   9
  -4  -4  15 6.88233 205.626   2
   4   4 -15 125.410 162.501  12
   4   4 -15 79.0483 176.515  18
  -4   4 -15 98.2745 280.024  15
  -4   4 -15-105.479 80.6959  10
   4  -4  15-331.605 267.745  16
  -4   4 -15-64.1776 134.475  11
  -4  -4  15 23.1026 99.5866  16
  -4   4 -15 560.249 377.524   9
  -4   4 -15-154.074 139.045  20
   4  -4  15-48.8158 133.306  14
  -4   4 -16-18.2757 278.692  15
   4  -4  16-54.5260 119.856   6
   4   4 -16 14.7834 84.2039   1
  -4   4 -16 114.160 91.9932   9
  -4  -4  16 62.5642 162.807  17
   4   4 -16 127.956 218.424  12
   4   4 -16 145.134 294.251  10
  -4   4 -16-56.3425 58.4899  10
  -4  -4  16 32.1416 117.651  16
   4   4 -16-1.74624 149.611  11
   4  -4  16 35.6142 118.524   8
  -4   4 -16 41.2307 73.9283  19
   4   4 -16-111.914 167.290  20
   4  -4  16 44.1476 113.834  14
  -4   4 -16 256.957 326.365  20
   4   4 -16 225.576 363.822   9
   4  -4  16 93.9497 197.767   2
  -4  -4  16-60.9014 103.329   5
   4   4 -16-8.89295 92.2404  18
  -4  -4  16 152.672 356.790   2
   4  -4  16-63.1991 226.455  16
  -4   4 -16-284.051 476.631   7
  -4   4 -16 22.5149 98.4406  11
   4  -4  17-111.066 133.370   6
   4   4 -17-20.6777 93.5614  11
   4   4 -17 7.28063 99.4098   9
   4   4 -17 41.9761 171.671  20
   4  -4  17-4.33536 210.515   2
  -4   4 -17-93.1755 337.738  20
  -4   4 -17 43.1110 119.450  11
  -4   4 -17 160.175 190.349  10
  -4   4 -17 126.171 131.124  19
  -4   4 -17 142.857 238.058   9
  -4  -4  17-68.5485 241.142  17
   4   4 -17-20.5051 163.161  18
  -4   4 -17-913.280 917.903   7
  -4  -4  17 21.5246 126.139   2
   4  -4  17 20.2998 184.400   8
   4   4 -17 90.8159 194.022  10
   4  -4  17 64.7321 196.060  16
  -4  -4  17 179.529 248.390  16
  -4   4 -17-516.170 723.036  15
  -4  -4  17-45.9838 34.8478   5
   4  -4  17-20.7535 78.4768  14
   4   4 -17 20.2427 47.0655   1
  -4  -4  18 1325.98 648.003  16
   4  -4  18 625.826 378.995   6
   4   4 -18 410.950 402.056  18
  -4  -4  18 1086.08 456.449   5
   4   4 -18 919.214 454.041  11
  -4   4 -18-24.8311 179.788  11
  -4   4 -18 480.931 228.961  19
  -4   4 -18 349.334 226.161  20
   4  -4  18 1642.98 540.473   8
   4   4 -18 197.335 204.384   1
   4  -4  18 1460.57 577.111   2
  -4   4 -18 300.665 225.456   9
  -4   4 -18 508.353 311.270  10
  -4  -4  18 1343.06 626.969   2
   4   4 -18 708.831 460.003   9
   4   4 -18 17.2576 93.8840  20
   4   4 -18 236.887 221.329  10
  -4  -4  18 2133.75 935.050  17
   4  -4  18 1474.27 612.966  16
   4  -4  19 54.7844 188.061   6
   4   4 -19-381.374 424.630  10
  -4  -4  19-83.3642 114.031  16
  -4  -4  19-49.0830 149.110   5
   4   4 -19-182.652 364.042  11
   4   4 -19-326.399 359.537   9
  -4  -4  19-61.5364 221.462   2
  -4   4 -19 151.299 309.431  20
   4  -4  19 71.8376 184.311   2
   4   4 -19-276.452 448.628  20
  -4   4 -19 249.793 183.751  19
  -4   4 -19-135.523 239.202   9
   4   4 -19 23.2976 110.836  18
   4  -4  19-15.5297 85.1044   8
  -4   4 -19-13.6299 222.702  10
   4   4 -19 116.022 164.918   1
  -4  -4  19-322.518 362.484  17
   4  -4  19-184.913 254.674  16
   5   0   0 30.4880 39.2987  14
   5   0   0 33.7166 61.4380  18
   5   0   0 5.42500 25.7517   6
  -5   0   0 14.6162 44.5893   2
  -5   0   0 2.02428 65.6619  17
   5   0   0-4.04273 42.6774   1
   5   0   0 9.11603 74.2156   8
   5   0   0 11.5783 44.0506  11
  -5   0   0 10.0508 29.1101   3
  -5   0   0 15.3035 43.8293  19
  -5   0   0 14.3366 87.2781   4
  -5   0   0 80.4922 125.224   5
  -5   0   0-4.17227 6.18716  12
   5   0   1 148.474 127.447  14
  -5   0   1 140.110 91.2364   2
  -5   0   1 85.0412 61.1012  12
   5   0   1 154.794 104.326   6
   5   0  -1 118.789 110.699  14
   5   0  -1 104.064 81.3424  18
  -5   0  -1 118.092 125.555  19
  -5   0  -1 86.5363 113.625  17
  -5   0  -1 144.798 88.3507   3
   5   0   1 276.839 135.057  11
   5   0  -1 122.017 87.3504  11
   5   0   1 197.032 144.552   1
  -5   0  -1 91.2104 93.5104   4
  -5   0  -1 160.504 138.661   5
  -5   0   1 182.309 161.191   5
   5   0  -1 207.479 147.899   8
   5   0   1 179.788 95.4668  18
   5   0   1 136.606 92.3696   8
  -5   0   1 124.264 124.554   4
  -5   0   1 115.319 38.6376  19
   5   0  -1 73.9484 80.3384   1
   5   0  -1 144.039 83.2415   6
  -5   0  -1 129.386 75.1701   2
  -5   0   1 63.1628 96.4800  17
  -5   0   2-6.10473 72.7040  19
  -5   0   2 22.1093 36.7198   2
   5   0   2 0.63018 26.3608  14
   5   0  -2-4.53063 17.3296  14
   5   0   2-12.2981 49.3407   6
  -5   0  -2 17.0893 61.6851  19
  -5   0   2-4.21173 13.1306  12
   5   0  -2-3.38292 101.973  11
  -5   0  -2 6.83571 90.9058   4
   5   0  -2-24.5736 70.3725   8
  -5   0  -2-2.37559 26.0686  17
  -5   0   2-37.4199 110.533  17
   5   0  -2-0.26888 23.2308   6
   5   0  -2-24.4316 31.9110  18
  -5   0  -2 153.533 176.931  15
   5   0   2 69.6281 93.5655   8
  -5   0   2 14.6215 55.0869   5
  -5   0  -2-58.9371 81.9053   5
  -5   0   2-28.2262 66.2906   4
   5   0   2 0.96939 9.48308  16
   5   0  -2-25.1637 38.3745   1
  -5   0  -2 169.117 197.461   7
   5   0   2 4.97628 31.3088  18
   5   0   2-6.19339 19.3027   1
   5   0  -3 14.4032 39.8192  18
   5   0   3-2.90707 17.8499   6
  -5   0   3 45.4872 77.3565  17
   5   0  -3-9.65784 20.1278  14
  -5   0   3-7.22654 20.1433  19
  -5   0  -3 14.3962 47.5709  17
   5   0   3 81.3448 122.768  14
  -5   0  -3 24.0873 81.6557   7
   5   0  -3 3.89445 7.64595   6
   5   0  -3 48.2641 52.5003  11
   5   0  -3-8.62602 18.0218   1
   5   0   3-50.9738 41.3914   8
  -5   0  -3-25.5886 56.0611  19
   5   0   3 25.6003 56.6420  18
  -5   0   3-68.5175 83.2755   5
  -5   0  -3 23.9968 63.0846   4
  -5   0  -3 76.9701 132.514  15
   5   0   3-4.50909 43.6391   1
   5   0  -3 43.5371 107.775   8
  -5   0  -3-10.1562 71.2714   5
  -5   0   3 57.5879 78.1225   4
   5   0   3 0.70986 28.9875  16
  -5   0   3-19.7351 36.3076   2
   5   0   4-0.19032 109.102  14
  -5   0   4 52.6866 120.951  17
   5   0   4 19.2415 101.044   6
  -5   0  -4-21.5887 45.2718  19
  -5   0   4 8.78814 40.8997   4
  -5   0   4 13.2551 94.4695  19
  -5   0  -4 45.6234 61.8673  17
   5   0  -4-15.9476 76.7840   8
   5   0  -4 63.1144 102.254  18
   5   0  -4 60.0884 123.263  11
   5   0  -4 98.9411 170.574   1
   5   0   4 31.8009 39.8609  18
  -5   0   4 10.9367 74.7654   2
   5   0   4 24.8608 118.179   8
  -5   0  -4-72.3388 139.646   4
   5   0   4 86.2662 155.737   1
   5   0   4 12.6358 21.8453  16
  -5   0  -4-132.795 208.970   7
   5   0  -4-0.95244 48.0778  14
  -5   0  -4-4.17757 128.657  15
  -5   0   4 23.6216 87.9182   5
   5   0  -5 330.104 175.204   1
   5   0   5 298.519 207.209  14
   5   0   5 146.015 135.409   1
   5   0   5 389.169 213.086   6
  -5   0   5 309.338 179.660   2
  -5   0  -5-43.4133 268.091  15
  -5   0   5 383.461 223.163   5
  -5   0  -5 182.636 195.700  19
  -5   0   5 325.404 145.010  19
   5   0  -5 322.982 179.868  18
   5   0   5 505.873 315.583   8
  -5   0   5 336.365 220.969  17
   5   0  -5 297.940 150.287  14
   5   0  -5 56.9593 76.9884   8
   5   0   5 246.273 144.326  16
   5   0  -5 178.398 153.979  11
  -5   0   5 253.131 119.569   4
  -5   0   6 32.5948 15.7746   5
   5   0   6 11.2601 56.1846   6
   0   5  -6 0.03178 28.1340   3
   5   0  -6-16.4812 64.3231   1
   5   0  -6 11.6337 28.8657  14
   0   5  -6-5.21261 130.405  13
   0  -5   6-47.8532 112.426   6
   5   0  -6-0.22796 104.467  11
   5   0   6 60.0495 70.7569   1
  -5   0   6-9.22531 52.1561  19
   5   0   6-3.59001 24.9387  14
  -5   0  -6-64.0558 158.976  19
   5   0  -6-32.0622 73.5470  18
   5   0   6-24.6336 131.434   8
  -5   0   6-4.45073 59.4629   2
  -5   0   6-30.1966 122.659  17
   5   0   6 33.6316 49.8848  16
  -5   0   6-87.4702 148.457  16
   0   5  -7 4341.82 821.057  13
   0   5  -7 3770.23 535.108  12
   5   0  -7 1766.96 489.532  11
   0   5  -7 6333.41 862.996   3
  -5   0   7 4526.81 712.650   2
   0  -5   7 1607.17 380.747   6
  -5   0   7 4805.47 861.496  17
   5   0  -7 4503.45 567.647  14
   5   0  -7 2612.28 581.088  18
  -5   0   7 577.133 191.107  16
   5   0   7 3904.96 737.708  14
   5   0   7 3942.08 660.773  16
  -5   0   7 4833.20 739.410   5
   5   0   7 4477.03 909.659   8
   5   0   7 3670.48 694.143   6
   5   0  -7 3779.12 653.175   1
   5   0   8-44.4584 107.317   6
   0   5  -8-14.1207 60.9059  12
  -5   0   8-33.5458 108.575   2
   0   5  -8-31.1725 54.3882   3
   5   0  -8-64.7256 154.737  11
   0   5  -8-127.606 263.387  18
  -5   0   8-109.566 191.001   5
   5   0  -8 19.2520 53.2922   1
  -5   0  -8-118.196 277.541  19
   5   0  -8-32.2185 82.6625  18
   5   0   8-22.9577 125.060  16
   5   0   8 6.96429 119.314   8
  -5   0   8 5.18504 130.661  17
   0   5  -8 61.8178 58.4022  13
   0  -5   8 41.0628 57.5732   6
   5   0  -8 4.53624 37.5899  14
  -5   0   8-93.1317 170.244  16
   5   0   8-5.37646 71.4573  14
   0   5  -9 1813.07 518.699  13
   5   0  -9 257.841 157.972  11
   0   5  -9 1504.07 401.082  18
   0  -5   9 797.076 370.943  17
  -5   0   9 1308.69 415.019   2
  -5   0   9 1186.41 347.272   5
   0  -5   9 478.281 155.772  16
   0   5  -9 1863.08 361.884  12
   5   0   9 1291.17 501.935   8
   0  -5   9 1376.75 372.866   6
   0   5  -9 1993.36 497.708   3
  -5   0   9 1311.43 467.301  17
   5   0   9 1244.11 430.586  16
   5   0  -9 807.551 308.551   1
   5   0  -9 476.879 256.398  18
  -5   0   9 150.745 63.4047  16
   5   0  -9 873.748 267.338  14
   5   0   9 949.701 371.595   6
   5   0 -10 55.2755 106.201   1
  -5   0  10-16.5134 109.015   2
  -5   0  10-36.1695 106.761  17
   0   5 -10 38.5093 88.8666   3
   0  -5  10 23.5771 52.0786   6
   0   5 -10 63.2133 140.923  18
   0   5 -10 4.87175 21.6615  12
   0  -5  10-104.764 180.376  16
   5   0 -10-81.6111 214.709  11
   0  -5  10 21.3045 59.8234  17
   0   5 -10-66.8675 117.241  13
   5   0  10 21.8976 76.1557   8
   5   0  10-62.9975 133.193  16
   5   0 -10-5.58126 54.3003  14
   5   0 -10 36.6310 100.035  18
  -5   0  10 5.96864 86.8145  16
   5   0  10 8.14850 83.5968   6
  -5   0  11 15.1977 52.6877   2
   5   0 -11-17.3257 107.893  18
   0  -5  11-58.2712 72.0352   6
   0   5 -11 135.350 71.3537  13
   0  -5  11-39.3394 108.954  16
   0   5 -11-36.9345 128.738   3
   0  -5  11 35.7079 154.439  17
   5   0  11 126.823 245.310   8
   0   5 -11 38.5979 80.2816  12
   5   0 -11-118.455 281.475  11
   5   0 -11-29.2062 108.343   1
   0   5 -11 16.4145 14.6139   4
   5   0  11-10.1879 96.2862  16
   5   0 -11-8.20493 51.0819  14
   0   5 -11-94.7008 107.020  18
  -5   0  11 50.9100 96.7508  16
   5   0  11-183.093 256.815   6
  -5   0  11 29.6001 78.5972  17
   5   0 -12 8.76118 78.7073   1
   0  -5  12 105.782 62.3323  14
   5   0 -12 34.6205 97.6171  14
   0  -5  12 277.701 152.383   6
   0  -5  12 363.728 218.831  17
   0   5 -12 608.809 320.999   3
   0   5 -12 663.792 289.846  12
   0  -5  12 54.2058 116.234   2
   0   5 -12 72.3152 29.2132  18
  -5   0  12-52.0282 105.547   2
   5   0 -12-108.772 246.324  18
   5   0  12-40.6224 354.075   8
   0   5 -12 587.345 526.185  13
   0  -5  12 217.248 243.469  16
  -5   0  12-18.5786 84.1778  17
   0   5 -12 58.3772 68.6173   4
   5   0 -12-169.015 343.455  11
   5   0  12-51.9734 165.913  16
  -5   0  12 74.8743 114.073  16
   5   0  12-215.774 384.534   6
   0  -5  13 780.373 352.459   2
   0   5 -13 797.886 360.355  13
  -5   0  13 739.342 385.410   2
   0  -5  13 785.305 301.868   6
   0   5 -13 917.340 268.802  12
   5   0 -13-123.939 255.296  18
   5   0 -13 185.669 137.535   1
   0  -5  13 882.705 154.634  14
   0   5 -13 768.054 356.083   3
   0   5 -13 903.052 337.089  18
   5   0  13 74.7697 300.120   8
   0  -5  13 1352.33 427.302  17
   0  -5  13 876.308 384.763  16
   5   0  13 615.562 363.737  16
   5   0 -13-121.255 385.913  11
  -5   0  13 683.127 357.158  17
   0   5 -14 333.127 443.508  15
   0   5 -14 560.909 345.832  11
   0   5 -14-2.74397 36.3494   3
  -5   0  14 36.2622 78.9920   2
   0  -5  14 62.6198 152.588   6
   5   0  14 15.6762 81.7370  16
   0   5 -14 226.272 220.366  13
   0  -5  14 3.02166 112.289  16
   0  -5  14 38.2115 140.531  17
   0  -5  14-34.5814 124.550   2
   5   0  14-189.532 411.959   8
   5   0 -14-134.607 277.040  18
   0   5 -14-25.0475 24.4093  12
   0   5 -14 536.080 516.434   7
   0   5 -14-72.7949 62.8441  18
   0   5 -15 432.426 410.765  20
  -5   0  15 229.146 321.610   2
   0  -5  15 301.665 271.853  16
   0   5 -15 211.390 156.154  12
   0  -5  15-42.8448 92.6787   8
   0   5 -15 342.332 305.815  13
   0   5 -15 206.886 229.785   3
   5   0  15 28.3062 101.758  16
   0  -5  15 116.571 154.016   6
   0  -5  15 125.110 132.660   2
   0   5 -15 312.594 393.107  15
   5   0  15-332.000 488.531   8
   0  -5  15 334.667 276.209  17
   0   5 -15 19.4478 126.201  18
   0   5 -15 219.235 343.864   7
   0   5 -15 286.496 245.520  11
   0  -5  16 0.93750 110.856   6
   0  -5  16-79.9520 42.5032  17
   0   5 -16 542.271 373.423  13
   0   5 -16 198.452 248.413  20
   0   5 -16 143.479 194.392   3
   0   5 -16-29.5036 49.5638  11
   0   5 -16 69.8778 119.140  12
   5   0  16 67.0070 253.135  16
   0  -5  16 61.8541 105.401   2
   0   5 -16-21.3428 81.2586  18
   5   0  16-358.237 561.243   8
   0   5 -16 588.487 528.714  10
   0  -5  16-21.6134 71.3852   8
   0  -5  16-13.8317 98.2969  16
   0   5 -16-100.050 328.199   7
   0   5 -16-51.7104 41.4079  15
   0  -5  17 100.866 136.650   6
   0   5 -17 253.018 252.347  20
   0  -5  17 147.342 84.5527   8
   0   5 -17 251.124 293.804   3
   0   5 -17 111.584 227.372  18
   0  -5  17 79.2287 148.020   2
   5   0  17 36.2862 160.423  16
   0   5 -17 412.011 420.172  13
   0   5 -17-401.130 513.674   7
   0   5 -17 336.182 318.304  10
   0  -5  17 408.329 347.328  16
   0   5 -17-338.495 531.651  15
   0  -5  17 344.873 311.650  17
   0   5 -17 248.989 268.218  12
   0   5 -17 355.230 316.422  11
   0  -5  18 43.7564 157.255   6
   0   5 -18 252.403 308.690   3
   0   5 -18-40.5871 54.5292  11
   0   5 -18 453.874 373.721  20
   0  -5  18 31.0628 133.720   2
   0   5 -18 45.8035 160.742  10
   0   5 -18-22.8096 141.132  18
   0  -5  18 78.1703 200.948  17
   0  -5  18-32.0394 104.999   8
   0  -5  18 152.102 230.780  16
   0   5 -18 119.928 194.482  12
   0   5 -19 1142.01 442.649  12
   0   5 -19 879.285 438.253   3
   0   5 -19 1381.51 549.429  11
   0   5 -19 999.866 397.000  18
   0   5 -19 598.455 608.562  20
   0   5 -19 951.326 423.996  10
   0  -5  19 1770.74 715.104   2
   0  -5  19 586.425 367.275   6
   0   5 -19 1656.12 650.142   9
   0  -5  19 2190.10 616.132  17
   0  -5  19 1808.24 741.126  16
   0  -5  20 42.2052 152.515   6
   0  -5  20 327.192 251.650  17
   0   5 -20 641.853 417.964  12
   0   5 -20 36.4737 88.2996  18
   0  -5  20 265.867 280.305  16
   0   5 -20 723.246 488.864   3
   0   5 -20 302.994 311.903  11
   0   5 -20 592.153 476.551  10
   0  -5  20 43.0936 217.594   2
   0   5 -20 141.802 507.834  20
   0   5 -20 616.975 415.821   9
   5   1   0 64.4190 53.0841  14
   5   1   0 115.212 138.622   1
  -5   1   0 89.4081 55.5509   2
   5  -1   0 113.728 78.1384   1
   5  -1   0 156.139 104.089   6
   5   1   0 178.609 171.794   8
  -5   1   0 188.024 129.397   4
   5  -1   0 109.643 97.2705  14
   5   1   0 138.749 106.097  18
  -5   1   0 75.0140 53.3202  12
  -5  -1   0 28.1729 61.3704  17
  -5  -1   0 113.485 86.2733   5
   5   1   0 25.3712 4.49430   6
  -5   1   0 126.865 109.468  19
  -5   1   0 28.4087 48.6848  17
  -5  -1   0 64.5798 50.2274  19
   5  -1   0 77.5592 57.7609  18
  -5  -1   0 35.3747 35.9603   4
   5  -1   0 99.3175 55.8644   8
  -5   1   0 173.535 133.682   5
   5  -1  -1 3079.02 498.448  14
   5   1  -1 3529.84 531.647  18
  -5   1   1 2942.62 525.317   4
   5  -1   1 3600.11 481.145   6
   5   1  -1 2426.46 491.024  14
  -5   1  -1 2585.01 387.526  12
  -5   1   1 960.504 217.075  12
   5   1  -1 3706.56 617.919   1
  -5   1  -1 2912.89 306.710   2
  -5  -1  -1 684.838 315.302   4
   5  -1   1 3074.49 490.008   1
  -5   1  -1 3303.76 533.302  19
  -5  -1   1 2346.20 567.074   5
  -5   1   1 2075.89 332.086   2
  -5   1  -1 3196.32 562.018   5
   5  -1  -1 2858.87 484.917   1
  -5   1   1 2958.71 550.240   5
  -5  -1   1 2312.82 435.741   2
  -5   1   1 3251.61 515.775  19
  -5  -1   1 1800.22 446.678  17
   5  -1  -1 2868.46 537.265   8
   5  -1  -1 981.022 276.472  18
   5  -1   1 1522.56 296.656  18
  -5  -1  -1 817.209 295.439  19
   5   1  -1 4173.84 662.235   8
   5   1  -1 1353.55 250.966   6
   5   1   1 3034.37 471.425  18
  -5  -1   1 1829.34 452.855   4
   5   1   1 3324.10 645.529   8
   5   1   1 2922.55 573.529   1
   5   1   1 2027.95 474.686  14
  -5  -1  -1 1016.93 333.322  17
  -5   1  -1 947.577 255.774  17
  -5   1   1 1090.64 324.698  17
   5  -1   1 3420.33 609.810   8
  -5   1  -1 3028.91 541.786   4
  -5  -1   1 1830.05 421.289  19
   5  -1   1 3552.94 536.944  14
   5   1   1 1007.02 263.788   6
  -5   1  -1 1026.71 238.620   3
   5   1  -1 2317.00 310.913  13
   5  -1  -1 3168.27 407.012   6
   5   1  -2-22.9129 62.6071  14
   5  -1   2 32.1831 57.2689   6
   5   1   2 21.0444 79.9190  14
   5  -1  -2-12.6380 43.9376  14
  -5   1   2-4.30221 18.8066  19
   5   1   2-14.4137 100.513  18
   5   1  -2 18.8200 35.6431  13
  -5   1   2 16.8332 64.0647   5
  -5   1  -2 27.2601 52.3193   3
   5  -1  -2 3.14298 33.0525  18
   5   1  -2 45.8951 82.4873   8
  -5  -1   2 42.7342 30.0795  12
  -5   1  -2-9.68461 55.6434  12
   5  -1  -2-24.1838 69.9025   6
   5  -1  -2 29.4661 59.5323   1
   5   1  -2 54.6758 100.946   1
   5   1  -2 0.11453 35.1561   6
  -5   1  -2 11.2357 17.7297   2
   5   1   2 17.5152 22.8313   1
  -5   1   2-19.2095 88.3711   2
  -5  -1   2-28.8556 89.6543   4
   5   1  -2-4.37244 39.7196  18
  -5  -1   2 2.67290 50.7295   2
   5  -1   2 22.0288 22.0212  18
   5   1   2-19.1241 56.9833   8
   5  -1   2 31.8172 66.8507   1
  -5  -1   2 45.7698 71.6304   5
  -5  -1   2-11.8818 51.3965  17
  -5  -1   2 48.5128 57.5145  19
   5  -1   2 86.0465 173.794   8
  -5   1  -2-1.85598 17.3683  17
  -5   1   2-13.6605 101.654  17
  -5   1  -2 26.7133 43.5433  19
  -5  -1  -2-17.1022 63.6967  19
  -5   1  -2 8.28866 48.6045   4
   5  -1  -2 33.3556 67.6041   8
   5  -1   2-6.19961 43.9851  14
  -5  -1   2-49.3701 86.9531   7
  -5   1   2-7.50266 98.7572   4
  -5  -1   2-9.78078 71.6266  15
  -5   1  -2 22.6720 65.9467   5
   5   1   2 3.17301 33.6542   6
   5  -1   3 32.1284 14.2675  16
   5   1  -3 57.4285 70.6546  14
   5  -1   3 125.715 98.1371  14
   5  -1   3 168.942 140.723   6
  -5   1  -3 96.0990 127.916  12
   5  -1   3 76.8790 53.8384  18
   5   1   3-17.2742 114.482   8
  -5   1  -3 84.5681 78.0466   3
   5  -1   3 115.130 83.7871   8
  -5  -1   3 40.9250 29.1947  12
  -5   1   3 83.8566 70.7989  19
   5   1  -3 216.914 168.594  11
   5   1  -3 103.604 71.3837  10
  -5   1  -3 27.2588 67.7911   4
  -5  -1  -3-17.9489 93.5587  19
   5  -1   3 126.231 110.532   1
  -5   1  -3 79.3056 40.6528   5
   5   1   3-26.6605 33.9703   1
   5   1  -3 73.0196 92.5240  18
   5   1  -3 126.045 124.708   1
  -5  -1   3 87.7011 105.425  19
  -5  -1   3 198.576 111.785   7
  -5   1   3-26.4208 117.220   2
  -5   1   3 26.8683 17.0056   5
  -5  -1   3 105.352 103.477   2
   5  -1  -3 15.3683 24.8517  18
  -5   1  -3 19.1587 31.9676  17
   5  -1  -3 13.1229 57.9790   8
   5   1  -3 48.5349 32.0441   6
  -5  -1   3 117.560 117.516  17
   5   1  -3 99.6755 76.5390   8
  -5  -1   3 54.2152 63.2409   4
  -5   1   3 10.8935 59.0212  17
  -5   1  -3 96.0593 107.689  19
   5  -1  -3 80.4834 93.8352  14
   5  -1  -3 8.43640 41.8913   1
  -5  -1   3 12.1772 40.2540   5
  -5  -1   3 181.219 104.837  15
   5   1   3 36.0870 36.3989   6
   5   1   3 46.6353 4.26193  14
  -5   1  -4 994.815 324.855  19
  -5   1   4 507.914 168.898   2
  -5  -1   4 1384.80 426.838   5
  -5  -1   4 1226.82 393.479  17
   5   1  -4 743.550 188.455  10
  -5   1   4 1164.78 301.639  19
   5   1   4 848.659 349.951   8
   5  -1  -4 148.788 75.3132   8
  -5   1  -4 1175.07 381.731   4
   5  -1   4 1771.28 377.149   1
   5  -1  -4 205.475 142.234  18
  -5   1  -4 1344.97 392.092   5
   5   1  -4 2018.04 455.444  11
  -5   1   4 637.284 301.779  17
   5  -1  -4 889.744 296.216   1
  -5  -1   4 1405.87 383.327   4
  -5  -1   4 1358.68 325.232  19
  -5   1  -4 445.913 120.462  17
   5   1   4 580.733 277.936   1
   5   1  -4 1472.11 336.992   8
   5   1  -4 1693.82 371.302   9
   5  -1   4 1823.94 411.041  14
  -5   1  -4 1092.54 203.507  10
   5  -1   4 2121.19 530.388   8
  -5   1  -4 1448.35 321.073  20
   5  -1   4 1659.59 345.433  16
   5   1  -4 1563.53 395.562  18
   5   1   4 272.560 135.330   6
   5  -1   4 1213.20 185.513  18
  -5  -1   4 1473.16 221.458  16
   5  -1   4 1872.91 404.664   6
   5   1  -4 1532.98 391.231   1
   5   1  -4 1264.54 330.949  14
   5  -1  -4 1047.89 284.299  14
   5   1   4 708.305 315.636  14
  -5  -1   4 1479.46 369.511   2
  -5   1   4 996.185 309.846   5
   5   1  -5 260.107 120.613  10
   5  -1   5 719.248 325.327   8
   5   1   5 200.256 146.174  14
   5  -1  -5 324.496 162.490  14
  -5   1  -5 339.552 192.656   5
   1   5  -5 200.850 20.3526  13
  -5   1  -5 69.7319 44.3318   9
  -5  -1   5 604.388 275.674   5
   5  -1   5 735.745 258.013   6
   5   1  -5 529.999 236.961  18
  -5   1  -5 394.279 186.187  20
   5   1  -5 634.912 264.909  11
  -5   1  -5 340.385 208.918   4
  -5   1   5 432.882 168.464  19
   5   1  -5 606.050 249.996   1
   5   1   5 203.705 111.816   8
   5  -1  -5 288.025 179.063   1
   5  -1  -5 30.6924 87.3251  18
  -5  -1   5 669.033 255.337   2
  -5  -1   5 592.559 215.789  19
  -5  -1   5 494.525 238.131  17
   5   1  -5 559.946 209.868   8
   5   1  -5 489.689 209.148   9
  -5  -1   5 628.129 166.453  16
  -5   1   5 294.785 182.708  17
  -5   1  -5 408.562 195.298  19
  -5  -1   5 598.289 233.996   4
   5  -1   5 722.935 241.016  16
  -5   1  -5 292.333 106.336  10
  -5   1  -5 774.336 409.161  15
   5  -1   5 747.286 285.970  14
   5  -1   5 751.759 251.128   1
   5   1   5 31.2949 163.669   6
   5   1  -5 502.089 202.411  14
  -5   1  -6 2473.25 688.310   7
  -5  -1   6 2522.49 417.639  19
   5   1  -6 455.249 187.357  10
   1   5  -6 1836.77 529.226  13
  -1   5  -6 1912.82 476.033   3
  -1   5  -6 1765.23 369.085  12
  -5   1  -6 1321.91 365.863  20
  -5  -1   6 1972.87 536.712  17
   1  -5   6 311.406 172.849   6
   5   1  -6 2383.04 507.379   1
  -5  -1   6 2386.01 541.933   5
   5   1  -6 2483.23 568.454  11
   5  -1  -6 928.490 314.514   1
   5   1  -6 1220.69 346.516   9
  -5   1  -6 2111.42 633.915  15
   5   1  -6 1995.83 394.750  14
   5   1   6 708.639 50.6604   8
  -5  -1   6 2608.14 526.039   2
   5   1  -6 2013.67 471.767  18
  -1   5  -6 847.079 345.517  13
  -5   1   6 1165.44 401.202  17
   5   1  -6 1340.19 319.207   8
   5  -1  -6 168.830 115.807  18
   5  -1   6 2960.14 656.614   8
  -5   1  -6 1070.57 382.828   4
  -5  -1   6 2316.13 445.403   4
  -5   1  -6 670.608 189.973  10
   5  -1   6 2752.69 505.641  16
  -5  -1   6 1969.20 340.655  16
   5  -1   6 1718.10 418.218   1
   5  -1  -6 1052.96 293.649  14
  -5   1  -6 1253.74 380.431  19
   1   5  -6 1746.38 431.807   3
   5  -1   6 2665.40 536.755   6
   5  -1   6 2581.14 535.791  14
   5   1   6 404.092 153.578   6
   5  -1   7 563.460 266.717  14
   5   1  -7 460.869 193.308  14
   5  -1   7 611.019 274.600   6
  -1   5  -7 639.385 277.057   3
   5  -1  -7 210.965 137.339  14
  -1   5  -7 417.842 250.893  13
   5  -1   7 724.072 317.635   8
  -5  -1   7 643.256 223.582   4
   1  -5   7 211.177 146.520   6
  -5  -1   7 561.397 275.358  17
   5   1  -7 450.322 211.833   1
   5  -1   7 107.564 20.2287   1
  -1  -5   7 73.1226 80.1067   6
  -5   1  -7 203.356 131.725  20
   5   1  -7 533.925 249.471  11
   1   5  -7 649.592 274.887   3
   5   1  -7 249.987 173.532   9
   5   1  -7 188.804 131.983  10
  -5  -1   7 438.234 176.055  19
  -5   1   7 135.208 100.042  17
  -5   1  -7 49.2257 39.7176   4
   5   1  -7 485.127 245.160  18
   5  -1  -7-32.0118 180.451  18
   5   1   7-6.04265 389.862   8
  -1   5  -7 506.794 203.806  12
  -5  -1   7 657.279 270.917   5
   1   5  -7 584.316 300.668  13
   5  -1   7 543.116 243.484  16
   5  -1  -7 97.2917 46.1479   1
  -5  -1   7 594.322 251.243   2
  -5  -1   7 439.146 162.184  16
  -5   1  -7 386.357 247.440   7
  -5   1  -7 112.214 47.2361  10
   5   1   7-50.4879 229.195  16
  -5   1  -7 387.996 244.458  15
  -5   1  -7 241.542 150.988  19
  -1  -5   8 1676.76 388.802   6
  -5   1  -8 974.527 359.424  19
   1  -5   8 1954.41 434.469   6
  -1   5  -8 3245.98 517.638  12
   1   5  -8 2351.15 390.808  12
  -5   1  -8 1077.96 450.940   7
  -5  -1   8 3153.06 731.123  17
   5   1  -8 2731.85 561.490   1
  -5  -1   8 2996.20 597.445   5
   5   1  -8 2634.54 639.044  11
  -1   5  -8 2838.09 641.654  13
   5  -1   8 2914.17 288.713   2
   5   1  -8 2576.51 576.303  18
  -5   1   8 1691.88 524.692  17
   1   5  -8 2396.85 555.407  18
  -5  -1   8 3322.73 631.302   2
   5   1  -8 1134.75 387.121   9
  -5   1  -8 21.9552 165.860   9
  -1   5  -8 3903.33 705.734   3
   1   5  -8 3767.02 738.868  13
   5  -1   8 3249.40 623.942  16
  -5  -1   8 2498.13 461.823  16
   5  -1  -8 79.1317 149.288  18
  -5   1  -8 941.982 361.978  20
  -5  -1   8 2937.60 479.542   4
   5   1   8 327.057 120.805  16
  -5   1  -8 363.610 180.431  10
  -5   1  -8 1381.70 556.516  15
   5  -1   8 3095.91 634.888   6
  -5  -1   8 2018.83 359.983  19
   5  -1   8 3973.95 810.588   8
   5  -1  -8 662.257 252.636   1
   5  -1   8 3165.59 635.673  14
   1   5  -8 4082.30 671.838   3
   5   1  -8 2509.52 435.852  14
   1   5  -9 1143.84 430.653  13
   5  -1   9 993.573 381.404   6
   5  -1   9 899.100 183.856   2
   5  -1   9 876.450 341.784  14
  -1   5  -9 986.886 300.839  18
  -1   5  -9 1366.41 407.212   3
  -5   1  -9 93.1902 57.2815  20
  -1   5  -9 1201.62 291.375  12
   1  -5   9 900.318 303.490   6
  -5  -1   9 706.524 228.383   4
  -1   5  -9 892.828 344.440  13
  -5  -1   9 1066.42 375.070   5
   5   1  -9 804.767 335.681  11
   1  -5   9 350.928 127.403  16
   5   1  -9-288.051 287.694  10
  -5  -1   9 745.623 257.865  16
  -5   1  -9-23.2948 312.047  15
  -1  -5   9 784.347 280.219   6
  -5   1  -9-0.68065 167.912  10
   1   5  -9 1012.13 259.806  12
   1   5  -9 1319.61 393.131   3
   5   1  -9 726.156 305.539  18
   5   1  -9 847.348 317.905   1
   5   1  -9 236.161 118.154   9
   5  -1   9 1421.54 499.369   8
  -1  -5   9 609.058 371.699  17
  -5   1  -9-69.4758 267.811   7
   5  -1   9 1159.08 414.279  16
  -5  -1   9 1077.72 403.368  17
  -1  -5   9 256.531 28.0499  16
  -5   1  -9 166.532 191.664  19
   1   5  -9 865.839 338.641  18
  -5  -1   9 1002.72 358.544   2
   5   1  -9 785.564 238.237  14
  -5  -1  10 255.737 195.873   2
   5  -1  10 269.253 198.842   6
   5  -1  10 213.773 98.7187   2
   1  -5  10 34.2086 79.0791  14
  -1   5 -10 317.774 199.223  13
   1   5 -10 381.138 243.672  13
  -1   5 -10 489.882 202.084  12
   1   5 -10 233.396 112.904  12
   1   5 -10 408.705 250.597   3
   1  -5  10 371.350 174.509   6
  -5   1 -10-112.435 295.612  20
  -5  -1  10 361.887 196.537  17
  -1  -5  10 91.3485 56.2841  16
   5  -1  10 406.171 306.053   8
  -5  -1  10 332.990 217.719   5
  -1   5 -10 361.067 173.433  18
   5   1 -10-98.8503 196.988   9
  -5   1 -10-142.897 282.751  10
   5   1 -10 222.972 192.330   1
   5   1 -10 231.988 195.547  18
   1  -5  10 246.916 167.338  16
   1  -5  10 389.384 264.852  17
  -1  -5  10 216.227 195.031  17
   1   5 -10 298.647 220.155  18
   5   1 -10 128.103 148.172  11
  -1  -5  10 311.776 169.288   6
  -5   1 -10 16.6784 64.4852  19
   5  -1  10 290.429 202.367  16
  -1   5 -10 318.221 112.515   4
  -5  -1  10 194.165 175.449  16
  -1   5 -10 532.316 246.745   3
   5  -1  10 135.484 94.6631  14
   5   1 -10 183.960 112.625  14
   5  -1  11 586.995 281.417   6
   5   1 -11-146.125 223.660   9
  -1   5 -11 808.116 201.008   4
   5  -1  11 611.708 167.408   2
  -1   5 -11 873.603 271.552  18
   1   5 -11 796.209 360.255  13
   1   5 -11 848.575 312.894   3
   5  -1  11 719.392 344.292   8
   1   5 -11 621.052 232.669  18
  -5  -1  11 850.776 408.825  17
   1  -5  11 781.790 292.390  17
  -1   5 -11 510.642 216.180  13
  -5   1 -11-50.6790 127.754  19
   1  -5  11 549.452 146.225  14
   5   1 -11 462.677 259.798   1
  -1  -5  11 640.947 307.281  17
  -5  -1  11 584.399 268.787   5
   5   1 -11 348.542 229.106  18
  -1   5 -11 740.377 306.216   3
   5   1 -11 339.993 225.211  11
   1   5 -11 802.431 243.132  12
   5   1 -11 381.317 161.015  14
  -1  -5  11 510.690 237.852   6
  -1  -5  11 401.644 237.900  16
   1  -5  11 422.470 237.270  16
   1  -5  11 667.519 270.178   6
   5  -1  11 700.984 318.760  16
  -5  -1  11 396.936 222.039  16
  -5  -1  11 690.147 279.037   2
   5  -1  11 343.375 215.056  14
  -1   5 -11 868.625 248.473  12
  -5   1 -12-4.57078 46.7117  19
   5   1 -12-3.19458 74.3011   1
   5  -1  12 48.3603 57.6763   2
   5   1 -12 39.6706 57.2620  11
   1  -5  12 131.623 61.1869  14
   1  -5  12 184.406 166.919   6
   1  -5  12 393.623 314.698  16
  -1  -5  12 155.037 186.232   6
  -5  -1  12 53.5357 141.080   5
   1   5 -12 362.249 391.409  13
   1   5 -12 299.651 267.266   3
  -1   5 -12 509.189 267.058  18
  -1  -5  12 26.8992 130.425  16
  -5  -1  12 27.1662 96.4525  17
  -1   5 -12 1593.46 657.830  13
   1   5 -12 276.339 206.447  12
  -1   5 -12 586.221 259.965   4
  -1  -5  12 224.941 334.656   2
   5  -1  12 3.49087 50.5062  16
   5   1 -12-53.1847 54.9920  18
  -1  -5  12 524.083 378.182  17
   5  -1  12 96.1632 195.875   8
   5   1 -12-34.8043 54.9155  14
   5  -1  12 60.8825 159.056   6
   1   5 -12 100.307 215.091  18
   1  -5  12 143.102 197.653  17
   1  -5  12 273.101 102.284   8
  -5  -1  12 92.2609 152.382  16
  -5  -1  12 138.205 183.670   2
   5   1 -12 58.9891 98.9717   9
  -1   5 -12 1620.79 543.841   3
   5  -1  13 554.184 320.081   6
   5   1 -13 285.159 253.417  18
   1  -5  13 983.765 199.806  14
   1  -5  13 618.807 293.679   6
   5   1 -13 439.364 170.021  14
  -5  -1  13 825.096 374.289   2
   1   5 -13 885.191 425.416  13
   1   5 -13 1031.98 284.366  12
   5   1 -13 343.871 192.580   1
   5  -1  13 743.217 222.546   2
  -1  -5  13 1093.82 418.595  17
  -1  -5  13 521.144 276.524   6
  -1  -5  13 804.363 373.329  16
  -1  -5  13 708.468 417.389   2
   1   5 -13 943.749 366.970  18
   1  -5  13 1191.65 372.975  17
   5  -1  13 967.784 468.498   8
  -1   5 -13 110.669 125.625   4
  -1   5 -13 1209.09 319.147  18
   5   1 -13 367.826 273.170  11
  -5   1 -13-5.52246 112.942  19
   1  -5  13 458.449 172.356   8
   1  -5  13 749.347 317.510   2
  -1   5 -13 843.969 365.772  13
  -1   5 -13 852.770 362.984   3
   1  -5  13 991.438 411.186  16
  -5  -1  13 966.314 467.976  17
  -1   5 -13 919.536 269.088  12
   1   5 -13 968.698 355.729   3
   5   1 -13-71.4804 256.009   9
   5  -1  13 787.626 363.348  16
  -5  -1  13 654.097 335.010  16
  -5  -1  13 791.407 319.191   5
   5  -1  14 710.508 252.898   2
   5   1 -14 241.816 144.261  14
  -1  -5  14 833.963 375.728  17
  -1  -5  14 349.946 197.621   6
  -1  -5  14 721.905 364.780  16
   1  -5  14 531.874 282.904   6
   5   1 -14 158.253 135.028  18
  -1   5 -14 373.388 243.517  13
   1   5 -14 491.985 298.158  13
  -1   5 -14 802.017 265.956  12
  -5  -1  14 640.821 337.879   2
   1   5 -14 760.339 333.935   3
  -1   5 -14 616.237 334.264   3
   1   5 -14 1641.54 582.456  11
  -1   5 -14 1489.27 504.125  11
  -1   5 -14 782.675 260.210  18
   5   1 -14 216.488 138.455  11
   1   5 -14 526.551 330.203  18
  -1  -5  14 600.509 385.880   2
  -5  -1  14 570.882 273.951   5
   1  -5  14 654.650 312.694   2
  -5   1 -14-49.8963 106.210  19
   1   5 -14 906.805 274.189  12
   5  -1  14 632.047 370.956   8
   1  -5  14 1096.49 366.930  17
  -5  -1  14 642.251 348.673  17
   5   1 -14 319.154 193.932   1
   1  -5  14 504.570 175.323   8
   1  -5  14 841.389 405.813  16
   5   1 -14-222.211 312.456   9
   5  -1  14 572.828 392.559  16
  -5  -1  14 500.889 269.353  16
   1   5 -14 1311.94 659.898   7
   1   5 -14 794.599 512.043  15
  -1   5 -14 1458.73 734.073  15
   1  -5  14 717.682 172.637  14
   5  -1  14 405.365 247.711   6
   1  -5  15 303.133 120.113  14
   1   5 -15 658.156 321.747   3
   1  -5  15 837.085 342.007  17
   5  -1  15 531.763 217.798   2
   1  -5  15 745.471 312.434   6
   5   1 -15 197.637 111.345  14
   1   5 -15 465.231 538.841  20
  -5  -1  15 431.579 225.531   5
  -1   5 -15 684.122 357.140  13
   1   5 -15 534.645 325.925  13
  -1   5 -15 724.455 280.587  12
   1  -5  15 515.969 292.203   2
  -1   5 -15 428.761 496.447  20
   1   5 -15 648.078 252.454  12
   1   5 -15 837.805 387.505  11
  -1   5 -15 1323.72 455.693  11
   1   5 -15-75.1717 161.941   1
  -5  -1  15 952.239 525.558  17
   5   1 -15 107.548 66.3924  11
  -1   5 -15 607.008 308.791   3
  -5   1 -15-198.755 262.931  19
  -1  -5  15 778.273 433.001   2
   5   1 -15-492.247 463.486   9
   5   1 -15 147.081 95.0967   1
   1  -5  15 429.761 170.738   8
  -1  -5  15 239.917 153.359   6
   1   5 -15 466.677 359.272   7
   5   1 -15 235.092 229.494  18
   5  -1  15 733.477 447.401   8
   1   5 -15 479.414 337.189  18
  -1  -5  15 897.533 405.723  17
   5  -1  15 286.581 152.126   6
  -1  -5  15 684.746 404.919  16
   1  -5  15 727.603 392.706  16
   5  -1  15 717.438 416.762  16
  -5  -1  15 688.589 351.994  16
  -1   5 -15 994.572 641.315   7
   1   5 -15 513.251 381.789  15
  -1   5 -15 800.777 542.866  15
  -5  -1  15 708.541 378.253   2
  -1   5 -15 730.284 268.645  18
  -1   5 -16-47.8087 54.3355  11
  -1  -5  16 118.314 191.345   6
   1  -5  16-78.3724 107.137  14
  -1   5 -16 421.597 352.852  13
   1   5 -16 371.841 381.717  13
   1   5 -16 512.365 475.036  10
  -1   5 -16-28.9632 76.1348  15
  -1   5 -16 201.903 274.491   3
   1  -5  16-40.9976 155.732  17
   5   1 -16-0.37379 134.998  18
   5  -1  16-89.1012 216.960  16
   1  -5  16 151.753 129.609   6
   5   1 -16-116.495 282.674  11
  -5   1 -16-368.620 344.712  19
   5   1 -16-12.7650 69.1711  14
   1  -5  16 92.6231 97.4972   2
   1   5 -16-186.071 532.971  15
  -1  -5  16 184.986 300.392   2
   5   1 -16-67.0277 159.428   1
  -1   5 -16 81.0880 50.9641  18
   5  -1  16-136.284 206.597   8
  -1   5 -16 894.145 610.764  10
   1   5 -16 70.9246 128.859  11
   1  -5  16-63.3463 112.632   8
  -1   5 -16 170.360 296.336  20
  -1  -5  16-91.9792 214.491  17
  -5  -1  16-23.3905 178.797   5
   1   5 -16-69.8338 52.1316  12
   1  -5  16 16.9889 148.190  16
  -1  -5  16 104.839 115.614  16
  -5  -1  16 126.549 204.719   2
   1   5 -16-244.028 541.838   7
  -1   5 -16 86.5864 187.249  12
  -5  -1  16 65.8051 74.7493  17
  -5  -1  16 183.610 274.571  16
  -1   5 -16 192.210 170.760   7
   5  -1  16 11.9011 103.511   2
   1   5 -16 119.431 170.369   3
   1   5 -16-30.8489 116.136   1
   5  -1  16-695.570 402.082   6
   1   5 -16 32.0444 49.0373  18
   1   5 -16 226.930 415.305  20
  -1   5 -17 229.271 143.695  15
   5  -1  17 668.547 273.276   2
   1  -5  17 585.743 326.067   6
   5  -1  17 652.668 450.928   8
   1   5 -17 719.074 429.385  10
   1   5 -17-104.716 157.744   1
  -5  -1  17 414.654 141.235   5
  -1  -5  17 333.341 222.489   6
  -1  -5  17 1031.00 498.026  16
   1   5 -17 454.496 339.549  18
  -1   5 -17 538.765 307.789  12
  -1   5 -17 610.139 412.038  13
   1   5 -17 744.985 438.393  13
   1   5 -17 613.036 281.019  12
   1   5 -17 801.160 411.532   3
  -1   5 -17 670.686 392.137   3
  -5  -1  17 493.328 358.722  16
   1   5 -17 928.335 436.208  11
  -1   5 -17 902.012 388.186  11
   5   1 -17-34.4423 323.758  11
   1  -5  17 1029.02 481.440   2
  -5   1 -17-304.133 357.410  19
  -1  -5  17 1033.04 486.117   2
   1  -5  17 879.221 376.697  17
  -1   5 -17 772.545 451.890  10
   5   1 -17 101.882 144.319   1
  -1  -5  17 969.616 412.744  17
  -5  -1  17 649.444 363.843  17
   1  -5  17 784.517 256.983   8
   1  -5  17 1101.42 491.226  16
  -1   5 -17 632.858 267.290  18
  -1   5 -17 248.209 193.810   7
   5  -1  17 715.682 475.892  16
  -5  -1  17 549.648 399.506   2
   5   1 -17-70.8576 269.290  18
   1   5 -17 146.493 363.994  20
  -1   5 -17 675.944 559.329  20
   5   1 -17 97.9422 99.0392  14
   1   5 -18 224.705 388.763  20
  -1  -5  18 122.114 49.4987   6
   1  -5  18 531.700 419.632  16
   5  -1  18 437.128 250.972   2
   1  -5  18 557.149 317.899   2
   1   5 -18 159.362 218.242  18
  -5  -1  18 652.980 451.482   2
  -1   5 -18 562.041 360.636  12
  -1   5 -18 747.767 486.427  13
   1   5 -18 547.549 320.567  12
   1   5 -18 539.856 356.227   3
  -1   5 -18 791.518 474.018   3
  -1   5 -18 859.771 416.090  11
  -1   5 -18 488.923 555.768  20
  -1   5 -18 306.954 220.917  18
  -1   5 -18 1604.99 711.925   9
  -5   1 -18-292.652 401.318  19
   5   1 -18 45.2592 168.913   1
  -5  -1  18 226.558 43.8453   5
  -1  -5  18 603.977 373.543  17
  -5  -1  18 222.901 305.154  16
  -1  -5  18 686.897 430.116   2
   1   5 -18 395.349 282.163  11
   5   1 -18-308.395 528.098  11
   1  -5  18 384.329 242.248   6
   1  -5  18 774.065 383.736  17
  -1   5 -18 829.093 523.859  10
  -5  -1  18 78.5119 124.330  17
   1  -5  18 607.895 283.772   8
   1   5 -18 1467.53 696.141   9
  -1  -5  18 656.819 396.998  16
  -1   5 -18-935.082 764.941   7
   5  -1  18 539.777 384.573  16
   5   1 -18-157.381 360.807  18
   5  -1  18 294.489 230.000   8
   1   5 -18 420.073 369.374  10
  -1  -5  19 428.165 293.671   6
   1  -5  19 1349.62 544.369  17
   5  -1  19 494.495 300.367   2
   1   5 -19 838.097 389.733  10
  -5   1 -19-475.830 415.281  19
  -1   5 -19 590.260 446.234  12
  -1  -5  19 1206.46 663.674  17
  -1  -5  19 1350.12 565.984  16
   1   5 -19 647.882 450.735   3
  -1   5 -19 599.545 426.240   3
   1   5 -19 914.628 449.648  11
  -1   5 -19 845.500 411.503  11
   1   5 -19 1515.99 597.406   9
  -1   5 -19 489.679 697.952  20
   5  -1  19 616.109 338.830   8
   1  -5  19 990.322 494.635   2
  -1  -5  19 1396.29 661.056   2
  -1   5 -19 2015.19 769.118   9
  -1   5 -19 956.010 587.166  10
   1  -5  19 1172.77 466.854   8
   1   5 -19 498.756 336.075  18
   5   1 -19 52.0076 140.531   1
   1   5 -19 837.409 409.394  12
   1   5 -19 1067.12 625.377  20
  -5  -1  19 457.604 371.570  16
  -1   5 -19 497.955 314.849  18
  -5  -1  19-433.914 353.157  17
   1  -5  19 1319.67 655.594  16
   1  -5  19 290.550 259.542   6
   5  -1  19 1066.94 559.797  16
  -5  -1  19 791.079 497.065   2
   1  -5  20 722.234 448.606   6
   1  -5  20 2220.13 796.083  16
  -1   5 -20 1158.03 478.382  11
  -1   5 -20 1545.59 581.177  12
   1   5 -20 1294.02 518.567  12
  -1  -5  20 2222.57 788.222   2
  -1   5 -20 787.449 365.212  18
   5  -1  20 1607.39 662.735   8
   1   5 -20 1074.43 546.283   3
  -1   5 -20 1194.34 587.218   3
   1   5 -20 1496.91 667.966  10
   1   5 -20 1379.60 529.129  11
   5  -1  20 1924.21 581.698   2
  -1   5 -20 923.449 743.222  20
   1  -5  20 2505.00 668.764  17
  -1   5 -20 1523.28 611.067  10
   1  -5  20 2279.17 757.798   2
  -1  -5  20 191.778 81.0006   6
   1   5 -20 751.431 451.680  18
  -1  -5  20 1894.33 663.303  17
   1   5 -20 942.912 594.714  20
  -1  -5  20 1894.77 713.194  16
  -5  -1  20 1375.53 635.172  16
  -5   1 -20-385.032 377.269  19
   5  -2   0 3254.99 602.203   8
   5   2   0 3723.19 712.928   1
  -5   2   0 1856.21 347.342  12
  -5   2   0 3624.11 585.261   5
   5  -2   0 3038.78 493.038   1
  -5  -2   0 2.22177 200.508  19
  -5   2   0 4527.82 612.544  19
   5  -2   0 3912.77 570.742  14
   5   2   0 3577.80 616.213  18
   5   2   0 2849.86 607.064   8
   5   2   0 1360.92 413.116  14
   5  -2   0 3048.16 462.707   6
   5  -2   1 407.085 176.180   1
   5  -2   1 498.387 209.955  14
   5  -2   1 484.030 196.664   6
   5   2   1 294.008 209.513   1
  -5  -2   1 127.680 231.492  17
  -5   2  -1 427.363 212.368   5
  -5  -2   1 50.7908 41.9788  19
  -5   2  -1 295.155 139.621  12
   5   2  -1 374.857 164.918  18
   5  -2   1 337.730 178.001   8
   5   2   1 55.2535 192.722   8
   5   2  -1 365.533 215.543   8
  -5   2  -1 466.202 203.252  19
   5  -2  -1 358.141 167.205  14
   5   2  -1 354.353 211.835   1
   5  -2  -1 179.047 130.744   8
  -5   2   1 494.794 203.825  19
  -5   2  -1 350.222 186.059   4
   5  -2  -1 206.887 127.003   1
   5   2  -1 184.798 141.983  14
   5  -2   2 3310.03 614.860   8
   5  -2   2 3653.29 529.402   6
  -5   2  -2 3144.79 543.124   5
   5   2  -2 2438.42 408.750  13
   5   2  -2 2958.64 630.721   1
  -5   2  -2 2805.60 444.355  12
   5  -2   2 3014.98 468.504   1
   5  -2  -2 1175.40 313.085   1
  -5   2   2 2592.76 471.522  19
  -5   2  -2 1336.86 325.489   3
   5   2  -2 3469.57 593.161  18
   5   2  -2 3370.73 607.196   8
   5  -2  -2 513.818 193.891   8
  -5   2  -2 2984.05 536.812   4
  -5   2  -2 3359.95 538.549  19
   5  -2   2 3389.60 530.965  14
  -5  -2   2 1002.22 321.992  19
  -5  -2   2 1323.86 430.218  17
   5   2  -2 1020.73 345.984  14
   5   2   2 1187.80 414.674   1
   5  -2  -2 1602.28 367.936  14
  -5   2  -3 3127.75 493.033  12
   5   2  -3 3528.37 658.449   1
  -5  -2   3 2110.28 551.511   5
  -5   2  -3 3674.52 575.608  19
   5  -2   3 3702.47 503.563   1
  -5   2  -3 3359.40 572.063   5
  -5  -2   3 2587.37 531.970   2
   5  -2  -3 866.201 256.599   1
  -5   2   3 2595.00 459.907  19
   5   2  -3 4138.31 540.094  13
  -5  -2   3 2078.59 544.294  17
   5  -2  -3 1664.21 375.750  14
   5  -2   3 4214.59 724.664   8
  -5  -2   3 899.543 300.154   4
  -5   2  -3 3603.96 605.901   4
   5   2  -3 4309.13 657.161   8
  -5  -2   3 1749.32 421.209  19
   5   2  -3 3926.96 649.135  18
   5  -2   3 4340.44 608.536   6
   5  -2   3 3863.49 564.501  14
  -5   2  -3 2614.26 462.896   3
   5   2  -3 1204.27 380.963  14
   5   2  -4 1837.61 365.441  13
   5  -2   4 1840.02 412.091  14
  -5   2  -4 1239.78 321.569  12
   5   2  -4 1677.02 440.468   1
   5  -2   4 1672.62 344.530   1
  -5   2  -4 1747.41 414.578   5
  -5  -2   4 1357.03 382.815   2
  -5  -2   4 1199.38 415.256   5
  -5  -2   4 1056.54 315.165  19
  -5   2  -4 1602.97 411.858  19
  -5  -2   4 1124.59 423.825  17
   5   2  -4 680.140 252.188  14
  -5   2  -4 1619.39 440.704   4
   5   2  -4 2257.04 445.406   8
   5  -2   4 1847.76 492.202   8
   5  -2   4 791.584 249.485  16
  -5  -2   4 718.620 267.827   4
   5   2  -4 1823.27 446.766  18
   5  -2   4 1952.52 423.654   6
  -5   2  -4 1237.59 318.790   3
   5   2  -5 448.739 202.450  14
  -5   2  -5 724.728 271.353   3
  -5   2  -5 961.015 309.156  19
   5   2  -5 1279.27 306.296   8
   5   2  -5 1203.57 320.119  13
   2   5  -5 516.337 276.704  13
  -5   2  -5-6.09802 55.5919  13
   5   2  -5 989.544 347.788   1
  -5   2  -5 841.081 282.005  12
   5  -2   5 1252.10 339.059  14
  -5   2  -5 1076.73 343.241   5
  -5  -2   5 841.918 328.681   5
  -5  -2   5 891.832 270.155  19
  -5  -2   5 644.667 183.735  16
  -5  -2   5 1004.02 349.257   2
   5  -2   5 1228.84 415.476   8
  -5  -2   5 688.380 285.699   4
  -5   2  -5 1142.53 365.924   4
  -5  -2   5 789.639 370.153  17
   5  -2   5 982.760 303.968  16
  -2   5  -5 724.162 286.364   3
   5   2  -5 1151.56 309.169  20
   5  -2   5 1191.80 278.383   1
   5   2  -5 705.398 144.853   3
   5  -2   5 1353.29 369.144   6
   5   2  -5 1231.11 374.544  18
  -5   2  -6 1774.15 431.900   3
   5  -2   6 2772.80 547.280   6
   2   5  -6 2090.88 565.690  13
   5   2  -6 1965.14 430.063  20
  -5   2  -6 650.136 186.745  13
  -5  -2   6 2002.53 387.485  19
  -5  -2   6 2096.64 554.606   5
   5  -2   6 2585.46 422.038   1
   5   2  -6 2377.23 532.452   1
  -5  -2   6 1518.50 377.914   4
   2  -5   6 583.124 261.079   6
  -5   2  -6 2076.36 468.350   5
   5   2  -6 3402.29 698.856  11
   5   2  -6 2669.02 429.733   8
  -5  -2   6 2320.97 517.236   2
  -5   2  -6 1712.30 424.284  19
  -5   2  -6 1997.10 499.042   4
  -5  -2   6 2113.00 357.581  16
  -5   2  -6 1764.89 426.067  12
   5   2  -6 2486.76 537.403  18
  -2   5  -6 1970.95 408.319  12
  -5  -2   6 1768.25 525.539  17
   5  -2   6 2262.70 486.244  16
   5  -2   6 2625.78 587.394   8
   5  -2   6 2682.02 498.154  14
  -2   5  -6 2235.62 527.748   3
   5   2  -6 2462.10 290.918   3
  -5   2  -7 2918.64 621.572   4
  -5  -2   7 3774.22 512.298  16
  -2   5  -7 1489.65 473.367  13
  -5   2  -7 1630.28 323.079  13
   5   2  -7 2535.67 508.507  20
  -5  -2   7 3210.90 544.895   4
   5  -2   7 4074.20 551.817   1
  -2   5  -7 3989.18 591.629  12
  -5   2  -7 4050.38 695.418  20
   5   2  -7 3975.37 686.299   1
   2   5  -7 2409.21 585.008  18
  -2  -5   7 576.991 204.244   6
  -5   2  -7 3131.15 618.143   5
  -5  -2   7 4063.01 763.012   5
   5   2  -7 4228.28 733.434  18
  -5  -2   7 3832.91 694.571   2
   5  -2   7 5213.39 774.097   6
   5   2  -7 3178.32 451.930   8
   5  -2   7 4788.68 737.667  16
   5  -2   7 5119.50 716.727  14
  -5  -2   7 3884.40 506.425  19
   5   2  -7 5201.26 886.089  11
   5   2  -7 1762.79 388.949  14
   5   2  -7 4755.46 455.833   3
  -5   2  -7 4136.63 563.651  10
  -5  -2   7 3302.68 733.510  17
  -5   2  -7 2878.65 555.670  19
   5  -2   7 5478.40 874.288   8
   2   5  -7 3878.79 635.669   3
  -2   5  -7 4304.67 750.961   3
   2   5  -7 4358.56 814.128  13
   2  -5   7 1766.15 440.577   6
   5   2  -8 523.649 210.569  14
   5  -2   8 1939.55 531.551   8
   5  -2   8 1854.40 446.573  14
   2   5  -8 1598.69 492.175  13
   5   2  -8 982.844 322.561  10
   5   2  -8 254.540 63.6976   8
   5   2  -8 2028.78 572.047   9
  -2  -5   8 588.808 212.947   6
   5   2  -8 1244.78 390.861   1
  -5  -2   8 1084.67 448.796  17
  -5  -2   8 1438.18 466.143   5
  -5   2  -8 1352.34 300.716   9
   5   2  -8 1758.32 522.070  11
   5   2  -8 520.237 257.273  20
  -5  -2   8 1535.48 448.036   2
  -5   2  -8 1146.51 294.588  10
  -2  -5   8 233.782 209.999  17
  -5   2  -8 1779.07 660.871   7
   5  -2   8 1292.06 395.239  16
  -2   5  -8 961.086 358.663  13
   2   5  -8 1541.65 402.959   3
   5   2  -8 1308.16 408.537  18
   2   5  -8 1137.36 408.910  18
  -5  -2   8 1147.25 320.889   4
   5  -2   8 582.982 209.912   1
  -5  -2   8 1183.63 270.640  19
  -5   2  -8 677.608 315.822   4
  -5   2  -8 1582.81 642.215  15
  -5   2  -8 1057.30 372.605  20
  -2   5  -8 1430.56 354.405  12
  -5  -2   8 1248.76 327.542  16
  -5   2  -8 787.068 284.627  19
   5  -2   8 1828.65 481.262   6
   2  -5   8 927.432 313.732   6
  -2   5  -8 1536.71 436.443   3
  -5   2  -9 746.085 303.863  19
   2  -5   9 558.375 165.356  14
  -5   2  -9 944.910 292.662  10
  -5  -2   9 1140.22 259.346  19
  -5   2  -9 1111.98 412.489  20
  -2   5  -9 1037.99 408.147  13
   5   2  -9 716.656 245.345  14
  -2   5  -9 1706.23 390.330  12
   2   5  -9 1101.54 254.608  12
   5   2  -9 1174.36 383.995   1
  -5  -2   9 1484.78 461.219   5
  -5   2  -9 586.625 307.404   4
   5  -2   9 110.877 52.6653   1
  -5  -2   9 1696.10 483.319   2
   5   2  -9 1339.07 411.510  18
   5  -2   9 2065.84 482.693  14
   5   2  -9 314.041 169.586  20
  -5  -2   9 1436.54 339.766   4
   2   5  -9 1491.32 449.650  18
  -2   5  -9 1121.61 277.761  18
   5  -2   9 1848.29 508.743   6
   5  -2   9 1475.01 267.171   2
   2   5  -9 1942.55 549.674  13
  -2   5  -9 1218.72 257.210   4
   5   2  -9 1603.44 525.936  11
  -5   2  -9 1025.94 264.887   9
  -2  -5   9 839.579 392.655  17
   5  -2   9 1745.60 487.627  16
  -5  -2   9 1377.87 497.227  17
  -2  -5   9 410.438 46.0792  16
  -5   2  -9 1492.09 604.818  15
   2  -5   9 424.294 96.0235  16
   2  -5   9 74.0477 122.505   8
   5   2  -9 1311.20 440.868   9
   5  -2   9 2233.63 606.439   8
   2  -5   9 1136.86 371.512   6
  -2  -5   9 842.318 284.122   6
   2   5  -9 1758.54 441.024   3
   5   2  -9 1002.56 344.714  10
  -2   5  -9 1864.37 510.836   3
  -5   2  -9 1746.07 643.460   7
  -5  -2   9 1481.89 372.530  16
  -5   2 -10 1032.99 265.956  10
   5   2 -10 1812.74 561.602  11
  -2  -5  10 1327.48 489.126  17
   2   5 -10 2175.13 595.437  13
   2   5 -10 1821.57 508.197  18
  -2   5 -10 2211.32 439.579  12
   5  -2  10 2412.95 363.117   2
  -2   5 -10 2202.13 540.216   3
   5   2 -10 1590.73 441.911   1
  -5   2 -10 1078.63 460.989  15
  -5  -2  10 2221.88 579.573   2
  -5  -2  10 654.898 175.164  19
   5   2 -10 125.197 144.284  20
   2  -5  10 1974.37 448.690  17
   5   2 -10 804.273 294.469  10
   5   2 -10 1566.29 493.663   9
  -5   2 -10 848.854 270.570  19
  -5  -2  10 1974.78 589.513  17
  -5   2 -10 552.926 160.346   9
  -2   5 -10 1942.44 381.006  18
   5   2 -10 1572.26 493.983  18
   2   5 -10 1756.40 324.376  12
  -5  -2  10 1857.08 382.870   4
   2  -5  10 574.913 211.688   8
  -5   2 -10 977.908 387.506  20
  -2  -5  10 859.559 337.507  16
   5  -2  10 2205.56 549.689   6
  -2   5 -10 1976.00 363.334   4
  -5  -2  10 1915.25 456.368  16
   2  -5  10 938.180 385.941  16
  -2   5 -10 1365.36 441.662  13
   5  -2  10 2246.82 575.205  16
  -5   2 -10 1342.05 605.399   7
  -5  -2  10 2144.78 537.059   5
  -2  -5  10 1153.55 326.578   6
   5  -2  10 2912.47 682.468   8
   5  -2  10 2184.70 506.532  14
   2  -5  10 1703.31 464.215   6
   5   2 -10 704.229 246.741  14
   2  -5  10 1443.04 283.469  14
   2   5 -10 2216.14 519.341   3
   5   2 -11 60.0342 90.9417  14
   2  -5  11 106.437 145.680  14
  -2  -5  11 55.0335 107.632   6
   2   5 -11 94.5505 178.664   3
  -2   5 -11 244.139 377.201  13
   2  -5  11 142.850 299.129   6
  -2   5 -11 101.068 237.171   3
  -2   5 -11 563.729 332.228  12
   2   5 -11 189.291 154.388  12
   2  -5  11 78.0313 350.733  16
   5   2 -11 42.0807 105.047  11
   5   2 -11-377.137 468.934  20
  -5  -2  11 236.517 284.177   5
   2   5 -11 200.230 327.215  13
  -5   2 -11 564.049 412.521   9
  -5   2 -11 135.702 226.861  19
   2   5 -11 238.095 248.609  18
   5   2 -11-84.2365 83.2631  10
   5  -2  11 214.987 324.747  14
   5   2 -11 102.641 180.495  18
  -5   2 -11-124.819 219.548  20
  -5  -2  11 108.322 139.732   4
  -2  -5  11 422.243 402.287  17
  -2  -5  11 74.3515 247.670   2
  -5  -2  11 411.091 386.728  17
   5  -2  11 155.470 282.276   6
  -2   5 -11 209.262 151.239   4
  -5  -2  11 322.750 334.353   2
  -2  -5  11 250.884 240.301  16
   2  -5  11 19.0853 229.536   8
   5  -2  11 85.5966 492.475   8
   5  -2  11 225.498 368.116  16
  -5  -2  11 120.132 170.167  16
  -2   5 -11 205.449 139.732  18
  -5   2 -11-96.4606 428.732   7
   5  -2  11 99.1782 155.211   2
   5   2 -11-2.94068 68.5471   9
  -5   2 -11-99.2412 312.401  15
  -5   2 -11 356.810 366.043  10
   2  -5  11 180.048 321.396  17
   5   2 -11 261.608 238.916   1
   5   2 -12 787.646 230.521  14
   2   5 -12 2629.59 661.946  13
  -2   5 -12 1962.70 526.566  13
  -2   5 -12 3128.25 548.186  12
   2   5 -12 2959.53 622.081   3
  -5   2 -12 456.427 240.861   9
   5   2 -12 1885.11 487.653   1
  -5  -2  12 2866.46 615.336   5
   5   2 -12 962.067 382.057   9
   2   5 -12 2935.48 442.545  12
  -2  -5  12 2041.79 640.095   2
  -5   2 -12 822.941 426.070  20
   2   5 -12-121.397 198.978   1
   5  -2  12 3288.22 478.972   2
   5   2 -12 2090.48 616.040  11
  -5   2 -12 539.773 261.305  19
  -2  -5  12 2385.13 661.263  17
   5  -2  12 3873.64 887.116   8
  -2  -5  12 1560.98 405.969   6
  -5  -2  12 2626.57 440.221   4
   5   2 -12 1890.34 548.775  18
  -5  -2  12 3032.50 701.541   2
  -2   5 -12 2778.76 475.026   4
  -5  -2  12 2746.48 687.250  17
  -5   2 -12 392.878 247.741  15
   2  -5  12 1964.43 607.726  16
   5  -2  12 3109.69 737.287  16
  -5  -2  12 2586.59 589.776  16
  -2   5 -12 2846.49 463.903  18
  -5   2 -12 55.6660 544.915   7
  -5   2 -12 642.723 300.005  10
   5  -2  12 2766.19 694.978   6
   2  -5  12 2766.63 610.641   6
   5  -2  12 2129.06 558.843  14
   2  -5  12 2934.20 401.440  14
  -2  -5  12 1923.05 550.175  16
  -2   5 -12 2468.88 601.526   3
   5   2 -12 292.353 247.660  10
  -2  -5  13 312.108 270.819   2
  -2   5 -13 304.420 142.257  18
  -5   2 -13-15.4371 79.3404   9
  -2  -5  13 144.452 144.452   6
   2  -5  13 317.348 223.294   6
   5   2 -13 56.0095 71.9568   1
  -2   5 -13 269.032 212.288  13
   2   5 -13 220.937 219.227  13
   5   2 -13-107.245 210.618   9
   2   5 -13 276.550 133.353  12
  -5  -2  13 362.658 282.478   2
   5   2 -13 80.2847 48.1783  14
   2   5 -13 1213.38 557.690  11
  -2   5 -13 910.284 409.349  11
   2  -5  13 389.944 135.946  14
   5  -2  13 322.731 194.564   8
   5   2 -13 199.943 196.037  11
  -5   2 -13 121.723 162.474  20
  -5  -2  13 332.993 238.704   5
   2   5 -13-64.4548 138.779   1
  -2   5 -13 172.534 129.181   4
   2  -5  13 117.857 26.2113   8
  -5   2 -13-5.75031 106.873  10
   5   2 -13 98.2403 83.7094  18
   5   2 -13 20.6699 36.4465  10
   5  -2  13 284.279 272.759  16
  -5  -2  13 247.015 174.093  17
   2   5 -13 145.679 162.982  18
  -2   5 -13 403.864 210.927  12
   2  -5  13 313.771 234.580  16
  -2  -5  13 206.354 159.879  17
   2  -5  13 491.419 225.428  17
   5  -2  13 243.132 217.702   6
   2   5 -13 658.719 484.722  15
   5  -2  13 500.790 200.189   2
   2   5 -13 504.708 288.111   3
  -2  -5  13 267.574 230.021  16
  -5  -2  13 305.048 144.030   4
  -5   2 -13 191.508 174.510  19
   2   5 -13 720.197 541.455   7
  -5  -2  13 328.243 239.578  16
  -2   5 -13 352.988 262.731   3
   5  -2  13 240.700 182.238  14
   5  -2  14 1022.69 453.380   6
   5   2 -14 306.082 146.439  14
   2   5 -14 950.169 418.481  13
   2   5 -14 841.310 443.820  15
  -2   5 -14 718.733 312.470  13
   2   5 -14 1425.71 354.351  12
   2   5 -14 1660.34 759.228  20
  -2   5 -14 1311.86 477.680   3
   2   5 -14 2571.11 736.813  11
  -2   5 -14 1892.01 504.573  11
  -5   2 -14 43.0576 62.3105   9
   5  -2  14 1864.08 415.737   2
   5   2 -14 883.235 461.815  11
  -5   2 -14 12.1091 207.753  20
   5   2 -14 350.807 237.114   9
   2   5 -14 1073.43 461.991  18
   2   5 -14 1573.31 487.062   3
  -5  -2  14 1391.80 429.544   5
   2   5 -14-45.9090 140.548   1
  -5   2 -14 75.8152 123.976  10
   5   2 -14-71.9251 183.707  10
  -2  -5  14 1219.28 462.984  16
  -2   5 -14 1363.94 404.054  12
  -2  -5  14 440.731 237.121   6
  -2   5 -14 1519.35 360.315  18
  -5  -2  14 1185.62 451.065  16
   2  -5  14 859.803 362.801   2
  -5   2 -14 102.833 114.274  19
  -5  -2  14 1268.78 298.739   4
   2  -5  14 1347.31 369.140   8
  -2  -5  14 1588.77 518.958  17
   2  -5  14 1788.75 429.663  17
  -2   5 -14 361.575 116.695  19
  -5  -2  14 1273.79 551.757  17
   5   2 -14 803.008 345.904   1
   2  -5  14 1129.08 461.283   6
  -5  -2  14 1215.14 475.744   2
   2  -5  14 1323.26 551.272  16
   5  -2  14 1497.13 553.408  16
   2   5 -14 1228.61 559.379   7
   5   2 -14 597.819 334.540  18
   2  -5  14 1456.62 297.460  14
   5  -2  14 1733.77 540.054   8
   5  -2  14 505.604 235.618  14
  -2  -5  14 1572.85 571.666   2
  -5   2 -15-76.0068 212.782  10
   2  -5  15 198.414 120.886  14
   5  -2  15 110.727 245.369   6
   5   2 -15 75.6022 98.5912  14
  -5   2 -15-240.665 285.685   9
   2   5 -15 353.119 322.762  13
   2  -5  15 102.318 119.729   6
   2   5 -15 772.422 512.723  20
   2   5 -15 8.63678 84.1061   1
  -2   5 -15 125.706 129.616  13
  -5   2 -15 32.7837 73.7400  19
  -2   5 -15 135.950 145.354  12
   2   5 -15 135.922 115.220  12
  -2   5 -15 201.126 279.092   3
   5   2 -15 29.3889 75.0310   1
   2   5 -15 1372.62 730.484  11
  -2   5 -15 155.721 179.501  11
   2   5 -15-159.543 448.988   7
   2  -5  15 44.8451 148.001  16
  -5   2 -15-334.878 448.845  20
   5   2 -15-194.288 389.984  10
   5  -2  15 112.159 106.003   2
  -2   5 -15 840.623 589.865  15
  -2   5 -15-9.40825 53.9817  19
   2  -5  15 235.136 226.723   2
  -5  -2  15 91.8559 72.7703   5
   5   2 -15-64.3820 193.003   9
  -5  -2  15 228.294 216.684   2
  -2  -5  15 300.187 284.475  16
  -2   5 -15 119.775 89.9345  18
   5  -2  15 319.250 228.377   8
   2  -5  15 97.1052 128.376  17
  -5  -2  15 96.2239 125.798  16
   5  -2  15 70.1566 174.096  16
   5   2 -15-4.24920 141.491  18
  -2  -5  15 237.910 310.675  17
  -2  -5  15 32.7755 32.9859   6
   5   2 -15-3.92408 155.570  11
   2  -5  15 74.9375 71.2006   8
  -2   5 -15 229.435 378.671  20
  -5  -2  15 5.04765 74.6015   4
  -5  -2  15-16.7159 126.641  17
  -2   5 -15 1070.47 636.518   7
   2   5 -15-43.2820 273.944  15
   2   5 -15 178.826 180.539   3
  -2  -5  15 105.239 154.449   2
   5  -2  16 1175.87 494.157   6
  -2   5 -16 960.092 421.610   3
   5   2 -16 708.248 473.397  11
   2   5 -16 1360.20 475.669   3
   5  -2  16 2056.73 489.004   2
   2  -5  16 1255.51 512.598   6
  -5  -2  16 1718.09 502.589   5
   2   5 -16 2295.89 654.775  11
  -2   5 -16 1006.53 441.598  13
   2   5 -16 1381.83 577.467  13
   2   5 -16 1564.56 386.760  12
  -2   5 -16 1114.51 399.481  12
   2  -5  16 1488.90 523.383   2
   2   5 -16 1286.94 645.379  20
   5   2 -16 551.199 281.066   1
  -2   5 -16 625.787 179.867  19
  -2   5 -16 1222.51 674.590  20
  -2  -5  16 203.478 148.264   6
  -5   2 -16 67.7492 130.313  19
   5  -2  16 2075.47 658.379   8
   2  -5  16 1724.54 676.304  16
  -5   2 -16-183.732 347.204  10
   2   5 -16 2100.24 750.214  10
   5   2 -16-216.946 504.271  10
  -2   5 -16 1176.87 348.724  18
  -2  -5  16 1811.34 615.959  16
   5   2 -16 227.685 290.105   9
  -5   2 -16-568.453 327.823   9
   2   5 -16-112.819 146.389   1
   5   2 -16 243.755 119.199  14
   2  -5  16 1625.84 422.731   8
   2   5 -16-412.342 628.950  15
   5   2 -16 580.221 370.440  18
   2  -5  16 2439.84 541.599  17
  -2   5 -16 1897.11 722.368  10
  -2  -5  16 2125.70 627.558  17
  -5  -2  16 1639.79 660.749  17
  -2  -5  16 1605.01 580.138   2
  -2   5 -16 1666.35 463.997  11
  -5  -2  16 1897.25 616.402   2
   5  -2  16 1445.23 638.661  16
  -5  -2  16 1759.44 569.886  16
  -2   5 -16 1474.03 702.555   7
   2   5 -16 1111.51 493.255  18
  -2   5 -16 1188.89 610.993  15
   2  -5  16 691.144 231.933  14
   5  -2  17 168.974 218.221   6
   5   2 -17-3.13946 38.3417  14
  -2   5 -17 116.746 131.446  18
  -2  -5  17-26.5839 174.600   6
   2  -5  17 310.181 266.298   6
  -2   5 -17 266.790 244.637  10
  -2   5 -17 57.8936 44.6570  19
  -2   5 -17 234.029 309.236  13
  -2   5 -17 380.932 298.888  12
   2   5 -17 183.525 142.702  12
   2   5 -17 242.590 262.491   3
  -2  -5  17 131.255 84.7065  17
  -2   5 -17 295.149 293.109   3
   2   5 -17 262.054 338.907  20
   2  -5  17 195.521 212.720   2
   2   5 -17 279.296 220.665  11
  -2   5 -17 348.435 203.186  11
   2  -5  17 276.986 163.174  17
   5   2 -17 211.125 255.069   1
   5   2 -17 420.198 367.755  11
   5   2 -17-102.123 114.357   9
  -5  -2  17 289.250 249.836   5
   5  -2  17 357.423 227.852   2
   2   5 -17 154.732 213.121  18
   2   5 -17-87.1554 138.413   1
   5   2 -17 92.2707 201.558  18
   5  -2  17 333.253 357.641   8
   2   5 -17-78.7971 112.149  10
  -5   2 -17 136.755 201.764  19
  -5   2 -17-534.142 578.232  10
  -5  -2  17 281.067 318.676  17
  -2   5 -17 288.667 387.724  20
   2  -5  17 330.202 226.625   8
   2  -5  17 141.820 253.534  16
  -2  -5  17 295.973 310.218  16
  -5  -2  17 134.390 177.362   2
   5  -2  17 345.402 338.668  16
  -5  -2  17 256.461 317.752  16
   2   5 -17 351.352 344.475  13
  -2   5 -17-123.294 407.889   7
  -2  -5  17 232.977 273.588   2
  -2   5 -17 146.273 232.160  15
   2  -5  17-65.0632 145.051  14
  -2  -5  18 211.817 221.131   6
   2   5 -18 1677.31 648.596  10
   5   2 -18 290.647 270.236   1
  -2   5 -18 759.492 454.221  13
   2   5 -18 1362.63 432.415  12
  -2   5 -18 835.697 384.547  12
  -5  -2  18 1930.53 553.976   5
   2   5 -18 1118.93 489.793   3
  -2   5 -18 1117.48 535.829   3
   2   5 -18 1599.23 572.940  11
  -2   5 -18 1501.37 474.519  11
  -2   5 -18 836.963 412.885  10
  -2   5 -18 2009.27 733.690   9
  -2   5 -18 715.200 302.870  18
   2  -5  18 1225.36 486.959   2
  -2  -5  18 1559.53 604.324  16
   2   5 -18-115.244 195.913   1
   2  -5  18 1676.53 672.529  16
  -2  -5  18 1668.77 567.404   2
   5  -2  18 1939.59 725.002   8
  -5   2 -18-3.58230 64.4168  19
   5   2 -18 442.747 349.697  18
   5   2 -18 103.781 123.802  11
  -2  -5  18 1569.45 628.213  17
   2   5 -18 2815.16 931.287   9
   2   5 -18 1323.30 627.922  20
   2  -5  18 1627.07 494.479  17
   2   5 -18 847.096 429.839  18
  -5  -2  18 1291.69 611.399  17
   5  -2  18 1899.57 502.734   2
   2  -5  18 1752.75 449.791   8
   2  -5  18 1257.66 496.305   6
  -2   5 -18 570.596 586.926  20
  -5  -2  18 1249.93 597.145   2
   5  -2  18 2067.89 806.482  16
  -5  -2  18 1081.58 604.778  16
  -2   5 -18-303.382 652.277   7
  -2   5 -18 239.760 236.528  15
   5   2 -18 67.0553 133.643   9
   5  -2  18 1112.34 530.776   6
   2  -5  19 2191.20 562.652   8
  -2   5 -19 1086.82 483.813   9
   2  -5  19 1493.43 594.075   6
  -5  -2  19 1970.80 573.521   5
  -2   5 -19-920.539 922.875  15
  -2   5 -19 707.265 447.174  13
  -2   5 -19 1072.39 477.544  10
  -2   5 -19 1067.08 526.088  12
   2   5 -19 1041.09 389.474  12
   2   5 -19 936.953 451.717   3
  -2   5 -19 765.233 445.896   3
   2   5 -19 1640.20 594.846  11
  -2   5 -19 1272.59 497.640  11
  -2  -5  19 1652.63 617.951  17
  -5  -2  19 1837.35 722.140   2
  -2   5 -19 503.092 670.077  20
   2   5 -19 1120.23 586.656  20
   2  -5  19 1688.56 624.076   2
  -5   2 -19-74.3311 197.957  19
   2   5 -19 692.183 290.389  10
   2   5 -19 1356.52 640.586   9
   5  -2  19 2138.60 810.123  16
  -5  -2  19 958.988 588.961  16
   5  -2  19 1665.47 660.503   8
   5   2 -19 311.699 274.943   1
   2   5 -19 907.250 508.821  18
  -2   5 -19 645.151 270.270  18
   5   2 -19 219.107 295.631  18
   2  -5  19 1824.91 547.640  17
  -5  -2  19 2110.64 792.713  17
   5   2 -19 68.1001 65.2383   9
   2  -5  19 2147.47 712.345  16
  -2  -5  19 1582.18 593.116  16
   5   2 -19 482.051 352.452  11
  -2  -5  19 1698.82 672.866   2
   5  -2  19 867.411 305.977   6
  -2  -5  19-109.338 218.008   6
   5  -2  19 2009.20 561.196   2
  -5   3   0 172.537 100.180  19
   5  -3   0 143.440 121.247  14
   5   3   0 32.0622 110.435   1
  -5   3  -1 1037.20 283.339  12
  -5   3  -1 1889.62 407.050  19
   5  -3   1 848.434 341.183   8
   5   3  -1 1086.37 408.428   1
   5  -3   1 1244.39 333.010  14
   5  -3   1 810.075 262.881   6
   5  -3   2 54.5155 82.3132   6
  -5   3  -2 118.894 110.853  12
   5  -3   2 22.6030 66.0070   1
   5   3  -2 52.9719 65.8111   1
  -5   3  -2 60.5448 118.365  19
   5  -3   2 92.2241 67.9696   8
   5  -3   2 115.333 91.9150  14
   5   3  -2 60.6346 53.9205  18
   5   3  -3 1844.34 429.645  13
  -5  -3   3 499.561 356.213  17
   5   3  -3 1819.00 508.353   1
  -5   3  -3 2222.96 433.327  12
  -5   3  -3 1647.22 387.534   5
   5  -3   3 1685.06 346.710   1
   5  -3   3 1798.44 478.886   8
   5   3  -3 1396.49 408.229   8
  -5   3  -3 1941.00 435.245   4
  -5   3  -3 2433.36 469.642  19
   5   3  -3 2381.66 561.675  18
  -5  -3   3-44.5439 208.488  19
  -5   3  -3 1169.08 347.765   3
   5  -3   3 2098.93 446.391   6
   5  -3   3 2044.11 424.493  14
  -5   3  -4 311.188 181.750   3
  -5   3  -4 537.047 253.559  19
   5   3  -4 411.723 192.282  13
  -5  -3   4 107.597 139.092  19
   5  -3   4 589.142 250.869   6
  -5   3  -4 480.091 220.357  12
   5  -3   4 436.182 199.131   1
   5   3  -4 648.840 306.358  18
   5   3  -4 507.863 262.808   1
  -5   3  -4 471.070 221.973   5
   5  -3   4 473.545 243.714   8
   5   3  -4 561.446 237.451   8
  -5   3  -4 480.712 244.075   4
   5  -3   4 571.271 246.425  14
  -5  -3   4 292.754 268.384  17
   5  -3   5 1189.09 324.455  14
   5   3  -5 1265.38 343.406   8
   5   3  -5 1377.27 368.197  13
   3   5  -5 704.312 316.544  13
  -5  -3   5 507.393 223.252  19
  -5  -3   5 681.200 286.650   2
   3  -5   5 186.904 120.634   6
   5  -3   5 1116.01 257.190   1
  -5   3  -5 1168.79 333.862  19
   5  -3   5 1052.30 374.917   8
  -5  -3   5 587.966 334.165  17
   5  -3   5 1307.30 377.570   6
  -5   3  -5 1107.23 345.015   4
  -5   3  -5 1184.36 336.652  12
   5   3  -5 957.998 363.668   1
   5   3  -5 1258.27 416.807  18
  -5   3  -5 1135.55 323.049   5
  -3   5  -5 783.515 311.440   3
  -3   5  -5 775.456 263.819  12
  -5   3  -5 1067.71 361.123   3
   5   3  -6 3762.27 712.527  18
  -5  -3   6 2161.31 633.755  17
   5  -3   6 3578.57 709.399   8
   3   5  -6 3354.16 714.909  13
   5   3  -6 4326.11 668.426  13
   5  -3   6 4347.10 690.789   6
  -5   3  -6 3371.43 558.213   5
   5   3  -6 3136.95 648.606   1
  -5   3  -6 2745.68 520.361  12
  -3   5  -6 3067.62 541.276  12
  -5  -3   6 2528.52 604.777   2
   5   3  -6 4819.30 597.347   8
  -5  -3   6 2005.38 422.269  19
   5  -3   6 3593.62 466.485   1
  -5   3  -6 3248.11 561.974  19
  -5   3  -6 3334.49 613.663   4
   3  -5   6 1170.56 368.953   6
  -3   5  -6 3082.77 649.638   3
   5  -3   6 2141.58 521.583  16
   5  -3   6 3927.07 589.904  14
   5   3  -6 1736.71 291.158   3
  -5   3  -6 2778.36 553.276   3
   5   3  -7 2343.30 383.146   8
   3  -5   7 1122.49 369.496   6
  -5   3  -7 1592.46 403.261  12
   5  -3   7 1972.17 526.976   8
   5   3  -7 1673.16 485.875   1
  -3   5  -7 1969.55 435.159  12
   5  -3   7 2040.80 346.214   1
  -3  -5   7 116.100 66.8735   6
  -5   3  -7 1876.03 427.454   5
   3   5  -7 1485.33 489.724  18
  -5  -3   7 1211.86 463.346  17
   3   5  -7 2113.88 560.352  13
  -5  -3   7 963.203 381.516   5
  -5  -3   7 1365.47 450.104   2
  -5  -3   7 1306.18 317.476  19
  -5   3  -7 1762.51 469.476   4
   5   3  -7 2006.80 469.790  13
   5   3  -7 2087.82 553.107  18
  -5   3  -7 1466.23 384.464  19
  -5  -3   7 1060.47 299.581  16
   5  -3   7 1510.16 453.315  16
  -5   3  -7 308.381 169.934  13
   5  -3   7 2197.23 516.332   6
  -3   5  -7 1886.38 511.712   3
   5   3  -7 1934.13 321.384   3
   5  -3   7 1979.29 430.904  14
  -3   5  -7 146.356 96.8803  13
   5   3  -7-100.997 178.784  14
  -5   3  -7 1307.82 395.576   3
  -3  -5   8 901.580 442.610  17
   3   5  -8 3805.16 750.310  13
   5   3  -8 3804.19 672.817  13
  -3   5  -8 1361.47 431.614  13
  -5   3  -8 2683.95 595.379   4
  -5   3  -8 2435.34 514.844  12
   5   3  -8 2886.89 626.074   1
   5  -3   8 3265.68 445.166   1
  -5  -3   8 1814.62 521.282   5
  -5   3  -8 2831.77 542.059   5
   5   3  -8 4640.97 956.880  11
  -5   3  -8 3124.69 339.179  11
  -5  -3   8 2995.36 668.280   2
  -3   5  -8 3434.64 560.102  12
  -5   3  -8 1018.86 306.470  13
   3   5  -8 2943.02 673.821  18
   5   3  -8 3168.14 405.240   8
   5  -3   8 3467.13 723.038   8
   5  -3   8 3059.46 649.496  16
  -5  -3   8 2294.36 664.722  17
   5   3  -8 3389.34 702.970  18
   3   5  -8 3104.40 562.162   3
   3  -5   8 1246.27 298.714  14
  -5  -3   8 2816.01 429.703  19
  -5   3  -8 2585.36 516.023  19
  -5  -3   8 2337.03 459.420  16
   5  -3   8 3802.29 694.096   6
   3  -5   8 503.759 184.445   8
   5   3  -8 3443.65 693.119  20
   5  -3   8 3658.92 592.185  14
   3  -5   8 2111.51 507.608   6
  -3  -5   8 1180.55 288.707   6
  -3   5  -8 3384.84 682.145   3
   5   3  -8-43.9506 148.433  14
   5   3  -8 3346.12 450.520   3
  -5   3  -8 2061.92 519.690   3
  -5   3  -9 1481.26 450.279   3
  -5  -3   9 1578.36 517.833  17
  -5  -3   9 2026.24 334.136  19
   5  -3   9 1585.71 323.389   1
   5  -3   9 2726.02 528.056  14
  -3   5  -9 962.391 385.595  13
  -5   3  -9 902.218 293.317  13
  -5   3  -9 1528.27 439.082  12
  -3   5  -9 2100.13 465.959  12
   5   3  -9 1711.93 480.404   1
  -5   3  -9 1418.84 462.858   4
   5  -3   9 2631.82 603.835   6
  -5   3  -9 1581.18 427.761   5
  -5  -3   9 1613.35 498.779   5
  -5   3  -9 1552.39 399.081  19
   5   3  -9 3024.32 745.387  11
  -5   3  -9 1526.70 246.424  11
   3  -5   9 622.032 285.343  16
  -5  -3   9 702.391 236.240   4
  -5  -3   9 1866.36 551.124   2
   5   3  -9 699.552 178.873   8
   5   3  -9 2333.31 396.427   3
   3   5  -9 2061.09 592.618  18
   5   3  -9 2268.75 583.705  18
  -3   5  -9 1689.63 377.010   4
  -3  -5   9 772.878 443.408  17
   5   3  -9 1858.45 529.143  20
   3   5  -9 2468.34 616.646  13
   5  -3   9 2469.67 611.188   8
   5  -3   9 2157.98 571.291  16
   3  -5   9 952.356 318.224   8
  -5  -3   9 1909.78 437.680  16
   3   5  -9 2573.66 519.847   3
   3  -5   9 1693.04 476.614   6
  -3  -5   9 1076.45 284.513   6
   3  -5   9 1420.19 316.752  14
  -3   5  -9 2360.51 581.605   3
   5   3  -9 48.7664 78.6421  14
   5  -3  10 740.501 312.375  14
   3  -5  10 542.815 195.643  17
  -3  -5  10-24.0323 247.457  16
   3  -5  10 344.311 138.682  14
  -5  -3  10 400.144 315.159  17
  -3  -5  10 198.107 170.835  17
   5   3 -10 691.072 322.495  11
  -5   3 -10 128.828 128.782  13
  -3   5 -10 113.954 99.1949  13
  -3  -5  10 162.807 121.063   6
   3   5 -10 725.602 349.742  13
  -3   5 -10 726.709 320.224   3
   3  -5  10 693.271 287.406   6
  -5  -3  10 373.389 210.416  19
   5   3 -10 424.578 102.746  12
  -5   3 -10 227.463 258.416  12
  -5  -3  10 153.968 98.4566   4
   5   3 -10 533.620 206.050   3
   5   3 -10 436.431 254.870   1
  -5  -3  10 674.016 407.316   2
   3   5 -10 216.632 44.8835  12
  -5   3 -10 82.1644 162.631   3
  -5  -3  10 432.256 245.778  16
  -5  -3  10 372.178 315.995   5
  -5   3 -10 680.495 413.529  20
  -5   3 -10 648.782 390.751  19
   3  -5  10 25.8727 210.893  16
   5  -3  10 374.220 238.091   6
   5   3 -10 570.849 367.684  10
   5   3 -10 352.899 271.861  20
  -3   5 -10 535.003 191.961  18
   3   5 -10 569.479 289.822  18
  -3  -5  10 66.7528 35.6339  19
  -5   3 -10 751.620 387.641  10
  -5   3 -10 235.334 225.044   4
   5   3 -10 536.575 248.824  18
   5  -3  10 774.450 473.977   8
   3   5 -10-35.2401 113.315   1
  -3   5 -10 714.545 272.929  12
  -5   3 -10 266.282 204.099  11
   5  -3  10 455.102 207.528  16
   3  -5  10 282.881 188.474   8
   3   5 -10 585.170 246.337   3
  -3   5 -10 581.401 233.084   4
  -3   5 -10 442.671 136.423   5
   5  -3  10-72.7498 112.960   1
   5   3 -10-87.2393 28.9678  14
   5  -3  11 2865.87 735.387   8
  -5   3 -11 3915.04 1069.47   7
   5  -3  11 1799.14 543.994   6
   3   5 -11 2820.63 768.445  13
  -3  -5  11 967.406 305.308   6
  -5   3 -11 2203.14 741.852  20
   5   3 -11 1860.62 524.344  10
  -5   3 -11 646.634 315.123  13
   5   3 -11 1607.20 225.464  12
  -3   5 -11 2255.55 505.622  12
   5   3 -11 1600.92 500.749  18
   3   5 -11 2127.27 410.159  12
  -5  -3  11 1753.97 598.310   5
  -3   5 -11 1753.67 277.654   5
   5   3 -11 2159.43 661.903  11
  -5  -3  11 1641.23 575.306   2
   5   3 -11 1271.26 391.969   1
   5   3 -11 1092.03 506.470  20
   3   5 -11 68.2348 191.851   1
  -3  -5  11 1144.15 524.126   2
  -3   5 -11 1402.35 453.688  13
   5  -3  11 1924.81 491.323  14
   3   5 -11 2049.79 585.778  18
   3  -5  11 2823.10 466.920  17
  -5  -3  11 1136.71 315.861   4
  -3   5 -11 1781.58 406.807   4
  -3   5 -11 1919.57 335.546  18
  -5   3 -11 518.198 282.138   4
  -5  -3  11 1911.82 691.750  17
  -3  -5  11 1635.16 698.062  17
   5   3 -11 3915.88 880.538   9
  -3  -5  11 1469.44 506.945  16
   5  -3  11 1726.50 578.272  16
   3  -5  11 1545.67 527.386  16
  -5   3 -11 3273.20 1059.27  15
   3  -5  11 1713.42 447.594   8
  -5  -3  11 1698.89 501.157  16
   3   5 -11 2790.81 658.701   3
   3  -5  11 2353.01 563.112   6
   3  -5  11 1933.15 371.905  14
   5   3 -11 0.78879 133.923  14
  -3   5 -11 2002.76 564.238   3
   5  -3  12-19.0400 89.4505  14
   5   3 -12 109.123 162.282  20
   3  -5  12 141.508 104.796  14
   5  -3  12 54.5527 69.1848   6
  -3  -5  12 54.8984 110.988   6
   5   3 -12 71.9513 140.458   1
   5  -3  12 88.4618 122.234   2
   3  -5  12 149.847 153.377   6
   3  -5  12 289.236 171.415  17
   3   5 -12-84.9133 156.099  13
   3   5 -12 112.374 113.828   3
  -3   5 -12-44.4631 116.579   3
  -3   5 -12 222.104 177.858  12
   3   5 -12 18.1738 65.3383  12
   5   3 -12 41.8764 162.357  10
  -3   5 -12 41.3030 28.0817   5
   5   3 -12-35.9394 97.1075  11
  -5  -3  12 46.2951 155.513   5
  -3  -5  12-16.6028 129.790   2
  -5   3 -12 68.0316 107.796  10
  -5   3 -12 250.187 202.783   9
  -5   3 -12 59.0603 69.1757  19
  -3  -5  12 188.869 210.135  16
   3  -5  12 153.668 159.415  16
  -3   5 -12-61.9304 76.6595  19
  -3   5 -12 14.6208 25.9978  13
   3   5 -12-28.5015 72.0318   1
  -5   3 -12-85.4027 97.4092  20
   3   5 -12 4.25713 182.448  18
   5   3 -12 21.0534 110.277  18
  -5  -3  12 132.143 66.1118   4
  -3  -5  12 59.5161 149.660  17
  -3   5 -12 109.649 99.8249  18
   3  -5  12-13.5402 107.454   8
  -5  -3  12-11.8310 78.2231  17
   5  -3  12 115.890 192.611   8
  -3   5 -12-10.4673 73.9696   4
  -5  -3  12 74.3106 174.990   2
   5  -3  12 73.9165 68.1249  16
  -5  -3  12 132.424 140.337  16
   5   3 -12 776.599 450.284   9
  -5   3 -12 280.567 272.884   7
  -5   3 -12 75.9426 173.340  15
   5   3 -12 13.9231 29.8510  14
  -3  -5  13 1864.88 642.523  17
  -3  -5  13 646.417 248.111   6
   3   5 -13 2292.91 636.224  13
  -3   5 -13 1323.05 488.375  13
  -3   5 -13 2091.38 465.936  12
   3   5 -13 2474.97 400.673  12
   3   5 -13 4319.18 966.462  11
   5   3 -13 2575.53 765.732  11
  -3  -5  13 2137.26 672.621   2
   5  -3  13 2714.87 508.993   2
  -5  -3  13 2563.29 701.341   2
   5   3 -13 578.080 363.099  20
  -5   3 -13 1109.23 343.032  19
   5  -3  13 2774.14 740.182  16
   3   5 -13 329.805 209.552   1
  -5   3 -13 1391.52 401.730   9
  -5   3 -13 1543.51 717.146  15
  -3   5 -13 2714.73 431.264  18
   5   3 -13 2061.50 626.984  18
  -5  -3  13 1979.15 384.824   4
  -5  -3  13 2534.53 736.797  17
   3  -5  13 1748.98 661.325  16
  -3  -5  13 1919.41 566.998  16
  -5  -3  13 2479.05 626.932   5
   5   3 -13 1958.78 600.892   9
  -5   3 -13 2131.88 638.819  20
   5   3 -13 1068.96 401.953  10
  -5  -3  13 2523.32 596.806  16
   3  -5  13 2704.17 662.311   6
  -3   5 -13 1694.38 451.833   4
   3   5 -13 2687.53 593.707   3
   3   5 -13 2284.82 681.633   7
  -5   3 -13 1456.59 432.235  10
   5   3 -13 1687.89 496.944   1
   5  -3  13 3426.07 742.441   8
  -5   3 -13 1185.37 604.102   7
   3   5 -13 2101.91 668.088  15
   5  -3  13 2489.47 663.462   6
   5  -3  13 2307.52 570.759  14
   3  -5  13 2937.77 461.861  14
  -3   5 -13 1656.10 536.636   3
   3  -5  14 433.967 189.111  14
  -3  -5  14 49.2297 78.1648   6
  -3  -5  14 293.885 216.562   2
   3  -5  14 411.594 285.399   6
   3   5 -14 143.183 242.226  18
  -3   5 -14 308.346 220.536  13
   3   5 -14 274.280 225.176  13
  -3   5 -14 274.686 148.397  19
   5   3 -14 66.8744 219.871  10
  -3   5 -14 234.658 172.141  12
  -3  -5  14 391.090 265.165  17
  -3   5 -14 243.342 240.924   3
   3   5 -14 693.670 399.202  11
  -3   5 -14 646.915 246.384  11
   5   3 -14 214.206 139.556  11
   5   3 -14-48.0214 244.680  20
   3   5 -14 349.564 415.565  20
  -5   3 -14 306.764 194.294  19
   5   3 -14 261.439 246.247   9
   3  -5  14 499.741 350.770  16
  -3  -5  14 327.230 255.372  16
   5   3 -14 430.023 276.592   1
   3   5 -14 383.435 173.532  12
  -3   5 -14 256.660 107.537  18
   5   3 -14 183.693 169.454  18
   3   5 -14 95.4947 91.2271   1
  -3   5 -14 57.8314 162.683   4
  -5   3 -14 42.2655 125.813  20
   5  -3  14 410.031 203.079   2
  -5   3 -14 67.5998 38.9562   9
  -5  -3  14 370.242 325.722   2
  -5   3 -14 146.583 138.196  10
  -5  -3  14 258.079 125.925   4
   5  -3  14 709.958 385.579   8
   3  -5  14 474.016 184.389  17
  -5  -3  14 399.000 230.532   5
  -5  -3  14 313.722 262.734  17
   3  -5  14 434.985 248.351   8
   5  -3  14 581.776 336.859   6
  -5  -3  14 595.675 310.606  16
   3   5 -14-89.0620 314.472   7
  -5   3 -14-347.513 430.651   7
   3   5 -14 124.629 155.453  15
  -5   3 -14-74.1088 278.034  15
   5  -3  14 274.843 232.030  16
   3   5 -14 483.720 247.613   3
   5   3 -14 7.95563 33.4849  14
   5  -3  14 348.088 205.586  14
  -3  -5  15 89.2246 152.412   6
  -5   3 -15 159.481 94.0310  10
   5  -3  15 859.528 449.812   6
   3  -5  15 560.594 348.058   6
  -3   5 -15 148.529 142.628  13
   3   5 -15 965.913 453.817  13
  -3   5 -15 525.979 291.816  12
  -5   3 -15-939.762 762.301   7
   3   5 -15 500.986 390.660  18
   3   5 -15 904.346 385.257   3
  -3   5 -15 485.252 289.745   3
   3   5 -15 1519.93 605.674  11
   5   3 -15 597.293 324.545  11
   5   3 -15-219.732 373.362  20
  -5  -3  15 983.100 424.620   5
   3   5 -15 1503.51 735.678  10
  -3   5 -15 1373.37 838.672   7
  -5   3 -15 57.2584 110.217  20
   5   3 -15 410.357 277.538   9
  -3   5 -15 1121.26 638.026  20
   5  -3  15 351.856 225.087  14
  -5   3 -15 288.184 200.839  19
   3   5 -15 721.306 227.192  12
  -3   5 -15 877.309 316.489  11
   5   3 -15 460.116 254.210   1
  -3   5 -15 563.692 225.558  18
   5   3 -15 479.145 260.060  18
  -3   5 -15 490.241 185.370  19
   3   5 -15 203.481 177.400   1
   3  -5  15 750.419 266.853  14
   5  -3  15 737.717 418.141   8
  -3  -5  15 921.675 468.464  17
  -5  -3  15 1081.91 469.827   2
   3  -5  15 1044.77 343.414  17
  -5  -3  15 720.390 225.271   4
  -3  -5  15 830.679 478.787   2
  -5  -3  15 960.326 436.650  17
   5   3 -15 222.761 236.260  10
  -5   3 -15 466.753 248.869   9
   3  -5  15 855.206 437.486  16
   5  -3  15 969.213 517.496  16
  -5  -3  15 973.274 419.183  16
   3   5 -15 1472.37 678.520  20
  -3  -5  15 830.390 382.939  16
  -5   3 -15-587.082 643.403  15
   3  -5  15 809.579 314.957   8
  -3   5 -15 808.013 617.652  15
   5   3 -15-17.8150 53.8360  14
   5  -3  15 993.760 360.773   2
   3  -5  16-20.5709 41.8186  14
  -3  -5  16-80.3350 104.371   6
  -3   5 -16 34.6525 64.9890  19
   5  -3  16-3.85353 97.4874   6
   3  -5  16 33.6845 65.4037   6
   3  -5  16 23.0221 51.9252  16
  -3   5 -16-32.4186 96.7798  18
  -3  -5  16-9.48725 84.8925  16
  -3   5 -16 32.0059 241.027  13
   3   5 -16 156.931 310.226  13
  -3   5 -16 125.810 176.446  12
   3   5 -16-14.1892 110.184  12
   3   5 -16 86.9012 188.817   3
  -3   5 -16 62.3454 118.863   3
   3   5 -16-140.603 34.3372  20
   3   5 -16-126.933 218.984  11
  -3   5 -16 0.08489 77.2677  11
   5   3 -16-81.9263 65.8901  18
   5   3 -16-13.5454 31.1503  11
  -3  -5  16 108.529 153.534   2
  -5   3 -16 146.303 225.560  20
  -5  -3  16 103.057 141.149   5
  -3   5 -16 263.343 405.035  10
   3  -5  16 166.062 184.451  17
   5   3 -16 32.9297 171.237  10
   3   5 -16 63.8495 141.310   1
  -3   5 -16 272.796 366.116  20
   3  -5  16 45.3727 234.532   2
  -5   3 -16-137.796 133.116  10
   5   3 -16 4.06524 108.675   9
  -5  -3  16 201.205 235.017  17
   5  -3  16 52.0309 120.267   2
   3   5 -16 74.9950 155.170  18
   5   3 -16-57.1164 44.4581   1
   5  -3  16 265.777 360.760   8
  -3  -5  16 162.514 187.767  17
  -5  -3  16-13.5714 129.849   2
  -5  -3  16 77.2912 67.8946   4
   3  -5  16 20.3855 50.9060   8
   3   5 -16 112.737 282.864  10
   5  -3  16 163.561 221.483  16
  -5  -3  16 95.5854 186.351  16
  -5   3 -16 168.831 189.516  19
  -3   5 -16 273.334 429.010   7
  -5   3 -16-141.617 132.551   9
  -3   5 -16 147.819 309.240  15
   5  -3  16-117.146 279.032  14
   5   3 -16-5.20223 58.0672  14
  -5   3 -17 45.7862 189.069  10
   3  -5  17 1343.65 403.869  17
  -3   5 -17 559.664 199.110  19
   3  -5  17 1154.04 476.210   6
   5   3 -17 288.644 333.531  18
   5  -3  17 1384.81 666.435  16
  -3   5 -17 450.306 346.056  13
   3   5 -17 995.859 508.174  13
  -3   5 -17 852.705 417.397  12
   3   5 -17 1075.32 341.168  12
  -5  -3  17 1519.96 578.768   2
   3   5 -17 1251.39 461.934   3
  -3   5 -17 632.532 453.159   3
  -5   3 -17 182.719 285.874  20
   3   5 -17 1489.83 575.650  11
   5  -3  17 1526.90 507.026   2
  -3   5 -17 978.406 334.940  11
  -3   5 -17 1004.76 570.119  20
  -5   3 -17 343.461 256.433  19
  -3   5 -17 751.084 328.465  10
   3   5 -17 3584.13 1047.51   9
   5   3 -17 573.544 391.711  11
  -5   3 -17 125.725 144.905   9
   3   5 -17 916.616 477.922  10
  -3  -5  17 747.276 456.480   2
   5  -3  17 940.742 444.382   6
  -5  -3  17 1183.75 464.592   5
  -3   5 -17 465.874 210.534  18
   5   3 -17-16.5361 230.418   9
  -5  -3  17 1431.04 534.331  16
   5  -3  17 1649.28 658.914   8
   5   3 -17 448.800 312.501   1
  -3  -5  17 1020.88 459.418  17
  -5  -3  17 1237.96 575.497  17
   3   5 -17 193.655 130.802   1
  -5  -3  17 855.053 231.263   4
   3  -5  17 448.414 223.494  14
   3  -5  17 1234.10 448.361   8
   3  -5  17 908.545 486.446   2
   3   5 -17 819.556 512.172  18
   3   5 -17 643.550 354.949  20
   3  -5  17 1393.04 583.744  16
  -3  -5  17 1260.38 531.386  16
  -3   5 -17 936.586 554.503   7
  -3   5 -17 1081.57 671.025  15
  -3   5 -17 2302.17 795.471   9
   5   3 -17 234.997 321.093  10
  -3  -5  17 9.72030 45.4866   6
   5  -3  18 493.204 318.065   6
   3  -5  18 628.610 401.079   6
  -3   5 -18 248.906 353.761  13
  -3   5 -18 556.947 425.305  12
   3   5 -18 755.886 284.838  12
  -3   5 -18 710.962 474.940  10
   3   5 -18 531.316 422.137  18
  -3   5 -18 264.865 325.541   3
   3   5 -18 1033.15 534.152  11
  -3  -5  18 851.442 494.481  16
  -3   5 -18 567.185 307.000  11
  -5  -3  18 783.400 400.098   5
  -5   3 -18-260.710 209.271   9
   5  -3  18 744.207 338.673   2
   3   5 -18 585.607 317.173   3
  -3   5 -18 275.093 464.015  20
  -5   3 -18 32.2732 34.9456  19
   3  -5  18 929.727 485.604   2
   5   3 -18 1080.33 648.016   9
   5   3 -18 91.4149 210.180  10
   3   5 -18 312.648 287.005  10
   5   3 -18 239.880 322.196  18
  -3   5 -18 180.087 136.137  18
  -3   5 -18 29.0711 253.630  15
  -3   5 -18 1078.08 541.421   9
  -5   3 -18-162.726 402.681  20
   3   5 -18 2199.74 885.833   9
   5   3 -18 231.150 292.380   1
   5  -3  18 1034.51 490.465   8
  -3  -5  18 740.240 613.743  17
  -5  -3  18 531.314 413.944   2
  -5  -3  18 1014.63 575.839  17
   3  -5  18 677.311 302.602  17
  -5   3 -18-96.7794 230.258  10
   3  -5  18 725.109 365.777   8
   3   5 -18-118.718 154.092   1
   3  -5  18 686.932 429.596  16
   5  -3  18 657.468 455.151  16
   5   3 -18 621.214 411.850  11
  -5  -3  18 542.152 417.229  16
   3   5 -18 178.561 349.147  20
  -3  -5  18 729.213 506.968   2
  -3   5 -18-182.650 456.132   7
   3  -5  18-22.1532 233.590  14
  -3  -5  18-296.827 348.692   6
   5  -3  19 1285.70 597.743   6
  -3   5 -19 1066.49 516.664  10
   3  -5  19 950.879 499.364   6
   3  -5  19 1747.28 524.463   8
   5   3 -19 9.81348 166.993   9
  -3  -5  19 979.461 576.000  16
  -3   5 -19 1112.11 501.794   9
  -3   5 -19 700.020 466.153  13
  -3   5 -19 759.289 446.925  12
   3   5 -19 1175.85 382.728  12
  -3  -5  19 1886.47 686.678  17
   3   5 -19 932.361 458.520   3
  -3   5 -19 617.213 450.291   3
   3   5 -19 1422.66 624.374  11
   5  -3  19 2003.30 587.035   2
   3   5 -19 1296.80 693.049   9
  -3   5 -19 681.601 278.542  11
  -3   5 -19 368.970 573.471  20
   5   3 -19-157.001 413.511  10
  -5   3 -19-804.537 508.857  20
  -5  -3  19 1713.62 553.022   5
  -5   3 -19-491.364 334.609   9
   3   5 -19 684.553 548.533  20
  -5   3 -19-37.0069 271.782  10
   3  -5  19 1359.79 595.375   2
   3   5 -19 1063.74 540.570  10
   5   3 -19 376.364 332.063  18
   5  -3  19 2465.93 822.274   8
  -3   5 -19 320.462 203.280  18
   3   5 -19 93.4535 155.956   1
   5   3 -19 422.265 302.508  11
  -5  -3  19 1213.88 567.317   2
  -5  -3  19 1860.58 776.582  17
   3  -5  19 1270.91 409.427  17
  -3  -5  19 1730.80 749.955   2
   3  -5  19 1760.04 733.165  16
   5   3 -19 255.956 176.062   1
   5  -3  19 1885.06 792.006  16
  -5  -3  19 1383.88 584.121  16
   3   5 -19 413.768 438.289  18
  -3   5 -19-1448.59 965.560   7
  -3   5 -19-367.669 668.508  15
  -5   3 -19 235.872 222.948  19
   5  -4   2-4.18441 237.971   8
   5  -4   3 38.8593 51.7128  14
   5  -4   3 9.50153 29.0442   6
   5   4  -3-170.999 285.324  18
   5   4  -3 17.3643 113.193   1
  -5   4  -3 88.1129 70.9163  19
   5  -4   3-26.6664 187.138   8
  -5   4  -3 94.2776 128.434  12
  -5   4  -4 219.922 152.021   3
   5  -4   4 198.776 138.520  14
   5   4  -4 244.595 193.689  13
   5  -4   4 141.966 142.044   6
  -5   4  -4 272.656 176.836  12
  -5   4  -4 331.070 175.967  19
   5   4  -4 198.458 131.444  18
   5  -4   4 159.563 146.557   8
   5   4  -4 51.7914 95.1457   1
  -4   5  -5 280.669 207.534   3
   5  -4   5 91.2529 34.4656   1
  -5   4  -5 173.451 124.354   3
   5  -4   5 214.157 154.316  14
   4   5  -5 184.692 127.809  13
   5   4  -5 218.732 155.354  13
   5  -4   5 178.134 144.517   6
   4  -5   5 4.49764 47.0355   6
  -5   4  -5 254.976 141.678  12
  -4   5  -5 338.139 186.442  12
   5   4  -5 182.933 184.302   1
  -5   4  -5 58.6306 149.256   5
   5   4  -5 348.068 253.478  18
  -5   4  -5 217.836 153.584  19
  -5  -4   5 46.4854 143.828  17
   5  -4   5 216.731 144.522   8
  -5   4  -5 154.535 59.7627   4
   5   4  -6 865.756 398.283  18
  -4   5  -6 644.811 328.116   3
   5   4  -6 396.202 184.303   8
  -5   4  -6 630.273 287.855   3
   5   4  -6 762.011 320.313  13
   5  -4   6 788.579 321.715   6
   4  -5   6 344.564 213.939   6
  -5   4  -6 713.537 267.964  12
  -4   5  -6 666.055 263.079  12
  -5  -4   6 50.5283 80.4873  19
  -5   4  -6 552.120 222.980   5
   4   5  -6 575.801 284.651  18
   5  -4   6 622.022 247.248  14
   5   4  -6 335.030 224.888   1
  -5  -4   6 264.867 255.261  17
   5  -4   6 414.646 164.102   1
  -5   4  -6 626.476 245.511  19
   5  -4   6 505.402 291.896   8
   4   5  -6 747.351 332.115  13
   4  -5   6-19.6853 241.066   8
  -5   4  -6 678.724 276.601   4
  -5   4  -7 2160.42 509.865   4
   5   4  -7 2784.50 598.073  13
  -5   4  -7-123.495 194.100  13
  -5   4  -7 2015.23 463.105  12
   5   4  -7 1333.34 456.158   1
  -5   4  -7 2040.03 423.975   5
   4   5  -7 2702.96 643.112  13
   5  -4   7 1904.47 328.287   1
  -5  -4   7 1144.78 503.341  17
   5   4  -7 2349.68 421.077   8
   5   4  -7 2526.56 634.163  18
  -5  -4   7 1186.70 457.156   2
  -5  -4   7 654.815 240.426  19
  -4   5  -7 2249.46 485.679  12
  -4  -5   7-24.6950 181.890  17
   5  -4   7 1755.18 482.122   8
  -5   4  -7 2102.97 455.977  19
   4   5  -7 2187.31 618.456  18
  -5   4  -7 1870.19 501.533   3
   4  -5   7 650.765 260.919   8
  -4   5  -7 2140.57 556.798   3
   5  -4   7 2035.67 508.647   6
   4  -5   7 1294.46 397.552   6
   5  -4   7 2102.79 451.511  14
   4  -5   7 913.528 284.351  14
   4   5  -8 238.707 148.163   3
  -5  -4   8 173.951 131.372  19
   5   4  -8 242.549 127.661   3
   5  -4   8 324.533 182.989  14
   4   5  -8 196.381 199.035  18
  -5   4  -8 381.787 216.862   4
  -4   5  -8 172.502 86.9783   4
  -4   5  -8 37.7713 26.1701  13
  -4   5  -8 326.381 211.843   3
  -5   4  -8 212.840 140.391  12
   4   5  -8 279.880 195.439  13
  -4   5  -8 337.022 198.253  12
   5  -4   8 285.538 121.055   1
   5  -4   8 366.630 218.449   6
  -5   4  -8 292.071 164.819  19
  -4  -5   8 69.9133 71.3137   6
  -4  -5   8 95.6164 298.781  17
   5  -4   8 20.4478 256.832  16
   5   4  -8 285.626 193.859  18
  -5   4  -8 359.312 242.429   3
  -4   5  -8 137.124 36.8093  19
  -5   4  -8 27.1102 37.8656  13
   5   4  -8 391.254 165.208   8
  -5  -4   8 261.506 214.933   2
  -5  -4   8 27.4023 32.3802   6
   5   4  -8 330.824 234.718  13
   5   4  -8 165.309 149.105   1
  -5  -4   8 131.342 157.422  17
   5  -4   8 450.609 298.459   8
   4  -5   8 81.1919 110.890   8
  -5   4  -8 336.462 189.334   5
   4  -5   8 232.778 183.795   6
   4  -5   8 192.935 127.272  14
   4   5  -9 1117.16 415.471  18
   5  -4   9 1421.61 385.251  14
   5   4  -9 1605.71 530.825  13
  -4   5  -9 406.356 269.199  13
  -5   4  -9 387.970 253.436  13
  -4  -5   9 584.950 191.735   6
   4  -5   9 1124.37 396.657   6
  -4   5  -9 1573.02 400.022  12
  -5   4  -9 998.735 407.112   3
  -5   4  -9 1146.72 399.537  12
   5  -4   9 1346.21 258.546   1
  -5  -4   9 799.647 357.264   2
  -4   5  -9 992.646 251.181   5
  -5   4  -9 1251.24 416.953   4
  -5   4  -9 1075.62 307.675   5
   4   5  -9 193.729 214.569   1
   4   5  -9 1680.92 523.286  13
  -4  -5   9 83.8184 96.7563  19
  -4   5  -9 1015.52 284.173  19
   5  -4   9 929.465 402.067  16
   5   4  -9 1521.47 495.575  18
   5   4  -9 1209.63 245.644   8
  -4  -5   9 510.212 403.599  17
   5  -4   9 1456.58 212.354  17
  -5  -4   9 869.972 432.140  17
   5  -4   9 1331.34 448.789   8
  -5   4  -9 1233.89 377.503  19
  -5  -4   9 392.868 201.587  16
   4  -5   9 559.033 245.365   8
   5   4  -9 756.729 389.644   1
  -5  -4   9 858.768 261.113  19
  -4   5  -9 1127.21 343.679   4
   5   4  -9 84.0625 131.229  15
   4   5  -9 1319.46 360.316   3
   5  -4   9 1402.31 455.029   6
   5   4  -9 1517.94 382.394   3
   4  -5   9 1025.32 293.094  14
  -4   5  -9 1241.87 448.050   3
   4   5 -10 1526.98 523.355  13
  -4  -5  10 272.842 132.634   6
   5  -4  10 1246.69 456.954   6
  -4   5 -10 650.461 293.040  13
  -4   5 -10 878.261 394.084   3
   5   4 -10 1307.95 537.404   1
  -4   5 -10 1303.42 373.672  12
  -4   5 -10 873.850 235.465   5
  -5   4 -10 2094.86 479.427  19
  -5   4 -10 1536.56 299.192  11
   4  -5  10 672.781 144.221   1
  -5   4 -10 570.916 127.374  18
  -4  -5  10 140.724 225.939  17
   4   5 -10 348.572 285.507   1
  -5   4 -10 1093.64 431.525   4
   4  -5  10 723.398 294.690   6
  -4  -5  10 489.329 116.616  19
   4  -5  10 102.883 304.628  16
   5  -4  10 765.383 191.666   1
  -4   5 -10 706.336 236.380  19
  -5  -4  10 600.568 333.066  16
  -5  -4  10 735.023 382.314   2
   4   5 -10 1054.16 440.920  18
  -4   5 -10 1147.64 359.275   4
   5   4 -10 380.111 147.204   8
   5  -4  10 908.130 152.522  17
   4  -5  10 1060.93 235.919  17
  -4   5 -10 861.087 219.714  18
  -5  -4  10 472.993 410.737  17
  -4  -5  10 444.068 246.089   2
   5  -4  10 1568.64 525.321   8
  -4  -5  10-203.397 303.354  16
   5  -4  10 1016.27 436.421  16
   4  -5  10 623.396 255.182   8
   5  -4  10 1231.64 365.013  14
   5   4 -10 1147.08 451.509  18
  -5  -4  10 809.669 266.142  19
   4   5 -10 1043.81 350.042   3
   4  -5  10 862.026 265.343  14
  -5  -4  10-120.700 123.305   6
  -5   4 -10 966.084 359.760   5
  -5   4 -10 1293.72 526.280   3
  -5   4 -10 1033.94 449.437  13
   5  -4  11 15.3014 42.3580  14
   5   4 -11 44.8956 133.368  18
   4  -5  11 72.9609 148.007  14
  -4   5 -11-5.67801 62.8573  18
  -4  -5  11 66.9267 109.935   6
   4  -5  11 85.4051 106.233   8
  -5   4 -11-28.4643 53.5357  12
   4  -5  11-14.3721 36.2382   6
  -5   4 -11 30.6478 82.2193  13
   4   5 -11 13.7048 83.8165  13
   4   5 -11 17.3765 84.3549   3
   5   4 -11 12.5577 140.674  13
   5   4 -11-77.4298 116.609   3
  -4   5 -11-112.873 172.709   3
  -4   5 -11 10.0982 74.5912  19
  -4   5 -11 133.202 149.742  12
  -4   5 -11-82.6335 109.564  13
  -5   4 -11 41.7660 126.420   3
   5   4 -11-24.4939 65.5708  12
   5   4 -11 292.520 391.154  11
  -5   4 -11 13.1958 15.9055   5
  -5   4 -11 7.03859 48.6465  11
   5   4 -11 88.0742 100.507  20
  -4   5 -11 42.4813 80.1794   5
  -5  -4  11 0.30605 27.9024  19
  -5   4 -11-12.2187 32.0877  18
   4  -5  11 188.934 268.002  16
   4   5 -11 93.0710 154.502   1
   4   5 -11 12.0726 159.203  18
   5  -4  11 29.1287 58.8963   1
   4  -5  11 257.042 137.567  17
  -4  -5  11 128.252 212.949  17
  -5  -4  11 95.2231 209.614  17
  -5   4 -11 13.8966 71.0345   4
  -5  -4  11 98.5112 197.718   2
   5  -4  11 29.8529 32.7366  17
  -5   4 -11-77.9996 139.052  19
   5  -4  11 47.2351 136.647   8
  -4   5 -11-26.0634 79.1064   4
  -4  -5  11-25.6821 177.355  16
  -5  -4  11 109.131 155.910  16
   5  -4  11 136.414 229.153  16
   5  -4  11 96.9802 144.109   6
   5   4 -11-18.0150 92.8717   1
  -4  -5  11 43.3470 147.841   2
  -4  -5  11 77.2936 65.0210  19
   5   4 -12 349.370 208.410   1
   5   4 -12 699.722 416.560  20
   5  -4  12 718.876 287.988  14
  -4  -5  12 397.437 275.090   2
  -4  -5  12 123.442 85.9922   6
   5  -4  12 547.402 328.067  16
   4  -5  12 889.889 373.862   6
  -4   5 -12 286.239 242.997  13
   4   5 -12 647.816 273.830   3
  -5   4 -12 355.137 204.301  13
   5   4 -12 764.803 377.304  13
  -5  -4  12 528.025 275.344  16
   5   4 -12 518.384 129.262  12
  -4   5 -12 490.147 307.197   3
   5   4 -12 738.447 275.387   3
  -5   4 -12 467.576 255.035  12
  -4   5 -12 404.389 261.790  12
  -5   4 -12 414.006 311.356   3
   4   5 -12 466.548 143.824  12
  -5  -4  12 352.005 149.207   5
   5   4 -12 772.835 422.900  11
   4   5 -12 624.709 325.541  13
  -4   5 -12 530.046 216.624   5
  -5   4 -12 545.972 162.231  11
   5  -4  12 319.169 104.399  17
   5   4 -12 1089.77 528.501  10
   4   5 -12 268.697 225.958   1
  -5   4 -12 423.884 220.430  19
  -4   5 -12 346.045 157.535  19
  -4  -5  12 657.072 401.169  17
  -5  -4  12 190.458 73.8028  19
  -5  -4  12 580.754 375.420   2
   4   5 -12 854.923 430.992  18
  -4   5 -12 651.125 190.120  18
   5  -4  12 663.170 301.147   6
   5   4 -12 759.820 357.409  18
   4  -5  12 774.681 262.001  14
  -5   4 -12 31.4349 44.0616  18
   4  -5  12 429.073 250.923  16
   4  -5  12 491.317 231.085   8
  -5   4 -12 363.378 286.425   4
  -5   4 -12 818.627 449.966  20
  -4   5 -12 481.884 236.994   4
  -4  -5  12 229.753 89.9952  19
  -5  -4  12 303.233 163.010  17
  -4  -5  12 398.647 268.775  16
   4   5 -12 684.726 372.472   7
   5  -4  12 671.099 343.996   8
   4   5 -12 493.142 327.185  15
   4  -5  12 736.293 188.347  17
   5  -4  13 973.659 354.679  14
  -4  -5  13-1.36740 30.9458   6
   4  -5  13 850.094 293.868  14
  -5   4 -13 910.293 488.493  20
   5   4 -13 638.325 337.650   1
   5  -4  13 1057.44 491.224   6
   4  -5  13 815.262 386.908   6
  -4   5 -13 200.456 171.246  13
  -5   4 -13 332.538 210.103  13
   4   5 -13 963.705 340.493   3
  -4   5 -13 658.131 180.228  18
   5   4 -13 821.491 176.152  12
   4   5 -13 694.132 191.301  12
  -5   4 -13 724.494 345.386  12
  -4   5 -13 634.918 340.768   3
  -4   5 -13 692.335 288.783  12
  -5   4 -13 503.662 217.790  19
  -5   4 -13 614.855 343.167   3
   5  -4  13 778.472 381.447  16
   4   5 -13 1467.27 687.596  11
  -4   5 -13 1424.60 404.495  11
  -5  -4  13 509.273 279.264   5
   5   4 -13 840.893 442.738  11
  -5   4 -13 490.431 159.104  11
   5   4 -13 409.653 193.173  20
  -4   5 -13 573.071 236.390  19
   5   4 -13 770.569 386.735  18
  -5   4 -13 111.752 145.130   4
   4   5 -13 1042.66 457.268  13
  -5  -4  13 670.707 435.177  17
  -5   4 -13 1010.25 430.437  10
   4   5 -13 294.948 161.156   1
  -5  -4  13 715.962 343.293  16
   4   5 -13 807.130 367.966  18
  -4   5 -13 801.085 353.108   4
   4  -5  13 978.332 274.295  17
   5  -4  13 1062.97 410.821   8
   5   4 -13 714.102 379.607  10
   4  -5  13 846.638 334.432   8
  -4  -5  13 582.366 355.537   2
  -5  -4  13 827.062 419.463   2
  -4  -5  13 448.590 255.216  16
   4  -5  13 698.458 400.556  16
   4   5 -13-22.5804 350.631   7
   4   5 -13 188.375 161.134  15
  -5   4 -13 1233.78 710.368   7
  -4  -5  13 803.860 402.053  17
  -5   4 -13 1249.37 713.548  15
   5   4 -13 1036.18 343.105   3
   5  -4  14 502.607 244.510  14
   4  -5  14 400.577 200.607  14
   5  -4  14 440.764 301.140   6
   5   4 -14 247.359 214.756   1
   4  -5  14 522.044 329.529   6
  -5   4 -14 229.384 250.009  10
   5   4 -14 272.298 237.250  20
  -4   5 -14 306.973 140.374  19
  -4   5 -14 214.657 200.804  13
  -4   5 -14 232.481 139.681  12
  -5   4 -14 193.831 51.4607  13
   4   5 -14 130.591 131.858  13
   4   5 -14 365.717 235.870   3
  -5   4 -14 371.508 374.492  12
  -4   5 -14 213.243 218.359   3
   4   5 -14 394.980 163.767  12
   5   4 -14 527.083 261.069   3
  -5   4 -14 131.846 87.0497  19
  -5   4 -14 360.123 325.695   3
  -4   5 -14 193.089 109.265  18
   4   5 -14 917.107 548.181  11
  -5  -4  14 101.678 74.5848   5
  -4   5 -14 435.199 195.530  11
   5   4 -14 568.102 420.560  11
  -5   4 -14 118.839 65.7657  11
  -5   4 -14 285.625 316.253  20
   4   5 -14 698.149 519.547  20
  -5   4 -14 1161.96 498.550   9
  -4  -5  14 251.218 196.258  16
   5   4 -14 255.708 277.034  10
  -5  -4  14 609.438 407.780   2
   4  -5  14 275.322 261.402   8
  -4  -5  14 485.633 402.033   2
   5   4 -14 1454.85 668.069   9
   4  -5  14 478.423 330.205  16
   5   4 -14 400.852 274.625  18
  -4   5 -14 102.689 51.6795   4
   4   5 -14 501.674 277.545  18
  -4  -5  14 575.517 379.603  17
   4   5 -14 69.0000 114.089   1
  -5  -4  14 224.363 273.302  17
   4  -5  14 411.930 137.788  17
  -4  -5  14-12.5441 33.4289   6
   5  -4  14 667.273 336.812   8
   5  -4  14 511.654 370.816  16
  -5  -4  14 517.770 296.694  16
  -5   4 -14 486.785 476.442   7
  -5   4 -14 443.608 435.558  15
   5   4 -14 325.187 118.737  12
   5  -4  15 275.084 169.384  14
   4  -5  15 299.662 188.668  14
  -4  -5  15 297.209 301.028   2
  -5   4 -15 368.890 273.466   9
   4  -5  15 253.393 250.287   6
   5   4 -15 143.909 189.146   1
   5  -4  15 277.740 266.626   6
  -4   5 -15 120.920 145.901  13
  -5   4 -15 251.504 206.000  13
   4   5 -15 418.159 342.604  13
  -5   4 -15 292.854 383.974  12
   5   4 -15 289.763 138.717  12
  -4   5 -15 16.0187 99.7706  12
   4   5 -15 411.829 260.220   3
   5   4 -15 59.4881 188.376  20
   4   5 -15 260.479 95.3348  12
  -4   5 -15 227.715 252.752   3
   5   4 -15 312.821 233.104   3
  -5   4 -15 213.618 306.026   3
   4   5 -15 435.338 335.540  11
  -5  -4  15 284.231 297.872   5
  -4   5 -15 247.810 64.5153  11
   5   4 -15 477.058 335.181  11
   4   5 -15-41.7178 39.6729  18
  -4   5 -15 416.029 389.353  20
  -4   5 -15 323.322 177.682  19
   4   5 -15 256.334 213.847  20
   5  -4  15 218.737 198.485   2
   4   5 -15 875.024 579.856  10
   4  -5  15 166.689 227.597  16
  -4  -5  15 334.306 297.618  17
  -5  -4  15 241.598 217.290   2
   5   4 -15 345.471 282.555  18
  -4   5 -15 142.201 95.3685  18
  -4   5 -15 1157.95 751.698  15
  -5   4 -15 9.68042 60.1282  20
  -5  -4  15-36.0941 164.066  17
   5  -4  15 298.204 268.145   8
  -5   4 -15 198.764 160.661  19
  -5   4 -15 56.1156 91.8410  11
   4  -5  15 211.739 134.036   8
   4  -5  15 262.436 116.588  17
  -4  -5  15 380.466 335.489  16
   5  -4  15 338.555 366.449  16
  -5  -4  15 479.364 302.270  16
   4   5 -15 137.699 155.780   1
   5   4 -15 278.560 306.931  10
  -5   4 -15 239.334 236.542   7
  -4   5 -15 864.367 707.404   7
  -5   4 -15 211.137 128.330  10
  -5   4 -15 40.8233 281.145  15
   5   4 -15 714.624 479.149   9
  -4  -5  15 24.6656 84.1984   6
   4  -5  16 232.618 165.833  14
   4   5 -16 234.749 144.060  12
   5  -4  16 334.398 271.433   6
   4  -5  16 153.089 200.416   6
  -4   5 -16 146.135 251.201  15
  -4  -5  16 196.767 287.893  16
  -4   5 -16 130.995 184.164  13
   4   5 -16 446.583 362.826  13
  -5   4 -16 379.113 379.373  13
   5   4 -16 306.619 182.348  12
   5   4 -16 156.237 202.859   1
  -4   5 -16 272.387 236.831  12
  -5   4 -16 380.872 320.963   9
   4   5 -16 431.472 285.006   3
  -4   5 -16 321.720 293.428   3
  -4  -5  16 115.502 139.627  17
   4  -5  16 245.279 151.940   8
   5   4 -16 448.885 292.376   3
   4   5 -16 131.795 172.326  11
  -4   5 -16 135.516 78.5978  18
  -5  -4  16 207.447 247.610   5
   5   4 -16 422.151 273.694  11
  -4   5 -16 344.480 173.414  11
  -4   5 -16-61.4639 236.057  20
  -5   4 -16 458.711 411.745  20
   5   4 -16 247.716 269.557  20
   5   4 -16 43.5201 163.108   9
   4   5 -16 297.539 367.625  10
   4   5 -16 164.980 296.610  20
   5  -4  16 444.862 307.478   2
   5  -4  16 693.449 377.285   8
   4   5 -16 123.294 146.068  18
  -5   4 -16 185.257 156.219  19
  -4   5 -16 145.320 125.398  19
  -4   5 -16 395.085 340.634  10
  -4  -5  16 426.615 348.781   2
   4  -5  16 301.812 289.412  16
   5   4 -16 115.888 242.260  18
  -5  -4  16 301.927 375.632   2
  -5  -4  16 214.886 210.133  16
  -5   4 -16 441.950 345.727  10
  -5  -4  16 309.832 327.373  17
   4  -5  16 255.310 141.761  17
   4   5 -16 63.5044 95.2789   1
   5   4 -16-87.1274 174.265  10
   5  -4  16 214.798 300.630  16
  -5   4 -16-56.5689 383.572   7
  -4   5 -16 621.092 577.621   7
  -5   4 -16 50.5535 82.2477  15
  -4  -5  16-96.1463 197.960   6
  -5   4 -16-90.7873 208.012  11
   5  -4  16 205.116 197.347  14
   4   5 -17 24.4173 90.3165  18
   4  -5  17 33.4599 101.749   6
  -4   5 -17-96.2948 213.913  10
  -5  -4  17 78.3273 186.382  17
   5   4 -17-38.5466 145.469   1
  -4   5 -17 118.852 193.654  13
   4   5 -17 230.444 298.323  13
   5   4 -17 128.384 175.314  12
   4   5 -17 228.162 325.419  10
   4   5 -17-5.04869 133.471  12
   4   5 -17 71.1624 145.943   3
  -4   5 -17 856.836 568.232   9
  -4   5 -17-223.289 265.316   3
  -4   5 -17-88.7278 219.402  20
   4   5 -17-177.414 322.865  11
  -5  -4  17 53.2022 148.883   5
   5   4 -17 510.335 398.991  11
  -4   5 -17 9.12833 151.039  11
   4  -5  17 199.147 192.684   2
   4   5 -17 79.5290 328.414  20
  -5   4 -17-209.211 225.646  20
   5   4 -17-79.4372 345.677  20
  -4   5 -17-4.10050 57.3450  18
  -5   4 -17-10.6011 37.5299  19
  -4   5 -17 62.8438 61.5479  19
   4   5 -17 1569.00 797.264   9
   5   4 -17 71.4332 267.864   9
  -5  -4  17-83.8069 178.388  16
  -4  -5  17-255.881 249.125   2
   4   5 -17 139.361 295.253   1
   5   4 -17 32.9213 191.376  18
   5  -4  17 199.077 218.683   2
  -5   4 -17 101.415 224.051   9
  -4   5 -17 29.0772 80.0322  12
  -4  -5  17-57.3802 93.9391  16
  -4  -5  17-265.859 363.436  17
   5  -4  17 62.2454 192.612   6
   5  -4  17 53.4662 214.771   8
   4  -5  17 56.4945 55.4716  17
   4  -5  17 156.580 251.204   8
  -5  -4  17 125.068 203.208   2
   4  -5  17-14.6907 61.3041  14
   5   4 -17-60.1222 233.326  10
  -5   4 -17 159.482 313.726  10
   4  -5  17 99.4545 191.405  16
   5  -4  17-28.9087 121.172  16
  -5   4 -17-967.813 793.783   7
  -4   5 -17 113.987 112.657   7
  -5   4 -17-394.336 642.289  15
  -4   5 -17-45.4286 335.497  15
   5  -4  17-21.4066 155.704  14
   4  -5  18 208.729 188.957   6
   5  -4  18 509.546 434.556   8
  -4   5 -18-268.358 281.534  13
   4   5 -18 262.945 384.739  10
  -4   5 -18 191.056 318.592  12
   4   5 -18 301.020 299.551  12
   5   4 -18 30.0547 143.922   1
  -4   5 -18 220.541 304.197   3
   4   5 -18 75.8279 174.408  18
   4   5 -18 167.292 239.597  11
  -5  -4  18 178.784 107.848   5
   5   4 -18 116.829 242.974  11
  -4   5 -18 87.4801 98.7344  11
  -5   4 -18 75.8883 190.153  20
   4   5 -18 530.331 410.112   3
   4  -5  18 402.049 374.642   2
  -4   5 -18 184.494 198.109  10
  -5   4 -18 29.9542 42.1170  19
   5   4 -18 154.805 234.285  10
   5   4 -18 761.090 518.698   9
   5  -4  18 339.323 336.966   6
  -4  -5  18 691.515 435.445   2
  -4   5 -18 184.981 97.4349  19
   5   4 -18-425.787 307.840  18
  -5  -4  18 193.655 259.873   2
   4   5 -18 1221.51 613.137   9
   4   5 -18 280.702 426.143  20
  -4   5 -18 114.775 336.351  15
  -4  -5  18 515.443 288.938  17
   4  -5  18 305.006 236.788   8
  -5  -4  18 87.9541 117.482  17
   5   4 -18-629.730 548.578  20
   4  -5  18 47.0372 70.8917  17
  -4   5 -18 329.871 397.534  20
  -5   4 -18-214.575 248.116   9
   4  -5  18 454.146 398.833  16
  -4  -5  18 545.646 383.109  16
   5  -4  18 318.292 199.717   2
   5  -4  18 293.487 334.103  16
  -5  -4  18 316.156 278.393  16
  -4   5 -18 451.317 313.544   9
   4   5 -18 97.9981 242.005   1
  -4   5 -18-437.099 622.022   7
   5  -4  18-103.990 215.141  14
   4  -5  18 44.9647 53.2463  14
  -5   4 -18 168.054 157.557  10
  -5   5  -4 147.211 57.5584  12
   5  -5   4 41.7226 85.6521   6
  -5   5  -5-44.8145 88.8528   3
   5   5  -5-58.3984 178.440  13
   5  -5   5-8.95289 76.7572   6
  -5   5  -5-21.7149 90.6984  12
   5   5  -5-101.168 204.982  18
  -5   5  -6 243.159 187.198   3
   5  -5   6 99.5507 112.943  14
   5   5  -6 287.613 169.440  13
   5  -5   6 154.041 141.482   6
  -5   5  -6 221.633 159.238  12
   5   5  -6-44.6511 143.763   1
   5   5  -6 392.949 312.438  18
  -5  -5   6 14.3093 288.565  17
   5  -5   6 22.0377 114.526   8
  -5   5  -6 122.448 72.4702  19
  -5   5  -7-35.5472 112.388   3
   5  -5   7 9.34113 84.0050  14
  -5   5  -7-69.6956 115.545  12
   5   5  -7-73.4533 164.341  13
   5   5  -7-84.6573 160.199  18
   5   5  -7 4.63430 69.9817   1
  -5   5  -7-8.39772 64.0648  19
  -5   5  -7-50.3047 148.337   4
  -5  -5   7-12.7292 121.764  17
   5  -5   7 11.2117 117.308   6
   5  -5   7-11.1712 52.5335   8
  -5   5  -8 1170.18 408.258   3
  -5   5  -8 1605.24 427.737  12
   5  -5   8 1061.49 382.790   6
  -5  -5   8 470.312 158.655   6
  -5   5  -8 990.819 291.033   5
   5  -5   8 728.072 193.314   1
  -5   5  -8 1165.77 325.019  19
  -5  -5   8 366.556 174.406  19
   5   5  -8 2043.52 635.113  18
  -5  -5   8 786.822 456.263  17
  -5   5  -8 1245.33 380.308   4
   5  -5   8 829.995 345.944   8
   5   5  -8 2135.84 567.242  13
   5   5  -8 1266.03 475.935   1
   5   5  -8 1736.07 402.560   8
   5  -5   8 1083.73 318.949  14
   5   5  -9-31.2760 97.8506   3
  -5   5  -9 0.64051 41.8972  19
   5  -5   9-54.8951 105.830  14
  -5   5  -9 12.8350 98.1480  13
  -5   5  -9 4.37447 67.9246   3
   5   5  -9-97.2268 163.771  13
  -5  -5   9-29.4753 35.6129   6
   5  -5   9 22.2326 45.5944   6
  -5   5  -9-62.1575 98.1332  12
   5   5  -9-85.5391 154.367   1
  -5   5  -9 56.0710 73.2007   4
   5   5  -9-140.332 242.796  18
  -5   5  -9 20.6854 56.5361   5
  -5  -5   9 18.3915 115.496  19
   5  -5   9-21.6380 54.0271   1
   5   5  -9-39.5409 102.117   8
  -5  -5   9-58.9943 186.513  17
   5  -5   9-48.0809 32.4375   8
   5   5 -10 78.9436 105.685   3
   5  -5  10-24.1320 66.1837  14
  -5  -5  10-50.8163 71.0594   6
   5  -5  10 30.5336 92.4326   6
  -5   5 -10 120.914 172.935  13
   5  -5  10-66.9180 97.0292   8
  -5   5 -10 23.3120 78.7982   3
   5   5 -10 135.811 216.363  13
   5  -5  10 26.5730 22.5973   1
  -5  -5  10-44.9323 171.448   2
  -5   5 -10 53.8914 64.8437  12
  -5   5 -10 5.36992 25.9958  18
   5   5 -10-9.06565 41.8327   8
  -5  -5  10-46.1502 62.7411  19
  -5   5 -10 70.2813 102.940  19
   5   5 -10-26.0274 55.1315   1
   5  -5  10-13.3413 34.1774  17
  -5  -5  10 165.769 397.677  17
  -5   5 -10 50.5587 103.085   5
  -5   5 -10 11.2049 70.0117   4
   5  -5  10-157.803 387.649  16
   5   5 -10 3.03316 76.1815  18
  -5   5 -11-9.17520 83.9332   4
  -5  -5  11 1.60277 49.8968   6
   5  -5  11 22.4422 71.3614  14
   5   5 -11-34.4257 80.1767   3
  -5   5 -11 48.2609 65.0293  13
   5  -5  11 2.57640 84.4477   6
   5   5 -11-7.49332 139.049  13
  -5   5 -11-34.4636 51.4712   3
  -5   5 -11-43.6634 61.9815   5
  -5   5 -11-42.7907 96.1442  12
   5  -5  11 13.6358 84.2333   8
  -5  -5  11-31.6691 145.769   2
   5  -5  11 30.8906 63.2290  17
  -5   5 -11-0.77791 4.47643  18
  -5   5 -11-34.4430 73.8875  19
   5   5 -11 106.607 203.723  18
   5   5 -11 154.833 190.251   1
  -5  -5  11 25.8804 81.9410  17
  -5  -5  11-8.67022 41.1986  19
  -5  -5  11-386.070 234.999  16
   5  -5  11-116.479 155.347  16
   5   5 -11 72.6705 197.233   7
   5  -5  11 13.0911 60.6818   1
   5   5 -11 5.76502 156.362  15
   5   5 -12 416.557 281.545  18
  -5  -5  12-17.3368 63.2722   6
   5  -5  12 557.026 232.971  14
  -5  -5  12 255.606 190.534  16
  -5  -5  12 389.509 125.936  19
   5   5 -12 696.166 274.286   3
   5  -5  12 629.026 346.372   6
  -5   5 -12 195.420 150.751  13
   5   5 -12 794.147 352.009  13
  -5   5 -12 385.552 218.687   3
  -5   5 -12 339.883 181.666  12
  -5   5 -12 1172.62 354.883  11
  -5   5 -12 487.597 255.458   5
   5   5 -12 232.211 185.371   1
  -5   5 -12 448.146 195.555  19
   5  -5  12 706.678 205.153  17
  -5  -5  12 489.514 308.746   2
   5   5 -12-206.718 379.246  15
  -5   5 -12 505.343 152.896  18
   5  -5  12 629.211 342.104   8
  -5  -5  12 188.166 198.026  17
   5  -5  12 204.233 98.8067   1
  -5   5 -12 606.180 308.314   4
   5  -5  12 351.958 278.782  16
   5   5 -13 19.8120 43.2459  13
  -5   5 -13 20.6400 48.1729  13
  -5  -5  13 56.2191 239.968  17
   5   5 -13 187.263 380.578  20
   5  -5  13-7.75843 15.2401  14
  -5  -5  13 29.4676 168.157   2
   5  -5  13-104.114 158.713   6
   5  -5  13-17.0496 88.5335  16
   5   5 -13 1.05821 73.2911   3
  -5   5 -13 4.97527 58.1233   3
  -5   5 -13 34.5589 114.797  12
   5   5 -13-51.4900 88.7934  12
   5   5 -13 354.136 488.500  11
  -5   5 -13 108.174 99.8338  11
   5   5 -13 92.4247 131.646  18
  -5   5 -13 7.62648 41.3813  19
  -5  -5  13-37.0712 30.3131  19
  -5   5 -13 1.50594 89.3071   4
   5  -5  13-17.4854 36.8406  17
   5   5 -13-2.23841 110.132   1
  -5   5 -13-45.6611 82.6665  18
   5  -5  13-21.2331 107.368   8
  -5  -5  13-62.1308 78.0202  16
  -5  -5  13 113.307 124.111   6
   5  -5  14 946.265 304.051  14
  -5   5 -14 88.7183 151.534  13
   5   5 -14 1022.85 442.727  13
   5   5 -14 941.658 331.835   3
   5   5 -14 678.374 177.724  12
  -5   5 -14 747.891 351.416  12
  -5   5 -14 452.577 295.537   3
   5   5 -14 1131.26 527.235  18
   5   5 -14 1448.30 619.118  11
  -5   5 -14 955.866 276.000  11
  -5   5 -14 1106.36 609.889  20
   5   5 -14 925.337 556.800  20
  -5  -5  14 1133.42 586.224  17
  -5  -5  14 1039.93 500.037   2
  -5   5 -14 593.320 250.378  19
  -5   5 -14 291.369 124.160  18
   5  -5  14 859.342 424.706   6
   5  -5  14 831.031 231.703  17
   5   5 -14 346.220 239.153   1
   5  -5  14 1171.99 408.872   8
  -5   5 -14 381.387 233.792   4
   5  -5  14 872.232 483.375  16
  -5  -5  14 525.054 312.473  16
  -5  -5  14-133.606 213.427   6
   5  -5  15 47.0556 103.573  14
  -5  -5  15 97.4798 138.762  16
   5  -5  15-126.352 190.634   6
  -5   5 -15 623.721 675.380   7
   5   5 -15-66.2083 164.663   1
   5   5 -15 93.2059 273.510  13
   5   5 -15-26.2918 39.2156   3
  -5   5 -15-10.6637 62.2635  12
  -5   5 -15 99.1779 229.093   3
   5   5 -15 91.9950 296.612  11
  -5   5 -15 109.631 69.2266  11
   5   5 -15-100.765 272.149  20
   5   5 -15 473.377 529.079  10
  -5  -5  15-14.4360 128.543   2
  -5   5 -15 125.588 157.253  19
  -5   5 -15 186.139 178.941  13
   5   5 -15 96.1290 220.609  18
  -5   5 -15-199.716 369.101   4
  -5   5 -15-16.5858 68.3267  18
  -5  -5  15-99.8768 235.988  17
   5  -5  15-6.49804 20.8648  17
   5  -5  15 115.099 222.485   8
  -5   5 -15 439.414 435.735  10
   5  -5  15 76.0151 242.506  16
  -5   5 -15 170.334 328.488  20
   5   5 -15-10.6632 25.0021  12
  -5   5 -15 749.491 682.135  15
  -5   5 -16 247.112 297.300  20
   5   5 -16 56.0940 300.413  20
   5  -5  16 199.904 232.806   6
  -5   5 -16-130.430 159.604  13
   5   5 -16 1.19350 50.1936  13
  -5   5 -16 1222.11 575.453   9
  -5   5 -16 56.0566 54.2660  12
   5   5 -16 70.0092 173.218   3
   5   5 -16 62.3645 84.6299  12
  -5   5 -16 164.323 188.167   3
   5   5 -16 22.4849 165.541  11
  -5   5 -16 155.613 112.906  11
  -5   5 -16 440.359 318.332  10
   5  -5  16 76.3805 86.3942  14
  -5  -5  16 55.1057 163.978   2
   5   5 -16 65.6127 61.2472  18
   5   5 -16-108.517 148.012  10
   5  -5  16 211.632 252.438   8
  -5   5 -16 70.7987 69.8708  19
  -5   5 -16 240.203 360.631  15
  -5  -5  16-137.843 217.386  16
   5  -5  16 188.139 326.953  16
   5   5 -16 55.0948 232.891   1
  -5  -5  16-106.146 129.040  17
  -5   5 -16 615.102 703.786   7
   5  -5  17 67.8478 131.660  14
   5  -5  17-14.6667 120.745   6
  -5   5 -17 46.0693 120.847  12
  -5   5 -17 108.081 187.668  20
  -5   5 -17 41.9194 111.856  19
  -5   5 -17 91.2867 224.979   3
  -5  -5  17 3909.31 1009.60   2
   5   5 -17 1110.46 736.208  11
  -5   5 -17-50.3582 131.070  11
   5   5 -17 1951.97 1038.44  20
  -5   5 -17-13.2272 147.012  10
  -5   5 -17 337.908 320.866   9
   5  -5  17 291.002 353.783  16
   5   5 -17 94.7852 413.849  18
   5  -5  17 285.420 283.068   8
  -5  -5  17 2610.46 804.597  16
  -5   5 -17-165.639 200.940  13
   5   5 -17 1782.85 674.171   1
  -5   5 -17-284.037 131.195   7
  -5   5 -17 31.5966 225.771  15
   5   5 -17 2367.91 671.880   3
  -5   5 -18 309.789 216.650   9
   5  -5  18 136.289 157.965   6
   5   5 -18 567.196 461.348  13
  -5   5 -18 131.105 377.695  12
   5  -5  18 142.950 174.524  14
   5   5 -18 291.831 261.343   3
  -5   5 -18 175.325 249.068   3
   5   5 -18 289.375 385.226  18
   5   5 -18 606.837 530.931  11
   5   5 -18 447.298 403.729  10
  -5   5 -18 527.710 563.595  20
  -5   5 -18 204.537 176.419  19
   5   5 -18 871.142 672.068   9
  -5  -5  18 336.423 345.941   2
  -5   5 -18 198.218 275.169  10
  -5   5 -18-38.2145 57.2413  11
   5   5 -18 70.2994 344.614  20
  -5  -5  18 319.980 484.135  17
  -5   5 -18 43.1426 158.022  13
   5  -5  18 380.508 288.606   8
  -5  -5  18 270.835 322.800  16
   5  -5  18 256.363 264.568  16
  -5   5 -18-724.866 602.036   7
   5   5 -18 61.2980 120.740   1
  -5   5 -18 24.4451 301.357  15
   6   0   0 58.0222 39.1702  14
  -6   0   0-12.7036 20.3818   3
   6   0   0 83.7374 80.6560   6
  -6   0   0 34.5476 54.9486  12
   6   0   0 36.7044 67.3259  11
  -6   0   0 98.1302 107.908   5
   6   0   0 72.4081 159.497   8
  -6   0   0 70.2033 116.799  19
   6   0   0 60.3371 93.2932   1
  -6   0   0 103.755 113.879   2
   6   0   0 42.0878 71.2498  18
  -6   0   0 113.279 117.817  17
  -6   0   0 70.1244 84.9300   4
   6   0  -1 24.4082 60.1553  14
  -6   0   1-34.6908 69.2982  17
   6   0   1 8.48808 65.7815  14
   6   0   1-15.9507 2.35306   6
   6   0  -1 19.1427 27.5261   6
  -6   0  -1 58.0828 121.728  12
  -6   0  -1-26.4905 24.2738   3
  -6   0  -1 41.3927 81.4453   2
   6   0   1 11.1326 106.810   1
   6   0   1 36.3566 74.2743  11
   6   0  -1-30.4816 70.5384  11
  -6   0  -1 234.008 231.651  15
  -6   0   1-38.7180 37.5990   2
  -6   0  -1-10.5582 50.4551  19
  -6   0   1-11.7430 49.5825   5
   6   0   1 22.9964 61.7632  18
   6   0  -1-43.9932 51.3730  18
   6   0  -1-30.2462 48.1193   1
  -6   0  -1 10.8363 51.3092  17
   6   0   1 20.2175 143.150   8
  -6   0  -1-41.9317 34.4298   4
   6   0  -1 38.1671 105.344   8
  -6   0   1-43.3801 80.6936  19
  -6   0   1 31.6621 103.252   4
  -6   0   1 35.7976 62.8651  12
  -6   0  -1-38.0547 94.4820   5
  -6   0   2 178.044 143.125  19
   6   0   2 207.732 164.927  14
   6   0   2 232.381 173.089   6
   6   0   2 184.606 165.968   1
   6   0  -2 196.301 102.530   6
   6   0  -2 184.605 142.125  18
  -6   0   2 97.8167 64.8977  12
   6   0   2 421.830 187.250  11
  -6   0  -2 97.4606 143.833   5
   6   0  -2 128.901 114.806  11
   6   0   2 182.321 119.291  18
  -6   0   2 288.949 219.151   5
  -6   0  -2 167.158 163.996  19
   6   0  -2 252.645 163.226  14
  -6   0  -2 117.220 54.4645  17
  -6   0  -2 165.599 192.737   4
   6   0   2 265.714 187.212   8
  -6   0   2 253.301 167.107  17
   6   0  -2 163.541 150.031   8
  -6   0   2 194.807 128.500   2
  -6   0   2 125.178 124.805   4
   6   0   2 216.548 103.048  16
  -6   0  -2 405.830 266.200   7
  -6   0  -2 407.668 274.885  15
   6   0  -2 187.700 127.712   1
  -6   0  -3-34.2633 101.468  19
   6   0   3 14.5407 80.3255  14
   6   0   3 37.9326 58.2055   6
   6   0  -3-12.3557 37.9447   1
   6   0  -3 15.1737 39.9732   6
   6   0  -3 78.6937 103.044  18
  -6   0  -3 41.3952 111.288   5
   6   0   3-22.5623 54.2820   1
   6   0  -3-46.6253 84.8247  11
   6   0  -3 44.5919 63.4004   8
  -6   0   3-4.64272 95.0508  19
   6   0   3 91.1088 106.193  18
   6   0   3 59.5971 101.256   8
  -6   0  -3 13.0842 45.1364   4
  -6   0  -3-1.78533 31.2277  17
  -6   0   3-9.12456 58.8234   4
  -6   0   3-3.92127 64.7291   2
   6   0   3 37.1993 66.0157  16
  -6   0   3 15.9104 91.7736   5
  -6   0   3 7.97804 51.0791  17
  -6   0  -3-12.4591 34.4851   7
  -6   0  -3-59.8601 74.4483  15
   6   0  -3 76.6933 94.4420  14
   6   0   4 28.6239 66.5159  14
   6   0  -4 18.2927 55.1142  14
   6   0  -4 35.4038 37.3713   6
   6   0  -4 31.9194 106.638   1
  -6   0   4 4.44378 133.897   5
  -6   0  -4-54.2697 117.771  19
  -6   0   4 52.4918 92.1578   2
   6   0   4 25.6780 44.2553  18
   6   0   4 28.9683 64.9627   6
   6   0  -4-24.3848 85.7785  18
  -6   0   4-1.96330 68.7761  19
   6   0   4-44.7993 75.7289   8
  -6   0  -4 12.7138 8.47206  17
  -6   0  -4-41.7519 167.362   4
  -6   0  -4-39.4473 156.338  15
  -6   0   4 14.3915 74.4037  17
   6   0   4 45.5289 103.395   1
   6   0  -4-1.56335 25.6961   8
  -6   0   4-16.8266 21.4849   4
   6   0  -4 8.71926 29.5942  11
   6   0   4 37.4863 40.5497  16
  -6   0  -4-279.731 217.891   7
  -6   0   4-20.7608 44.4394  16
   6   0   5 24.2736 51.2452  14
   6   0   5 5.34684 17.0557   6
   6   0  -5 8.68530 56.2538  14
  -6   0   5-2.09652 57.8519  19
  -6   0   5-52.0400 93.6484   2
   6   0  -5-121.690 170.614  11
  -6   0  -5 93.0450 201.713  19
   6   0  -5 30.0319 56.1515   1
  -6   0   5-33.0508 63.0276   5
   6   0  -5-30.3697 96.4385  18
  -6   0  -5-148.502 216.721   4
  -6   0   5-30.5622 68.9270  16
  -6   0  -5 18.6492 91.0467  17
   6   0  -5 2.25029 39.8724   8
  -6   0   5-57.0977 117.577  17
   6   0   5-10.3666 79.9178   1
   6   0   5 30.8345 75.2955  18
  -6   0  -5-538.979 318.358   7
   6   0   5 0.65952 52.4086  16
  -6   0   5-6.49874 20.7833   4
  -6   0  -5-390.568 279.177  15
   6   0   5 26.3556 161.837   8
   6   0   6 668.898 300.011   6
  -6   0   6 838.894 290.611   4
  -6   0   6 775.568 334.049  17
   6   0  -6 669.254 286.524   1
   6   0  -6 287.193 153.068  11
   6   0   6 989.326 448.383   8
  -6   0  -6 150.870 196.940  19
   6   0  -6 596.053 286.001  18
  -6   0   6 920.703 335.005   5
  -6   0   6 164.251 89.4242  16
   6   0  -6 105.402 118.378   8
   6   0   6 887.596 286.046  16
   6   0   6 659.452 308.725  14
   6   0   6 451.600 241.780   1
  -6   0   6 793.660 289.774   2
   6   0  -6 688.183 252.719  14
  -6   0   6 831.385 263.168  19
   6   0   7 4.68266 68.0403   6
   6   0  -7 17.6287 71.1963  14
   0   6  -7-84.4611 236.867  13
   6   0  -7 11.1087 24.6452   1
  -6   0   7 16.2921 27.6959  17
  -6   0  -7 27.4653 69.5761  19
   6   0  -7 31.0592 86.9531  18
   6   0   7-11.3681 74.1899   8
  -6   0   7 90.2008 162.021   5
   6   0   7-15.3794 43.0651  16
  -6   0   7-36.8740 94.3277  16
  -6   0   7-61.9112 139.253   4
  -6   0   7 26.7584 30.0234  19
  -6   0   7-25.8827 46.2627   2
   6   0   7 66.0784 149.050  14
   6   0  -7-33.3069 170.199  11
   6   0   8 403.948 248.119   6
  -6   0   8 641.329 294.315   5
   6   0  -8 518.738 240.054  14
   0   6  -8 651.760 352.320  13
   6   0   8 540.002 237.085  16
   0  -6   8 101.974 116.966   6
   6   0  -8 446.406 220.319   1
   6   0  -8 178.658 173.573  11
  -6   0  -8-103.967 168.382  19
   6   0  -8 236.890 185.968  18
   6   0   8 430.079 327.747   8
  -6   0   8 515.819 293.183  17
  -6   0   8 134.991 64.4177  16
   0   6  -8 817.564 334.079   3
   6   0   8 429.316 276.925  14
  -6   0   8 581.152 276.907   2
   6   0   9-4.87341 135.557   6
  -6   0   9-15.3019 48.9322   2
   0   6  -9 8.78196 65.3608   3
   0   6  -9 90.4864 239.859  13
   6   0  -9 29.3155 70.6990  14
   0  -6   9-65.9511 131.843   6
   0   6  -9-105.431 94.4441  12
   6   0  -9-64.8281 208.913  11
  -6   0  -9-88.3086 167.304  19
  -6   0   9-27.6007 110.860   5
   6   0  -9-53.6419 80.9390   1
   6   0  -9 38.9468 111.738  18
   6   0   9-29.6232 206.829   8
  -6   0   9-44.4823 208.899  17
   6   0   9 23.4016 52.1910  16
  -6   0   9-16.6259 78.7097  16
   6   0   9-40.2604 58.5008  14
  -6   0  10 297.030 203.462   2
   6   0 -10 203.241 150.977  14
   0   6 -10 185.012 150.337   3
   0   6 -10 286.806 181.237  13
   0  -6  10 112.777 144.001   6
   0   6 -10 245.060 135.004  12
  -6   0  10 223.709 109.374   5
  -6   0 -10-74.1143 245.781  19
   6   0  10 256.753 208.914  16
   6   0 -10 56.5374 20.6777  18
   6   0  10 457.452 302.692   8
   6   0 -10 71.1070 38.7397   1
  -6   0  10 133.050 131.532  17
   0   6 -10 323.303 203.016  18
  -6   0  10 86.8145 125.599  16
   6   0 -10 74.4781 145.565  11
   6   0  10 130.574 123.852   6
  -6   0 -11-172.127 349.063  19
  -6   0  11-2.82590 65.5145   2
   6   0 -11 6.98030 46.4428  14
   0   6 -11-80.8005 166.891   3
   0   6 -11-120.323 176.647  13
   6   0 -11-82.3251 83.1557   1
   0  -6  11-124.265 122.648   6
   0   6 -11-3.37053 27.3259  12
  -6   0  11-62.4343 160.912   5
   0   6 -11 69.2309 167.636  18
   6   0 -11-40.2264 112.195  18
   6   0  11 186.091 259.305   8
   0  -6  11 102.787 174.541  17
   0  -6  11-319.607 441.432  16
  -6   0  11-88.2570 174.765  17
   6   0 -11-102.929 245.134  11
   6   0  11-51.3514 166.504  16
  -6   0  11 51.7810 118.303  16
   6   0  11-186.077 263.452   6
  -6   0  12 1384.79 485.777   2
   6   0 -12 508.315 222.252  14
   6   0 -12 450.770 260.791   1
   0  -6  12 1229.74 380.889   6
   0   6 -12 1854.60 411.410  12
   6   0 -12 68.0992 244.028  11
  -6   0  12 1056.54 346.068   5
   0   6 -12 1702.92 500.010  18
   6   0  12 1415.09 587.405   8
   6   0 -12 245.625 187.014  18
   0  -6  12 1170.17 428.720  17
  -6   0 -12-218.161 391.174  19
   0   6 -12 1486.76 249.852   4
  -6   0  12 1590.30 590.638  17
   0  -6  12 747.214 302.998  16
   6   0  12 1357.96 507.539  16
  -6   0  12 544.214 288.010  16
   0   6 -12 1624.10 529.934  13
   0   6 -12 2194.52 586.225   3
   6   0  12 974.537 378.808   6
  -6   0  13 44.8543 129.581   2
   6   0  13 181.926 278.287   8
   6   0 -13-25.1459 52.2887  14
   0   6 -13-109.372 117.575  13
   0   6 -13 142.536 183.398   3
   0  -6  13 26.9458 62.3868   6
   6   0 -13-84.4959 146.650   1
   0   6 -13 0.52338 34.3870  12
   0  -6  13-102.408 246.952  16
  -6   0  13-259.979 294.434   5
   0   6 -13 77.0324 141.333  18
   0  -6  13 2.13383 88.2447  17
   6   0 -13-85.3435 180.928  18
   0   6 -13-18.1367 35.3336   4
   0  -6  13 13.5193 5.48319  14
  -6   0  13-40.7747 156.164  17
   6   0  13 18.5659 96.2249  16
  -6   0  13 69.0015 135.358  16
   6   0  13-243.560 395.442   6
   0   6 -14 569.316 306.197  18
   0  -6  14 498.773 275.067   6
   0   6 -14 727.340 402.809  13
   0   6 -14 825.552 368.419   3
  -6   0  14 406.220 298.602   2
   6   0 -14 112.610 112.344   1
   6   0  14 517.305 403.402   8
   6   0 -14-99.9481 285.958  18
   0  -6  14 564.650 347.743  17
  -6   0  14 535.503 267.933  17
   0   6 -14 722.038 262.701  12
   6   0 -14 133.653 121.764  14
   0  -6  14 490.640 298.401  16
   6   0  14 543.706 410.313  16
   0  -6  14 466.533 124.976  14
  -6   0  15 129.961 246.314   2
   0  -6  15 13.4551 35.2576  14
  -6   0  15-384.744 491.753  17
   0  -6  15-70.9524 84.0958   6
   0   6 -15 2.60200 133.475  13
   0   6 -15-71.0399 174.543   3
   0   6 -15-12.4849 56.0814  12
   0   6 -15 4.39835 148.752  18
   6   0  15 114.338 190.748   8
   0  -6  15 108.382 236.395  17
   0  -6  15-52.6353 145.908  16
   6   0  15 124.213 218.596  16
   0  -6  16 32.1737 137.898   6
   0   6 -16 280.535 159.161  13
   0   6 -16 377.011 683.376   7
   0   6 -16 256.305 271.403   3
   0   6 -16 135.431 177.499  12
   6   0  16 232.669 298.921   8
   0   6 -16 634.979 357.075  11
   0  -6  16 308.361 380.795   2
   0   6 -16 145.783 195.332  18
   0  -6  16 126.186 224.434  17
   0  -6  16-13.1552 136.759  16
   6   0  16 322.947 344.629  16
   0   6 -16 441.307 541.853  15
   0  -6  17 143.123 209.669   6
   0   6 -17-12.3274 161.651  13
   0   6 -17-100.576 167.059  12
   0   6 -17-71.4713 82.7958  11
   0  -6  17 94.9845 263.078   2
   0   6 -17 70.5662 181.070  18
   6   0  17 86.5842 327.150   8
   0  -6  17-190.620 313.402  17
   0  -6  17 252.071 293.663  16
   0   6 -17 288.251 378.960  20
   6   0  17 95.3169 260.785  16
   0   6 -17 257.138 476.960   7
   0   6 -17 12.4329 180.949  15
   0  -6  18 313.558 318.077   6
   0   6 -18 339.791 390.799  13
   0   6 -18 315.359 188.476  12
   0   6 -18 30.6028 207.688  11
   0   6 -18 771.274 584.431  20
   0   6 -18 2072.42 891.752  10
   0   6 -18 317.241 238.482  18
   6   0  18 197.605 426.759   8
   0  -6  18 649.732 239.475  17
   0  -6  18 518.900 524.208   2
   0   6 -18 262.216 120.988   3
   0   6 -18 207.965 193.333   7
   6   0  18 378.467 360.140  16
   0  -6  18 484.219 377.121  16
   0   6 -18 381.181 390.224  15
   0   6 -19 259.565 348.623  10
   0  -6  19 16.4082 41.2515   6
   0   6 -19 222.448 336.982  13
   0   6 -19 111.125 172.051  12
   0   6 -19 80.7435 197.019   3
   0   6 -19 150.575 165.738  11
   0   6 -19 398.393 410.190  20
   0   6 -19 120.428 158.558  18
   0  -6  19-15.4207 95.6800  17
   0  -6  19 103.137 275.666  16
   0  -6  19-2.29850 211.093   2
   0   6 -19-608.358 701.639   7
   0   6 -19-446.374 573.446  15
  -6  -1   0 1371.10 427.909   4
  -6   1   0 1848.39 343.646  12
   6   1   0 3446.64 661.073   1
  -6  -1   0 1859.67 563.225   5
   6  -1   0 2864.16 527.652   1
  -6   1   0 2757.69 589.599   5
  -6  -1   0 1311.63 415.182  19
   6   1   0 3248.09 539.206  18
   6  -1   0 1328.92 323.251  18
   6  -1   0 3121.93 633.169   8
   6   1   0 3852.28 731.606   8
  -6  -1   0 1759.14 425.545  17
  -6   1   0 2924.27 546.168  19
  -6   1   0 978.023 296.324  17
  -6   1   0 2722.04 375.930   2
   6   1   0 1342.23 295.986   6
   6   1   0 2579.10 565.076  14
   6  -1   0 3500.36 489.309   6
   6  -1   0 3105.29 554.504  14
  -6   1   0 2818.22 581.723   4
   6   1   1 329.488 197.589  14
   6   1  -1 338.347 193.710  14
   6   1   1 182.717 97.3847   6
   6  -1   1 589.214 254.037  14
   6  -1  -1 490.680 215.352  14
  -6   1  -1 151.169 86.4973   3
  -6   1  -1 462.212 252.769   4
  -6  -1   1-90.8112 198.703  15
  -6  -1   1 265.952 192.705   4
   6   1  -1 298.486 109.659  13
   6  -1   1 552.334 196.215   6
   6  -1  -1 503.115 177.233   6
  -6   1  -1 295.626 132.924  12
  -6   1   1 139.041 82.2210  12
  -6  -1  -1 184.659 176.724  19
  -6  -1  -1 340.213 268.075   5
  -6  -1   1 324.849 237.611   5
   6  -1  -1 478.742 224.671   1
  -6   1  -1 428.048 239.478   5
  -6   1   1 150.218 107.697  17
  -6  -1   1 400.067 214.698  19
  -6  -1   1 370.520 178.062   2
  -6   1   1 475.803 253.797   5
  -6   1   1 542.153 228.305  19
   6   1  -1 571.250 286.916   1
   6   1  -1 511.220 213.657  18
  -6   1  -1 515.123 228.163  19
  -6   1  -1 130.732 99.1432  17
   6  -1   1 289.441 141.265  18
   6  -1  -1 223.680 153.752  18
  -6  -1  -1 81.4989 102.210   4
   6   1   1 550.840 223.597  18
   6   1   1 553.052 306.011   8
  -6  -1   1 295.375 185.354  17
   6   1  -1 773.452 322.601   8
   6  -1   1 540.199 254.344   8
   6   1  -1 248.797 116.506   6
  -6   1  -1 457.794 136.273   2
   6  -1  -1 497.136 248.095   8
  -6  -1  -1 184.110 102.019  17
  -6   1   1 430.695 230.403   4
   6   1   1 570.962 272.385   1
  -6   1   1 413.154 160.365   2
   6  -1   1 475.495 211.012   1
   6   1   2 267.500 157.042   6
   6   1  -2 551.378 260.477  14
  -6  -1   2 453.012 166.959  15
   6  -1  -2 556.233 237.243  14
   6   1  -2 1052.54 210.288  13
  -6  -1   2 658.238 248.638   2
  -6  -1   2 561.256 135.511  12
  -6   1  -2 422.802 173.040  12
   6  -1   2 778.943 271.737   1
  -6  -1  -2 237.720 172.886  17
  -6   1   2 761.196 274.478  19
   6   1  -2 1556.30 424.643  11
   6   1  -2 680.385 307.236   1
  -6   1  -2 711.127 158.458   2
  -6  -1  -2 226.228 233.147  19
  -6  -1   2 850.242 384.384   5
  -6   1  -2 659.253 303.421   5
  -6  -1   2 627.086 270.784  19
  -6   1  -2 583.950 255.328  19
  -6   1  -2 358.677 160.640   3
   6   1  -2 834.758 289.248  18
  -6  -1  -2 42.3793 216.956   4
   6  -1  -2 245.184 148.535  18
  -6   1   2 609.385 267.672   5
   6   1   2 666.273 244.477  18
   6   1   2 757.144 374.292   8
  -6  -1   2 474.380 234.016  17
   6  -1   2 518.587 168.879  18
  -6  -1   2 401.410 217.556   4
  -6   1   2 604.026 196.439   2
   6   1  -2 785.536 295.733   8
  -6  -1   2 405.280 133.410   7
  -6   1  -2 227.149 96.1361  17
   6  -1   2 771.012 354.062   8
  -6   1   2 210.788 171.948  17
   6   1   2 764.557 332.122   1
  -6   1  -2 810.070 330.323   4
   6  -1   2 912.009 315.147  14
   6  -1  -2 519.631 252.694   8
   6  -1  -2 567.264 186.968   6
   6   1  -2 370.303 96.2821  10
  -6   1   2 689.564 278.256   4
   6   1   2 360.083 130.155  16
   6  -1  -2 730.489 279.290   1
   6   1  -2 511.614 154.958   6
   6  -1   2 870.266 273.045   6
   6   1   2 521.855 271.736  14
  -6  -1   3 93.1180 122.757   5
   6  -1   3-9.06710 48.7564  14
   6  -1  -3 45.6514 11.9595  14
   6   1  -3 16.6788 21.7259   6
  -6   1   3 36.8034 57.5972   2
   6  -1   3 62.1783 102.024   6
  -6  -1   3 132.429 119.687   7
  -6  -1  -3 51.3986 141.991  19
  -6   1  -3 80.7881 121.674  12
  -6   1  -3-32.0146 30.0088   3
   6  -1  -3-14.6921 61.6468   6
  -6  -1   3-3.21166 29.9275  12
   6   1  -3 107.535 134.346  11
   6  -1  -3 46.3555 84.9139   1
  -6   1  -3 63.0690 83.6364  19
  -6   1   3 108.046 140.367   5
  -6   1  -3 81.4984 106.038  20
   6  -1   3 35.3028 32.7029   1
  -6   1  -3 53.8613 43.1868  10
   6   1  -3 28.4002 21.4676  14
  -6   1   3 60.0622 100.276  19
   6   1   3 1.12111 86.9481  18
   6   1  -3 20.0619 49.5968  18
   6  -1   3 17.7571 25.4707  18
  -6  -1   3 96.5347 110.812   2
   6  -1  -3 14.1639 74.3348  18
   6   1   3 61.7130 72.3238   1
   6   1  -3 29.2857 57.1459  10
   6   1  -3 242.268 155.334   9
   6   1   3 53.8391 136.349   8
  -6  -1   3 52.9081 87.4004  15
  -6  -1   3 144.621 148.261  17
  -6  -1   3 42.8013 89.9677   4
  -6   1  -3-17.7498 26.8584  17
   6   1  -3 41.7654 46.1738   8
  -6   1  -3 2.92384 77.6749   4
  -6   1  -3 10.7556 128.370   5
  -6   1   3 23.6135 29.9027  17
   6  -1   3 60.4426 67.6415  16
   6  -1  -3-8.94345 30.8698   8
   6   1  -3 125.834 154.501   1
   6   1   3 0.18694 35.2433  16
  -6   1   3-25.3364 90.3416   4
  -6  -1   3 9.95027 131.740  19
   6  -1   3 61.3523 102.040   8
   6   1   3 31.2689 28.2131  14
   6   1   3 21.2525 32.6391   6
   6   1  -4 265.629 157.783  14
   6  -1   4 299.770 193.724  14
  -6   1   4 275.838 154.093   2
   6  -1   4 493.453 214.901   6
   6  -1   4 348.630 171.491   1
  -6   1  -4 323.643 226.517  12
  -6  -1   4 435.975 200.103   2
  -6  -1   4 367.442 245.445   5
  -6   1  -4 238.356 167.116   3
   6   1  -4 513.720 210.933  11
  -6  -1   4 329.293 167.100  19
  -6   1  -4 194.978 162.444   5
  -6   1  -4 273.382 159.344  20
   6  -1   4 287.946 109.282  18
  -6   1  -4 149.194 63.0939  10
   6   1  -4-5.64264 67.4045  10
   6  -1  -4 49.5327 68.5658  18
   6   1   4 286.493 191.898   1
  -6   1   4 341.967 178.189  19
  -6   1   4 339.338 209.746   5
   6   1  -4 415.250 217.681  18
   6   1  -4 372.839 201.927   1
   6   1   4 342.898 301.623   8
   6  -1  -4 178.615 137.161  14
  -6  -1   4 281.827 212.880  17
  -6   1  -4 323.143 215.860   4
   6  -1   4 540.013 291.872   8
  -6   1  -4 89.9952 54.7082  17
   6  -1  -4 197.664 161.995   1
  -6  -1  -4 47.0130 79.4627  19
  -6  -1   4 353.037 220.879   4
   6   1  -4 309.433 158.397   8
  -6   1   4 172.139 174.507  17
   6  -1   4 341.465 176.184  16
   6   1  -4 139.166 64.5577   9
  -6  -1   4 286.157 94.0104  16
  -6   1  -4 277.146 196.831  19
   6   1   4 98.9609 84.6081  16
  -6   1   4 89.9120 66.2618   4
   6   1  -4 374.574 101.008   6
   6  -1  -4-13.1752 158.025   8
   6   1   4 187.513 142.706  14
   6   1   4 79.1359 92.1091   6
  -6  -1   5 921.090 359.185   4
   6   1  -5 31.2345 67.6151  10
   6   1  -5 616.479 264.398  14
  -6  -1  -5 18.3555 116.093  19
   6  -1  -5 523.485 212.224  14
   6   1   5 476.125 297.912   8
  -6   1   5 610.938 234.886   2
   6  -1  -5 478.256 248.398   1
  -6   1  -5 42.0990 53.7738  13
   6  -1   5 1001.03 338.358   1
  -6   1  -5 557.523 284.557   4
   6   1  -5 1129.88 357.316  11
  -6   1  -5 552.104 291.996   5
  -6  -1   5 887.112 342.540   2
   6  -1   5 789.459 162.279  18
   6   1   5 275.178 206.511   1
  -6   1  -5 244.827 90.1488  17
  -6   1  -5 430.261 236.670  19
  -6  -1   5 901.472 307.528  19
  -6  -1   5 781.305 384.687   5
  -6   1   5 671.293 226.363  19
   6   1  -5 324.414 132.190   9
  -6   1  -5 451.067 213.702  20
   6  -1   5 946.522 277.494  16
   6   1  -5 733.433 309.423  18
   6   1  -5 854.116 307.242   8
  -6  -1   5 923.695 194.867  16
   6   1  -5 998.684 155.149   6
   6  -1  -5 209.746 173.356  18
   6  -1   5 1150.73 445.451   8
  -6  -1   5 516.934 333.845  17
  -6   1   5 678.293 279.637   5
   6   1  -5 707.025 306.716   1
  -6   1   5 331.826 234.821  17
  -6   1  -5 243.389 82.3433  10
   6   1   5 235.916 101.665  16
  -6   1  -5 1201.51 495.856   7
   6  -1   5 945.536 327.258   6
  -6   1  -5 1125.72 491.715  15
   6  -1   5 1050.84 344.523  14
   6   1   5 482.206 261.720  14
   6   1   5 326.915 163.602   6
   6   1  -6-200.082 194.980  10
   6  -1   6 475.794 267.696  14
  -6   1  -6 97.3072 15.7699  19
   6   1  -6 258.380 140.799  14
   6  -1   6 392.064 204.835  16
   6  -1   6 577.471 255.875   6
   6   1   6 435.061 308.155   8
   6  -1  -6 135.046 115.289  14
  -6   1   6 220.982 126.944   2
   6   1  -6 261.512 166.111  18
  -6   1  -6 179.321 128.356   5
   6   1  -6 252.603 132.419  11
  -6  -1  -6-211.791 374.745  19
   6  -1   6 437.628 318.041   8
  -6   1  -6 173.237 188.152   4
  -6  -1   6 338.098 168.725  19
   6  -1  -6 108.437 58.7792   1
  -6   1   6 103.658 56.0738  19
  -6   1   6 79.1320 124.278   5
  -6  -1   6 401.688 210.572   4
   6  -1  -6-2.67359 134.887  18
   6   1  -6 120.022 117.438   9
  -6   1  -6 138.942 81.9648  20
  -6   1   6 158.560 153.049  17
   6  -1   6 310.426 183.536   1
   6   1  -6 177.874 102.265   8
  -6  -1   6 424.823 151.622  16
  -6  -1   6 375.076 236.558  17
  -6  -1   6 342.920 213.863   2
  -6  -1   6 432.757 237.796   5
   6   1   6 50.0871 84.1931  16
  -6   1  -6 531.920 395.188   7
   6   1  -6 429.964 241.705   1
  -6   1  -6 547.552 344.767  15
  -6   1  -6 15.9131 90.9799  10
   6   1   6 84.0572 17.8114  14
   6   1   6-35.8004 204.144   6
  -6  -1   7 1442.46 415.230   2
   6  -1  -7 768.021 252.408  14
  -1   6  -7 331.572 78.1833  13
  -6   1   7 669.473 235.985   2
   6   1  -7-395.780 293.292  10
   1  -6   7 91.9716 75.4721   6
   6   1  -7 1223.31 396.296   1
  -6  -1   7 1257.48 435.684   5
  -6  -1   7 1174.26 305.064  19
  -6   1  -7 519.911 263.566  19
   6   1  -7 1117.33 417.504  11
  -6   1  -7 363.459 224.059   4
   6   1   7 869.011 448.462   8
  -6   1   7 629.498 249.731   5
  -6  -1   7 1332.80 371.914   4
   6   1  -7 452.004 215.388   9
   6   1  -7 999.994 381.117  18
   6  -1   7 776.470 303.112   1
  -6   1  -7 454.701 241.759  20
   6  -1  -7 30.4317 163.797  18
   6  -1   7 1714.67 550.645   8
  -6  -1   7 831.854 380.700  17
  -6   1  -7 41.3986 112.712  10
  -6   1   7 571.008 315.392  17
   6  -1   7 1474.97 408.113  16
  -6  -1   7 1101.90 270.471  16
   6   1  -7 454.136 207.936   8
   6  -1   7 1454.64 439.661  14
  -6   1  -7 859.350 405.840   7
   6   1   7 423.800 216.451  16
   1   6  -7 933.831 405.355  13
  -1   6  -7 1246.96 404.675   3
  -6   1  -7 1041.73 443.136  15
   6  -1   7 1513.99 446.557   6
   6  -1  -7 456.032 230.722   1
   6   1  -7 1085.82 325.309  14
   6   1   7 256.768 130.014   6
   6  -1  -8-9.06446 217.476  18
   6  -1  -8 307.790 186.060  14
  -1   6  -8 560.981 292.820  13
   1   6  -8 884.209 386.281  13
  -6   1   8 394.720 169.721   2
  -1   6  -8 1110.52 380.106   3
  -1   6  -8 739.276 241.469  12
   6   1  -8 758.848 319.458   1
   1  -6   8 227.644 153.315   6
  -1  -6   8 83.6348 85.0936   6
   6  -1  -8 289.901 183.754   1
   6   1  -8 677.264 328.514  11
   6  -1   8 1011.94 389.370  14
  -6   1  -8 184.201 108.172  20
  -6  -1   8 740.785 339.902   5
   6   1  -8 658.427 250.570  14
  -6  -1   8 917.613 293.270   4
  -6   1  -8 414.122 273.462  15
   6   1  -8 163.792 79.0441   9
  -6   1  -8 218.207 201.592  19
   6  -1   8 1397.58 522.190   8
   6   1  -8 744.376 320.132  18
  -6   1  -8-149.165 257.987   4
   6   1   8 393.068 242.799   8
  -6   1  -8 339.669 143.022   7
   6  -1   8 331.137 225.917   1
  -6  -1   8 920.981 412.002  17
  -6   1   8 521.137 261.670  17
  -6  -1   8 767.248 312.109   2
   6  -1   8 1163.65 374.659  16
  -6  -1   8 846.044 249.504  19
  -6  -1   8 630.624 221.996  16
   6   1   8 229.275 136.512  16
   1   6  -8 1087.86 373.710   3
   6  -1   8 1134.30 414.680   6
  -6  -1   9 485.992 172.898  19
   6  -1   9 909.118 370.669   6
   6   1  -9 594.992 233.291  14
  -6   1  -9 39.3644 90.6123  19
   6  -1  -9 398.604 202.556  14
  -6   1   9 339.493 206.760  17
  -6   1   9 278.848 151.281   2
   1   6  -9 862.707 421.324  13
   1   6  -9 1129.28 392.785   3
  -6  -1   9 747.268 323.273   5
  -1   6  -9 938.759 273.807  12
   1  -6   9 505.156 228.447   6
  -1  -6   9 184.239 129.269   6
   6   1  -9 655.977 297.819   1
  -6   1  -9-79.2174 238.703  20
   1   6  -9 644.188 297.303  18
   6   1  -9 409.698 263.541  11
   6   1  -9 196.033 145.221   9
  -1   6  -9 682.903 320.162  13
   6   1  -9 472.841 267.787  18
   6   1   9 152.542 312.579   8
   6  -1   9 1287.14 503.633   8
   6  -1  -9-66.6388 263.948  18
  -6  -1   9 801.913 369.809  17
   6  -1  -9 298.952 224.875   1
  -6  -1   9 916.810 368.222   2
   6  -1   9 966.162 362.511  16
  -6  -1   9 793.275 274.228   4
  -6   1  -9-54.8679 422.926   7
  -6  -1   9 617.947 228.385  16
   6   1   9 368.008 265.623  16
  -6   1  -9-100.484 391.057  15
  -1   6  -9 1212.96 398.959   3
   6  -1   9 953.325 369.369  14
   6   1 -10 908.892 423.097  11
  -1   6 -10 1411.31 485.298  13
   1   6 -10 1401.58 508.375  13
  -1   6 -10 1820.79 392.026  12
   1   6 -10 1491.47 327.992  12
   1  -6  10 981.213 325.685   6
  -1  -6  10 828.245 300.682   6
  -1   6 -10 2149.94 536.546   3
   6   1 -10 1203.33 420.882   1
  -6  -1  10 1502.61 467.718   5
   1   6 -10 956.100 442.670  18
  -6  -1  10 1657.98 506.980   2
  -1  -6  10 196.525 55.0466  17
  -1   6 -10 1290.19 363.755  18
  -6  -1  10 1439.01 372.332   4
   6  -1  10 1515.16 240.662   2
   6   1  10 475.164 343.069   8
  -6  -1  10 1790.58 590.205  17
   1   6 -10 1901.11 509.054   3
   6  -1  10 2138.26 681.168   8
   6   1 -10 76.7286 163.916   9
   6   1 -10 952.355 407.732  18
   6  -1  10 1752.93 523.474  16
  -6  -1  10 1234.59 362.700  16
   6  -1  10 1554.98 508.315   6
   6   1  10 659.989 359.711  16
  -6   1 -10 67.6459 97.7409  19
   6  -1  10 1605.43 548.306  14
   6   1 -10 1157.75 322.004  14
   6  -1  11 81.2300 42.8422   2
   6  -1  11 144.160 167.761   6
   6   1  11-343.886 521.385   8
  -6  -1  11-9.87667 33.7608  16
   6   1 -11 108.954 115.270  14
  -1  -6  11-486.143 430.082  16
   1   6 -11 94.2517 33.7565   3
   6   1 -11-53.2671 183.306   9
  -1   6 -11 247.250 189.679  13
   1   6 -11 79.1880 98.6718  13
  -1  -6  11 75.5573 144.853   6
   1  -6  11 24.2548 21.5115   6
  -1   6 -11 134.112 119.134  12
   1   6 -11 127.648 65.2406  12
   6   1 -11 98.7316 134.727  18
   6  -1  11-40.6911 195.126   8
   6   1 -11-56.4128 227.472  11
  -6   1 -11-419.090 427.539  20
  -1  -6  11 98.6185 77.0263  17
  -6   1 -11 123.168 233.291  19
   6   1 -11 56.2986 107.647   1
  -6  -1  11 81.9562 116.428   5
  -1   6 -11 46.4878 82.0376  18
   1  -6  11-70.6671 140.344  17
  -6  -1  11 119.368 147.582  17
   1  -6  11-261.227 443.679  16
  -1   6 -11 208.685 177.296   3
   6  -1  11 97.0958 121.960  16
  -6  -1  11-21.5216 123.946   2
   1   6 -11 106.918 134.494  18
  -6  -1  11 40.6003 92.6555   4
   6   1  11 35.0623 49.7032  16
   6  -1  11 71.0023 113.247  14
   6  -1  12 572.206 320.118   6
   6  -1  12 743.030 197.936   2
  -6  -1  12 955.911 408.297   5
   6   1 -12 334.965 179.392  14
   1  -6  12 360.058 127.244  14
  -1  -6  12 216.044 136.606  16
   1   6 -12 1065.80 408.461   3
   6   1 -12 286.259 241.579  11
  -1   6 -12 1230.01 456.933   3
  -1   6 -12 697.078 363.494  13
   1   6 -12 717.389 328.596  13
  -1  -6  12 517.930 288.781   6
  -1   6 -12 978.460 309.444  12
   1   6 -12 829.477 252.362  12
   6   1 -12 457.035 273.596   1
  -6   1 -12 43.5460 151.338  19
   1  -6  12 253.026 135.738  16
  -1   6 -12 852.036 284.912  18
   6   1 -12-164.951 255.895   9
  -1   6 -12 1010.72 235.930   4
   6  -1  12 1177.22 530.425   8
   6   1  12-263.902 711.205   8
   6   1 -12 261.656 223.770  18
   1  -6  12 601.815 303.751  17
  -1  -6  12 399.946 306.957  17
  -6  -1  12 635.914 359.189  17
   1  -6  12 602.308 262.677   6
   6  -1  12 770.003 380.626  16
   1   6 -12 431.754 360.343  18
  -6  -1  12 628.223 300.919  16
  -6  -1  12 774.948 356.185   2
  -6  -1  12 513.277 174.625   4
   6  -1  12 511.704 289.341  14
   6  -1  13 894.935 416.237   6
   6   1 -13 468.053 196.888  14
  -1  -6  13 612.051 294.294   6
   1  -6  13 888.632 371.350   6
  -1   6 -13 1151.24 405.708  13
   1   6 -13 967.933 427.827  13
  -1   6 -13 1115.77 356.003  12
   1   6 -13 1099.50 313.171  12
  -1  -6  13 577.478 326.369  16
   1  -6  13 1018.25 394.219  17
   6   1 -13 180.046 130.376  11
   6  -1  13 1087.56 270.405   2
  -6   1 -13 190.513 252.145  19
   6  -1  13 1448.94 561.379   8
  -6  -1  13 1222.11 444.689   5
  -1   6 -13 1168.17 348.236  18
   1   6 -13 871.958 405.184  18
  -1   6 -13 1192.01 294.778   4
   6   1 -13 436.397 251.969   1
   6   1  13-332.070 667.640   8
   6   1 -13 431.459 278.156  18
   1  -6  13 757.968 388.743  16
  -1  -6  13 902.325 459.454  17
   6   1 -13-348.245 349.944   9
  -6  -1  13 1112.74 494.958  17
   6  -1  13 1071.46 458.484  16
  -6  -1  13 811.862 338.891  16
  -6  -1  13 1182.43 470.262   2
   1  -6  13 866.836 197.413  14
  -1   6 -13 1637.46 508.981   3
   1   6 -13 1424.37 458.595   3
   6  -1  14 439.436 181.129   2
  -1  -6  14 538.023 345.037  16
   6   1 -14 177.043 113.449  14
  -1  -6  14 237.621 79.7785  14
  -1  -6  14 248.558 128.766   6
   1  -6  14 354.224 252.006   6
  -1   6 -14 334.456 269.072  13
   1   6 -14 396.594 303.189  13
   1   6 -14 595.220 308.093   3
   6  -1  14 876.504 492.747   8
  -1   6 -14 489.760 284.139   3
  -6  -1  14 540.574 326.839   2
  -1   6 -14 619.787 287.362  12
   1   6 -14 544.202 223.052  12
   6   1 -14-106.457 289.176  11
  -6   1 -14 94.8963 160.214  19
  -6  -1  14 616.183 350.418   5
   1   6 -14 430.934 313.551  18
   6   1 -14-449.015 437.117   9
   6   1 -14 225.035 221.150  18
   1  -6  14 707.012 323.924  17
  -6  -1  14 587.580 376.206  17
   1  -6  14 361.610 220.862  16
  -1   6 -14 328.268 157.464   4
  -1   6 -14 673.600 273.246  18
   6  -1  14 443.662 334.758  16
   6   1 -14 81.3431 78.5800   1
  -6  -1  14 453.512 255.457  16
  -1  -6  14 418.518 215.862  17
   1  -6  14 598.515 173.751  14
   6  -1  14 341.353 282.341   6
   6  -1  15 378.497 153.256   2
   6  -1  15 492.010 421.191   8
   1  -6  15 379.031 139.037  14
   6   1 -15 201.893 130.624  14
  -1  -6  15 385.697 295.191  16
  -1  -6  15 302.461 238.080   6
   1  -6  15 546.219 307.930   6
  -1   6 -15 660.630 394.008  13
   1   6 -15 408.527 347.928  13
   1   6 -15 306.100 198.013   3
  -1   6 -15 371.092 274.707   3
  -1   6 -15 390.196 216.000  12
   1   6 -15 253.505 137.191  12
  -1   6 -15 1188.34 490.521  11
   1   6 -15 974.047 493.850  11
  -1  -6  15 248.828 303.220   2
  -6   1 -15-34.0191 169.966  19
   1  -6  15 385.230 248.595  17
  -6  -1  15 321.587 257.097   5
   1   6 -15 334.031 275.367  18
  -1   6 -15 551.881 269.070  18
   6   1 -15 22.0047 134.825  18
  -1  -6  15 251.312 77.3293  17
  -6  -1  15 433.360 333.394  17
   1  -6  15 231.934 264.426  16
   6  -1  15 379.849 329.927  16
  -6  -1  15 324.915 205.156  16
  -6  -1  15 380.418 260.464   2
   6   1 -15 114.189 129.745   1
   6  -1  15 161.073 62.4400   6
   1  -6  16 391.543 161.435  14
   6  -1  16 704.791 252.166   2
   6   1 -16 199.381 237.950   1
   6   1 -16 164.197 126.829  14
  -1  -6  16 199.436 175.470   6
   1  -6  16 458.301 240.489   6
  -1  -6  16 576.173 408.919  17
  -1   6 -16 625.957 399.107  13
   1   6 -16 616.412 395.042  13
   1   6 -16 671.220 325.448   3
  -1   6 -16 609.941 343.822   3
  -1   6 -16 710.862 298.030  12
   1   6 -16 816.959 313.102  12
   1   6 -16 1130.79 478.856  11
  -1   6 -16 1430.45 520.025  11
   6   1 -16 94.1035 42.6987  11
  -6   1 -16-23.2934 79.8526  19
  -1  -6  16 350.021 315.353   2
  -6  -1  16 528.705 298.819   5
  -1   6 -16 682.268 284.706  18
   6   1 -16 112.867 195.556  18
   6  -1  16 733.005 411.381  16
   6  -1  16 910.911 463.940   8
   1  -6  16 923.211 429.174  17
  -6  -1  16 959.474 519.466  17
  -1  -6  16 586.279 351.271  16
   1   6 -16 648.928 375.230  18
   1  -6  16 555.533 377.152  16
  -6  -1  16 376.160 280.806  16
   1   6 -16 1411.89 733.792   7
   1   6 -16 1001.60 654.009  15
  -6  -1  16 1020.31 439.137   2
  -1   6 -16 1557.21 870.308  15
   6  -1  16 323.402 166.609   6
   6  -1  17-3.95407 76.2326   2
  -1  -6  17-37.7309 157.947   6
   6   1 -17 22.0253 52.9676  14
   1  -6  17 19.1667 134.187   6
   6   1 -17 37.6163 135.298   1
  -1   6 -17 309.822 339.684  13
   1   6 -17-7.74517 19.7445  13
   1   6 -17-82.8993 211.949   3
  -1   6 -17 31.1039 141.121   3
  -1   6 -17 43.1574 134.201  12
   1  -6  17 188.474 145.477   2
   1   6 -17 262.378 303.184  11
  -1   6 -17 149.060 223.346  11
   6   1 -17-148.722 394.977  11
   1   6 -17-87.7450 159.610  18
  -6   1 -17 42.8833 162.619  19
  -6  -1  17 119.664 97.3545   5
  -1   6 -17 54.6460 112.211  18
  -1  -6  17 54.4496 216.524   2
   6   1 -17-82.5362 259.525  18
  -1   6 -17 326.234 440.263  20
   6  -1  17 109.154 269.377   8
  -1  -6  17-3.21181 51.1497  17
   1  -6  17-46.0915 84.5630  17
   1   6 -17 83.9990 396.542  20
  -6  -1  17-30.7385 74.7595  17
   1   6 -17 50.8031 126.231  12
  -1  -6  17 48.6154 144.361  16
   1  -6  17 321.574 312.655  16
   6  -1  17-21.9222 127.382  16
  -6  -1  17 158.112 185.430  16
   1   6 -17-159.613 317.413   7
  -1   6 -17 650.935 595.989   7
   1   6 -17-209.731 381.159  15
  -1   6 -17 369.167 534.649  15
  -6  -1  17 475.589 361.928   2
   6  -1  17-378.460 519.557   6
   6  -1  18 745.682 284.329   2
   1  -6  18 890.342 492.138   2
  -1  -6  18 611.876 285.462   6
   1  -6  18 416.775 332.590   6
   6   1 -18 136.086 152.090   1
  -1  -6  18 1110.40 643.287   2
  -1   6 -18 1107.49 577.930  13
  -1  -6  18 1486.02 626.727  16
   1   6 -18 787.349 428.525  13
  -1   6 -18 709.845 359.340  12
   1   6 -18 797.483 338.055  12
  -1   6 -18 948.584 471.487   3
   1   6 -18 818.954 340.272  11
  -1   6 -18 1184.59 498.786  11
   1   6 -18 517.713 579.144  20
   1   6 -18 555.863 390.601   3
  -1   6 -18 2073.71 888.813  10
   1   6 -18 1636.77 794.297  10
  -6  -1  18 751.245 400.605   5
   1   6 -18 615.098 372.690  18
  -1   6 -18 569.309 292.754  18
  -1   6 -18 782.213 573.784  20
   6   1 -18-132.036 308.414  18
   6  -1  18 736.648 444.209   8
  -1  -6  18 1226.77 567.718  17
   1  -6  18 801.685 338.279  17
  -6  -1  18 332.617 372.307  17
   1  -6  18 1008.47 537.926  16
   1   6 -18 87.2951 367.814  15
   1  -6  18 295.800 76.3079   8
   6  -1  18 997.947 563.268  16
   1   6 -18-73.3711 598.870   7
  -6   1 -18-272.260 320.473  19
  -6  -1  18 77.3757 89.5498  16
  -1   6 -18 673.713 547.356   7
  -1   6 -18 719.242 601.082  15
  -6  -1  18 857.268 502.389   2
   6  -1  19 577.570 307.140   2
  -1  -6  19 12.7423 173.090   6
   1   6 -19 262.615 300.097  10
   1   6 -19 183.586 261.545  18
   6   1 -19 3.08982 154.001   1
   1   6 -19 214.755 218.035  13
  -1   6 -19 444.192 302.592  12
   1   6 -19 376.794 179.640  12
   1   6 -19 271.668 218.067   3
  -1   6 -19 297.124 339.820   3
   1   6 -19 842.344 473.446  11
  -1   6 -19 1025.86 484.560  11
  -6  -1  19 247.126 259.906   5
  -1   6 -19 553.496 617.370  20
   1   6 -19 272.210 514.798  20
  -1   6 -19 819.317 568.633  10
  -6   1 -19 9.82594 231.157  19
   1  -6  19 313.614 355.395  16
  -6  -1  19 611.381 426.148   2
  -1   6 -19 239.169 253.056  13
  -1   6 -19 412.876 301.279  18
   1  -6  19 219.450 321.611   2
   6  -1  19 483.697 358.548   8
  -1  -6  19 468.650 260.232  17
  -1  -6  19 356.334 354.218   2
  -6  -1  19-362.391 497.962  17
   1  -6  19 529.757 367.372   6
  -1  -6  19 524.427 386.675  16
   6  -1  19 543.982 361.822  16
  -1   6 -19-562.574 657.360   7
   1  -6  19 686.763 373.782  17
   1   6 -19-647.404 851.775  15
  -1   6 -19-163.105 414.721  15
  -6  -1  19 233.176 255.499  16
   6   2   0 1736.39 516.645   1
  -6   2   0 866.661 260.308  12
  -6   2   0 1640.37 432.226   5
   6  -2   0 1478.67 394.386   1
  -6  -2   0 92.2635 92.7622  19
  -6   2   0 1712.10 409.553  19
   6   2   0 2014.85 470.996  18
   6   2   0 2084.39 546.702   8
  -6   2   0 1393.30 407.164   4
   6  -2   0 1338.38 416.644   8
  -6  -2   0 231.419 182.431  17
   6  -2   0 1784.01 414.129  14
   6  -2   0 1490.19 343.710   6
   6   2   0 881.979 352.715  14
   6   2   1 3088.68 743.862   8
   6  -2   1 5127.87 702.222  14
   6   2   1 3832.61 781.668   1
  -6   2  -1 3025.45 488.710  12
  -6   2  -1 4580.29 676.919  19
   6  -2   1 4503.42 635.557   1
  -6   2  -1 4113.86 702.693   5
  -6   2   1 3706.44 664.539   5
   6  -2  -1 3054.40 557.912   1
   6   2  -1 5154.42 863.610   1
  -6   2   1 3400.91 608.382   4
   6  -2   1 4282.04 760.244   8
  -6   2   1 4701.17 682.367  19
   6   2  -1 5143.40 862.472   8
  -6   2  -1 4431.54 712.018   4
  -6  -2   1 1240.14 453.461  17
   6  -2  -1 2846.38 619.886   8
   6   2  -1 4857.51 750.767  18
  -6  -2   1 958.856 351.619  19
   6   2   1 4034.29 671.573  18
   6   2   1 2196.34 577.291  14
   6   2  -1 2395.25 579.788  14
   6  -2   1 5272.20 648.404   6
   6  -2  -1 3707.77 601.993  14
   6  -2  -1 2630.16 447.962   6
  -6  -2   2-47.9721 177.345   4
   6  -2   2 236.005 145.610  14
  -6   2   2 276.259 163.119  19
   6  -2  -2 200.606 123.881  14
   6   2  -2 208.992 122.235  13
  -6   2  -2 346.178 175.641  19
  -6   2  -2 310.037 153.695  12
  -6  -2   2 30.2130 155.034   5
  -6   2  -2 100.870 46.0289   3
   6  -2   2 296.557 153.636   1
  -6  -2  -2-169.948 378.276  19
   6  -2   2 170.341 66.5766   8
   6   2   2 229.220 167.982   1
  -6   2  -2 396.853 222.972   5
  -6   2   2 128.479 111.071   5
   6   2  -2 265.302 175.258  18
   6   2   2 263.447 137.452   8
  -6  -2   2 101.216 134.717  17
   6   2  -2 545.308 260.530   8
  -6   2  -2 292.498 184.200   4
   6  -2  -2 15.1404 141.386   8
   6   2  -2 201.221 180.128   1
   6  -2   2 419.924 181.908   6
   6   2   2 112.979 88.3349  14
   6  -2  -2 183.636 114.088   1
   6   2  -2 121.021 126.830  14
  -6  -2   2 138.339 84.1452  19
   6   2  -3 1000.36 373.451   1
   6  -2  -3 524.739 232.860  14
  -6   2  -3 442.858 196.588   3
  -6   2  -3 851.882 264.866  12
   6  -2   3 1064.09 309.222   1
  -6   2  -3 1187.89 378.994   5
  -6  -2   3 581.572 305.755   5
   6   2   3 459.540 277.011   1
  -6   2  -3 1072.76 329.606  19
  -6  -2   3 536.143 234.087  19
   6  -2  -3 475.719 229.659   1
  -6  -2   3 341.462 220.297   4
   6   2  -3 1013.45 338.396  18
   6   2  -3 1422.45 408.176   8
   6   2   3 518.210 286.818   8
  -6   2   3 872.056 287.600  19
  -6  -2   3 703.711 338.388  17
  -6   2  -3 648.935 124.405   2
   6  -2   3 1110.20 400.004   8
   6   2  -3 1129.30 283.260  13
   6  -2  -3 11.4380 192.151   8
   6  -2   3 1234.10 339.979   6
   6  -2   3 1018.61 321.679  14
  -6   2  -3 1017.67 357.748   4
  -6  -2   3 816.143 320.065   2
   6   2  -3 496.918 246.157  14
   6   2  -4 649.359 290.882  14
   6  -2  -4 558.593 242.580  14
   6   2  -4 1529.24 354.629  13
   6   2  -4 1761.19 430.842   8
   6   2  -4 1527.38 459.226   1
  -6   2  -4 828.753 257.671  12
   6  -2   4 1324.79 330.439   1
  -6   2  -4 1126.52 366.093   5
   6  -2  -4 441.437 223.156   1
  -6  -2   4 886.096 391.196   5
  -6  -2   4 691.110 299.480   4
  -6   2   4 952.070 290.473  19
  -6   2  -4 1092.95 338.436  19
  -6  -2   4 1154.42 394.617  17
  -6  -2   4 1051.61 356.142   2
   6   2  -4 1398.30 415.989  18
   6   2   4 154.195 305.520   8
  -6   2  -4 1210.48 409.829   4
  -6  -2   4 967.632 329.655  19
   6  -2   4 1208.57 422.261   8
   6  -2   4 1517.46 393.225   6
   6  -2   4 1415.87 383.967  14
   6   2  -4 1395.21 298.030  20
  -6   2  -4 856.236 295.605   3
   6   2  -5 437.661 234.961  14
  -6  -2   5 602.892 255.765   4
   6  -2  -5 342.767 188.004  14
   6   2  -5 1160.05 319.177  13
   6  -2  -5 164.938 134.627   1
  -6   2  -5 598.203 241.626   3
   6   2  -5 1131.64 399.033   1
  -6   2  -5 627.654 226.586  12
   6   2  -5 635.169 207.712  20
   6  -2   5 1044.23 302.961   1
  -6   2  -5 780.533 302.136   5
   6  -2   5 640.895 271.491  16
   6   2  -5 1633.57 531.378  11
  -6  -2   5 1025.07 426.993   5
  -6  -2   5 807.472 295.135  19
  -6   2  -5 656.298 253.623  19
  -6  -2   5 784.115 306.083   2
   6   2  -5 948.732 352.937  18
  -6  -2   5 617.591 301.119  17
   6   2  -5 1128.43 332.104   8
   6  -2   5 1249.47 432.160   8
  -6   2  -5 855.993 345.919   4
   6  -2   5 1080.70 332.972   6
   6  -2   5 1103.21 348.662  14
  -6   2  -6 1167.92 346.384   3
  -6  -2   6 1424.95 405.024   4
  -6   2  -6 71.6205 64.7909  13
  -6   2  -6 1369.18 392.259  12
   6  -2   6 2370.86 453.306   1
   6   2  -6 2165.83 543.469   1
  -6  -2   6 1547.14 515.246   5
  -6   2  -6 1506.91 444.195   5
   6   2  -6 2843.25 662.007  11
  -6  -2   6 1920.56 490.298   2
  -6   2  -6 1483.04 416.799  19
  -6  -2   6 1788.23 387.937  19
   6   2  -6 1870.69 392.249  10
   6   2  -6 2007.47 510.800  18
   6  -2   6 2489.63 639.993   8
   6   2  -6 2103.01 424.785   8
  -6  -2   6 1509.79 515.642  17
   6   2  -6 965.699 280.997  20
  -6   2  -6 1435.81 467.005   4
  -6  -2   6 1355.83 274.595  16
   6  -2   6 1818.41 445.893  16
   6  -2   6 2521.92 541.566   6
   6   2  -6 888.393 317.293  14
   6   2  -6 1398.22 202.380   3
   6  -2   6 2310.63 509.425  14
  -6   2  -7 1541.83 445.640   3
   2   6  -7 2162.06 641.473  13
  -6   2  -7 359.898 142.426  13
  -6   2  -7 1591.06 441.044  12
   6  -2   7 2868.93 510.637   1
   6   2  -7 2655.05 603.767   1
   2  -6   7 277.618 183.720   6
  -6   2  -7 1724.68 494.886   5
   6  -2   7 3495.41 657.810   6
  -6  -2   7 2432.41 657.190   5
   6   2  -7 3824.38 804.736  11
  -6  -2   7 2784.43 624.036   2
  -6  -2   7 2637.29 429.081  16
  -6  -2   7 2471.00 443.406  19
   6   2  -7 2407.96 496.752  10
  -6   2  -7 1667.74 449.460  19
  -6  -2   7 2190.65 504.023   4
  -6   2  -7 2404.57 357.651   9
   6   2  -7 2770.56 641.472  18
   6  -2   7 3330.32 731.782   8
   6   2  -7 2233.83 425.098   8
  -6  -2   7 2633.19 728.375  17
  -6   2  -7 1750.34 527.517   4
   6  -2   7 2767.74 581.078  16
   6   2  -7 1138.66 390.257  20
  -6   2  -7 2277.89 529.948  20
  -2   6  -7 2299.99 568.799   3
  -6   2  -7 1923.30 374.454  10
   6   2  -7 1321.66 391.591  14
   6  -2   7 2920.57 585.086  14
   6   2  -7 2691.11 311.414   3
   6   2  -8 689.019 257.842  14
   2   6  -8 1389.09 527.893  13
  -2   6  -8 447.212 240.515  13
  -6   2  -8 874.383 214.641   9
   6   2  -8 1801.36 493.301   9
   6  -2   8 1139.83 335.880   1
  -6   2  -8 427.150 161.411  13
  -2   6  -8 1622.91 388.347  12
   6   2  -8 28.0767 228.062  20
   6   2  -8 1596.63 478.268   1
   2  -6   8 407.141 223.272   6
  -2  -6   8 137.012 119.910   6
   6  -2   8 2223.19 523.422  14
  -6  -2   8 1529.13 514.579   5
  -6   2  -8 638.786 271.449   5
   6   2  -8 1783.76 519.092  11
  -6  -2   8 1450.32 442.323   2
   6   2  -8 954.209 315.818  10
  -6   2  -8 1780.35 699.880   7
  -6   2  -8 682.896 301.893  19
  -6  -2   8 1169.82 355.566   4
   6   2  -8 1492.64 460.372  18
   2   6  -8 778.971 210.087  18
   6  -2   8 2006.78 586.180   8
   6   2  -8 694.861 237.014   8
  -6   2  -8 1213.54 411.202  20
  -6   2  -8 957.205 408.832   4
  -6  -2   8 1460.57 516.388  17
  -6   2  -8 2006.68 716.352  15
   6  -2   8 1731.47 483.351  16
  -6  -2   8 1562.05 343.368  19
  -6   2  -8 1082.35 287.169  10
  -6  -2   8 1542.20 351.040  16
   2   6  -8 1432.78 413.619   3
   6  -2   8 1954.39 534.738   6
  -2   6  -8 1846.14 517.076   3
   2   6  -9 2557.94 696.186  13
  -2   6  -9 1183.82 480.469  13
  -2   6  -9 2483.31 481.217  12
   2  -6   9 1022.13 341.468   6
  -2  -6   9 573.019 232.038   6
   6   2  -9 1982.18 508.108   1
  -6   2  -9 1454.07 494.631  20
  -6  -2   9 2317.78 629.766   5
   6   2  -9 1531.26 458.088   9
   6   2  -9 2419.38 638.931  11
  -6  -2   9 2167.55 584.608   2
   6   2  -9-156.569 435.311  20
  -6  -2   9 2035.62 391.073  19
  -6   2  -9 1173.12 340.995  10
  -6   2  -9 1215.56 413.686  19
   6  -2   9 855.943 329.214   1
   2   6  -9 1913.29 581.921  18
  -6   2  -9 763.047 226.872   9
   6   2  -9 1795.19 527.836  18
  -6  -2   9 2148.73 467.334   4
   6  -2   9 2462.27 596.600  16
  -6   2  -9 867.728 374.710   4
  -6  -2   9 1828.24 612.643  17
   6  -2   9 3720.32 824.322   8
   2   6  -9 2456.09 558.759   3
  -6  -2   9 2288.13 461.463  16
  -6   2  -9 2055.99 760.137   7
   6  -2   9 2833.58 656.651   6
  -6   2  -9 2039.29 731.409  15
  -2   6  -9 2860.72 643.425   3
   6   2  -9 1131.01 319.265  14
   6  -2   9 2993.88 642.970  14
   6   2  -9 772.368 309.416  10
   6  -2  10 487.429 326.136  14
   6   2 -10 239.013 174.568  14
  -6   2 -10 541.991 399.026  19
   6  -2  10 668.415 383.798   6
   2   6 -10 477.843 247.379   3
  -6   2 -10 407.391 400.548   7
  -2   6 -10 395.571 201.750   3
  -2   6 -10 259.430 239.214  13
   2   6 -10 403.751 254.039  13
   2  -6  10 126.745 98.7917   6
  -2  -6  10 82.1917 66.6747   6
  -2   6 -10 275.138 166.931  12
   6  -2  10 454.014 186.921   2
   6   2 -10 517.840 356.540  11
  -6   2 -10 866.153 370.774  10
  -6   2 -10 543.851 393.978  20
  -2   6 -10 27.1529 169.273  18
  -6  -2  10 782.027 443.541   5
   2   6 -10 320.200 242.794  18
   6   2 -10 743.057 263.470  10
  -6   2 -10 1283.00 407.888   9
  -6  -2  10 477.523 219.416  19
   6   2 -10 659.295 356.324   9
   6   2 -10 493.349 322.773  18
  -6   2 -10-269.710 318.745   4
   6  -2  10 1727.06 802.640   8
  -2  -6  10 92.6348 154.632  17
   6   2 -10 205.802 143.182   1
  -6  -2  10 1388.54 621.179  17
  -6  -2  10 368.159 173.778   4
   6  -2  10 580.456 342.069  16
  -6  -2  10 605.924 290.850  16
  -6  -2  10 696.055 459.499   2
  -6   2 -10 203.061 155.381  15
  -6   2 -11 1000.31 302.468  10
  -2   6 -11 3384.61 771.484  13
   2   6 -11 5055.32 952.409  13
  -2   6 -11 5098.21 711.640  12
   2   6 -11 3025.60 481.195  12
   6   2 -11 3219.18 689.183   1
  -6  -2  11 4445.52 864.642   5
   6   2 -11 3608.63 849.534  11
   6  -2  11 4544.66 489.035   2
  -6  -2  11 4567.38 848.088   2
  -6   2 -11 1632.31 526.016  20
  -6   2 -11 569.796 201.034   9
  -2   6 -11 4157.88 629.271  18
   6   2 -11 3222.60 754.238  18
   6   2 -11 1750.29 534.397   9
  -6  -2  11 4232.19 649.344   4
   6   2 -11 937.646 399.238  10
   2  -6  11 2481.82 567.446  17
  -6  -2  11 3733.93 907.636  17
  -2  -6  11 2274.90 684.206  17
  -2   6 -11 3929.82 526.074   4
   6  -2  11 4871.61 904.432  16
  -6  -2  11 4083.65 691.701  16
   2  -6  11 1465.38 424.787  16
   6  -2  11 6367.03 1131.15   8
  -6   2 -11 1441.09 444.255  19
  -6   2 -11 2048.31 672.365   7
  -6   2 -11 1835.40 704.673  15
   6  -2  11 5254.69 940.271   6
   6  -2  11 4890.35 869.636  14
   6   2 -11 1602.54 387.470  14
  -2  -6  11 1767.81 433.025   6
   2  -6  11 3450.59 642.043   6
   2   6 -11 4371.41 769.334   3
  -2   6 -11 5588.15 950.438   3
   2  -6  11 1521.55 317.734  14
  -2   6 -12 584.172 226.012  18
   6   2 -12 177.764 124.404  14
  -6   2 -12 167.876 226.236  19
   6  -2  12 469.059 278.140   6
   2  -6  12 361.609 149.530  14
   2  -6  12 387.298 253.702   6
   2   6 -12 653.530 303.020   3
  -2   6 -12 371.265 209.291  13
  -2   6 -12 769.808 356.135   3
   2   6 -12 565.914 270.990  13
  -6   2 -12 118.304 111.548  10
  -2   6 -12 763.003 288.652  12
   6   2 -12 17.3837 153.479  10
   2   6 -12 497.591 199.760  12
   6   2 -12 229.492 148.364  11
  -6   2 -12 206.315 253.957  20
   2  -6  12 133.811 171.765  16
  -6   2 -12-41.3840 168.870   9
   2   6 -12 345.751 287.293  18
   6  -2  12 690.673 206.640   2
   6   2 -12 344.748 218.520  18
   2  -6  12 417.456 216.461  17
  -2  -6  12 284.689 202.292   6
  -2  -6  12 337.515 280.178  17
   6  -2  12 928.045 454.788   8
  -6  -2  12 375.558 308.015  17
  -6  -2  12 694.165 374.685   5
  -6  -2  12 602.253 313.359   2
  -2  -6  12 5.13465 284.788  16
  -6  -2  12 629.301 257.728   4
  -2   6 -12 571.121 218.902   4
   6  -2  12 758.344 360.757  16
  -6  -2  12 392.634 216.549  16
  -6   2 -12-309.817 481.096   7
  -6   2 -12-219.245 444.535  15
   6   2 -12 150.329 108.948   9
   6   2 -12 475.241 270.747   1
   6  -2  12 476.215 272.769  14
   6   2 -13 754.719 341.948   1
   6   2 -13 352.606 168.017  14
   2  -6  13 628.157 399.496  16
   6   2 -13 6.50298 218.239  10
  -2  -6  13 798.908 312.669   6
   2  -6  13 1294.15 439.106   6
  -2   6 -13 1309.78 496.148  13
   2   6 -13 1442.18 541.070  13
  -2   6 -13 1262.16 392.153  12
   2   6 -13 1215.92 329.424  12
  -6  -2  13 1519.80 524.368   5
   6  -2  13 1841.26 360.802   2
   6   2 -13 1022.92 471.823  11
   6   2 -13 88.9506 156.191   9
  -6   2 -13 206.888 146.758  20
  -6   2 -13 236.610 142.547  19
  -2   6 -13 1707.72 397.693  18
  -6   2 -13 208.725 190.970  10
  -6   2 -13-59.7789 181.480   9
   2   6 -13 821.601 480.392  18
  -2   6 -13 1584.12 363.537   4
  -6  -2  13 1410.12 384.055   4
   6   2 -13 716.475 354.328  18
   2  -6  13 1902.22 475.348  17
  -2  -6  13 1337.67 575.822  17
   6  -2  13 1850.47 625.441   8
  -6  -2  13 1411.00 571.659  17
  -6  -2  13 1486.95 529.756   2
  -2  -6  13 758.896 323.238  16
   6  -2  13 1544.05 548.693  16
   2  -6  13-200.832 250.663   8
  -6  -2  13 1434.64 452.661  16
  -6   2 -13-619.789 621.819  15
   6  -2  13 1700.27 598.764   6
   2  -6  13 1337.70 277.900  14
   2   6 -13 1789.60 541.349   3
  -2   6 -13 1667.99 546.045   3
   6  -2  13 1161.63 448.105  14
   6  -2  14 807.438 372.245   6
  -6  -2  14 814.938 365.512   5
   2  -6  14 758.893 213.626  14
   6   2 -14 531.894 323.634   1
  -2  -6  14 462.279 253.308   6
   6   2 -14 134.279 118.766  14
   2  -6  14 845.944 358.010   6
   2  -6  14 560.741 335.746  16
  -2   6 -14 433.645 290.898  13
   2   6 -14 933.630 456.705  13
   2   6 -14 958.118 381.658   3
  -2   6 -14 694.802 332.359   3
  -2   6 -14 706.594 300.766  12
   2   6 -14 648.703 233.600  12
   6   2 -14 352.064 356.465  11
   6   2 -14 460.443 308.535  18
   6   2 -14-190.672 374.885  10
  -6   2 -14-21.0601 199.434  20
  -6   2 -14-101.090 221.129  19
   6   2 -14 20.9023 122.291   9
   2   6 -14 632.419 400.520  18
  -2   6 -14 1030.79 306.211  18
  -6   2 -14-203.415 311.106   9
   6  -2  14 1167.68 551.929   8
  -2  -6  14 747.271 396.738  17
   6  -2  14 1041.03 283.430   2
  -6  -2  14 721.906 417.065  17
  -6   2 -14-126.991 271.765  10
  -2  -6  14 485.038 317.123  16
  -6  -2  14 937.545 446.298   2
  -6  -2  14 832.428 293.279   4
   2  -6  14 80.7080 137.685   8
   6  -2  14 959.248 454.681  16
  -6  -2  14 740.285 323.813  16
   2  -6  14 843.690 324.326  17
  -2   6 -14 747.663 272.732   4
   6  -2  14 608.413 285.860  14
   6  -2  15 1480.95 566.435   6
   2   6 -15 1389.40 510.769  18
   6   2 -15 275.245 140.840  14
   6  -2  15 2055.40 687.397  16
  -2  -6  15 466.125 295.921   6
   2  -6  15 1363.34 510.571   6
   6   2 -15 870.789 378.066   1
   2  -6  15 691.946 274.372   8
  -2   6 -15 1268.31 483.469  13
  -2   6 -15 1712.94 483.800  12
   2   6 -15 1617.00 400.874  12
  -2   6 -15 1272.95 478.244   3
  -6  -2  15 1670.20 539.684   5
   2   6 -15 2869.61 829.207  11
  -2   6 -15 3446.73 732.983  11
   6  -2  15 2081.73 419.248   2
   2   6 -15 1529.22 584.648  13
  -6  -2  15 2159.35 761.284  17
  -6   2 -15-196.134 416.935  20
   2   6 -15 2207.24 831.719   7
  -2  -6  15 1214.98 546.581   2
  -2  -6  15 1074.74 471.704  16
  -2   6 -15 1846.56 437.615  18
   6   2 -15 252.979 254.044   9
  -6   2 -15 46.5524 113.593  19
  -6   2 -15-375.202 389.359   9
   6   2 -15 752.279 459.738  11
  -2   6 -15 652.199 234.947   4
   6   2 -15 802.087 459.022  18
   2  -6  15 1694.33 477.898  17
   2  -6  15 1642.48 330.610  14
  -2  -6  15 1686.62 601.649  17
   2  -6  15 1134.83 527.916  16
  -6  -2  15 1765.06 619.868   2
  -6  -2  15 1648.21 389.055   4
   6  -2  15 2182.46 683.248   8
   2   6 -15 1826.34 761.374  15
  -6  -2  15 1249.92 483.509  16
   2   6 -15 1650.75 508.507   3
   6   2 -16 67.5331 73.1139   9
   6  -2  16 165.644 235.064   6
   2  -6  16 220.354 137.024  14
   6   2 -16 42.9907 37.8042  14
  -2  -6  16 124.305 181.070   6
   2  -6  16 52.0940 62.3475   6
  -2   6 -16 233.590 244.724  13
   2   6 -16 199.837 262.392  13
   6   2 -16 235.732 212.577   1
   2   6 -16 110.321 114.836   3
  -2   6 -16 225.324 197.657   3
  -6  -2  16 58.4324 49.3054   5
  -2   6 -16 171.144 166.637  12
   2   6 -16 234.886 142.757  12
   2   6 -16 363.809 215.338  11
  -2   6 -16 426.078 273.709  11
   2   6 -16 734.811 614.899  20
   6   2 -16-46.5109 75.9418  18
   6   2 -16-12.5848 214.649  11
   6  -2  16 276.927 319.422   8
  -6   2 -16-11.0264 122.064  19
  -2  -6  16 260.855 170.547   2
   2   6 -16 1.33933 223.696  18
  -2   6 -16 240.978 188.829  18
  -2  -6  16 138.111 169.396  16
  -2  -6  16 24.3241 47.9005  17
   2  -6  16 383.890 192.890  17
  -6  -2  16 167.941 227.808  17
   6  -2  16 259.165 163.323   2
   2  -6  16 56.4089 103.230  16
  -6  -2  16 97.8904 203.949   2
   2  -6  16 33.9129 115.164   8
   6  -2  16 313.544 404.723  16
  -6  -2  16 184.109 158.899  16
  -6  -2  16 172.548 145.796   4
   2   6 -16 232.157 323.880   7
   2   6 -16-64.9447 285.636  15
  -2   6 -16 860.999 688.204  15
   2  -6  17 821.768 247.901  14
  -2  -6  17 151.444 143.340   6
   2  -6  17 1039.89 489.372   6
   6  -2  17 1590.12 651.845  16
  -2   6 -17 938.469 458.259  13
   2   6 -17 886.885 449.225  13
   2   6 -17 1541.21 386.020  12
   2   6 -17 1710.58 552.168   3
   6   2 -17 630.967 372.698   1
  -2   6 -17 1168.62 509.298   3
  -2   6 -17 1260.17 402.539  12
   2   6 -17 2251.31 680.142  11
  -2   6 -17 2353.80 616.355  11
   6  -2  17 2104.34 496.065   2
  -2   6 -17 1868.67 810.755  20
  -6   2 -17 3.03496 134.200  19
  -6  -2  17 1618.26 515.871   5
  -2  -6  17 1279.90 527.535   2
   2  -6  17 1232.08 606.182  16
   6   2 -17 502.863 388.901  18
  -2   6 -17 1484.36 415.070  18
   6   2 -17 145.952 147.138   9
   2   6 -17 1038.56 510.105  18
  -6  -2  17 1425.19 366.981   4
   6  -2  17 2475.85 799.083   8
  -2  -6  17 1796.90 627.747  17
   2  -6  17 1558.66 509.769  17
   6   2 -17 285.016 320.674  11
  -6  -2  17 2102.14 771.257  17
  -2  -6  17 1273.81 545.681  16
  -6  -2  17 1850.94 627.365   2
   2  -6  17 1077.46 365.451   8
  -6  -2  17 1532.13 583.784  16
   2   6 -17 357.109 303.186   7
  -2   6 -17 2258.66 963.684   7
   2   6 -17 626.616 316.663  15
  -2   6 -17 1917.57 922.181  15
   6  -2  17 1626.40 656.396   6
  -2  -6  18 132.443 229.931   6
   2  -6  18 561.070 313.107   6
  -2   6 -18 100.387 203.103  13
   2   6 -18 117.926 230.060  13
   2   6 -18 193.166 252.161   3
  -2   6 -18 96.1100 202.772  12
  -2   6 -18 165.238 171.711  18
  -2   6 -18 58.5520 190.762   3
   2   6 -18 305.253 241.164  12
   6   2 -18 104.072 186.232   1
   2   6 -18 47.9160 267.641  11
  -2   6 -18 406.713 295.718  11
   2   6 -18 597.650 481.976  20
   6   2 -18 235.835 294.016  11
  -2   6 -18 1482.84 780.861  10
  -6   2 -18 45.1926 97.3454  19
  -6  -2  18 124.173 110.830   5
  -2  -6  18-12.7363 28.0560  16
   6  -2  18 412.326 399.181   8
   2   6 -18 1203.28 724.078  10
   2   6 -18 34.8552 102.151  18
  -2  -6  18 156.868 225.226   2
   6   2 -18 117.828 279.540  18
  -2  -6  18 65.7941 18.9808  17
   2  -6  18 195.083 147.116  17
  -6  -2  18 240.369 366.782  17
   6  -2  18 322.165 210.582   2
   2  -6  18 174.207 254.927  16
   2  -6  18 259.655 221.794   8
  -2   6 -18 278.549 417.265  20
  -6  -2  18 418.518 359.494   2
   6  -2  18 361.823 417.166  16
  -6  -2  18 51.7748 192.385  16
  -6  -2  18 121.469 53.1123   4
  -2   6 -18 210.122 428.400   7
  -2   6 -18 96.5712 481.214  15
   6   2 -18-7.80327 259.958   9
   6  -2  18 74.1230 262.655   6
  -6   2 -19 218.626 214.156  19
  -6   3   0 1311.17 374.423  19
   6  -3   0 358.314 171.264   6
   6   3   0 995.609 420.140   1
   6  -3   0 639.113 255.351   1
   6   3   0 382.798 196.776   8
   6  -3   0 452.744 246.210   8
   6  -3   0 847.313 301.272  14
   6  -3   1 361.644 195.214  14
   6  -3  -1 228.680 165.894  14
   6   3  -1 360.191 241.422   1
   6  -3   1 294.533 177.679   6
  -6   3  -1 183.188 115.416  12
   6  -3  -1 95.7322 110.868   1
   6   3   1 209.394 132.716   1
  -6   3   1 447.307 205.527  19
   6   3  -1 428.531 173.864  18
  -6   3  -1 187.902 58.3437   5
   6   3  -1 216.401 90.2792   8
   6  -3   1 256.295 184.948   8
  -6   3  -1 482.752 219.999  19
   6  -3  -1-60.2239 216.977   8
   6  -3   1 238.924 138.407   1
   6   3  -2 2987.97 713.677   1
  -6   3  -2 2411.87 462.811  12
  -6   3  -2 2511.03 528.460   5
   6  -3   2 2091.00 437.391   1
  -6   3  -2 3368.36 604.232  19
   6   3  -2 3721.37 707.489  18
   6   3  -2 2655.88 584.911   8
  -6  -3   2-331.080 218.590  19
  -6   3  -2 2359.20 528.500   4
  -6  -3   2 474.925 253.871  17
   6  -3   2 2169.17 564.730   8
   6  -3   2 2596.60 506.730   6
   6  -3   2 2608.38 519.680  14
  -6   3  -3 25.7176 75.6881   3
   6  -3   3 199.038 169.828  14
   6   3  -3 103.545 105.307  13
  -6   3  -3 48.6845 59.2402  19
   6  -3   3 109.416 130.873   6
  -6   3  -3 34.2050 50.6033  12
  -6  -3   3-3.87617 79.0749  17
  -6  -3   3 9.16870 57.0262  19
  -6   3  -3 145.148 122.324   4
   6  -3   3 84.9964 46.8355   8
  -6   3  -3 105.639 122.599   5
   6   3  -3 115.572 127.752   8
   6   3  -3 220.360 217.051  18
   6  -3   3 85.8843 87.7828   1
   6   3  -3 103.701 81.7762   1
  -6   3  -4 477.828 225.251   3
   6   3  -4 935.788 296.383  13
   6   3  -4 753.132 356.728   1
  -6   3  -4 786.782 280.213  12
   6  -3   4 917.983 264.352   1
  -6   3  -4 1005.77 321.531  19
  -6   3  -4 854.544 310.653   5
  -6  -3   4 217.390 167.972  19
   6   3  -4 1121.73 408.845  18
  -6  -3   4 360.821 273.632  17
   6  -3   4 805.671 340.799   8
  -6   3  -4 894.427 338.869   4
   6   3  -4 1166.03 372.733   8
   6  -3   4 979.439 335.541   6
   6  -3   4 1015.37 326.790  14
   6   3  -5 2117.49 458.946  13
   6   3  -5 1657.54 521.847   1
  -6   3  -5 1378.37 367.360  12
   6  -3   5 1774.90 370.379   1
  -6   3  -5 1642.47 433.109   5
  -6  -3   5 660.523 232.860  19
  -6  -3   5 1123.70 413.462   2
  -6  -3   5 660.815 378.456  17
   6   3  -5 2167.23 571.906  18
  -6   3  -5 1542.96 461.356   4
   6   3  -5 2190.13 500.989   8
   6  -3   5 1546.96 491.950   8
  -6   3  -5 1721.05 432.950  19
   6  -3   5 1964.49 471.229   6
   6  -3   5 1731.11 428.078  14
  -6   3  -5 1187.25 360.104   3
   6   3  -5 251.084 177.592  14
   6   3  -6 1677.37 421.026  13
   3   6  -6 881.601 345.740  13
  -6   3  -6 1171.65 345.446  12
   6  -3   6 1404.08 328.882   1
  -6   3  -6 1215.27 382.468   5
  -6  -3   6 428.102 234.317   5
  -6   3  -6 1293.69 374.943  19
  -6  -3   6 943.423 397.457   2
   6   3  -6 1445.11 466.065  18
   6   3  -6 1726.61 397.126   8
  -6  -3   6 847.658 278.034  19
  -6  -3   6 856.407 405.543  17
   6  -3   6 1372.48 459.772   8
  -6   3  -6 1108.66 379.149   4
   6  -3   6 388.483 88.6249  16
   6  -3   6 1584.83 453.370   6
   6  -3   6 1202.21 364.909  14
   6   3  -6 1112.20 423.257   1
   6   3  -6 112.541 130.670  14
  -6   3  -6 980.219 342.196   3
   6   3  -7 1294.07 442.118   1
   3   6  -7 1638.59 521.466  13
   6   3  -7 2007.67 469.489  13
  -6   3  -7 10.5733 77.8823  13
  -3   6  -7 1434.06 375.049  12
  -6   3  -7 1287.68 359.506  12
   6  -3   7 1721.14 360.471   1
   3  -6   7 275.484 204.540   6
  -6   3  -7 1769.19 467.059   5
  -6  -3   7 876.498 376.836   5
   6   3  -7 1957.56 498.714  20
  -6  -3   7 548.206 168.882  16
  -6  -3   7 1024.37 395.354  17
  -6   3  -7 1412.35 391.515  19
  -6  -3   7 1353.55 459.617   2
   6   3  -7 1807.73 522.962  18
  -6   3  -7 1665.48 498.652   4
   6   3  -7 1809.47 375.656   8
   6  -3   7 1654.01 520.504   8
  -6  -3   7 84.0090 141.018   4
  -6  -3   7 1298.22 329.924  19
   6  -3   7 1142.17 392.787  16
   6   3  -7 832.659 198.470   3
  -3   6  -7 1483.49 476.263   3
   6  -3   7 2061.64 508.989   6
   6  -3   7 1563.08 416.961  14
   6   3  -7 153.907 142.473  14
  -6   3  -7 1109.95 377.752   3
   3   6  -8 3610.66 793.918  13
   6   3  -8 3607.90 653.587  13
  -6   3  -8 176.675 99.5004  13
   6   3  -8 2968.47 465.966   8
  -6   3  -8 2130.86 509.476  12
  -3   6  -8 3094.43 558.520  12
   6   3  -8 3046.01 683.709   1
   6  -3   8 3268.76 503.070   1
   3  -6   8 1099.14 367.371   6
  -3  -6   8 147.077 124.254   6
  -6  -3   8 2301.04 623.753   5
  -6   3  -8 2806.53 588.723   5
   6   3  -8 4606.29 930.116  11
  -6  -3   8 2634.71 651.854   2
   6   3  -8 3012.34 607.397  20
  -6   3  -8 2350.25 531.125  19
  -6  -3   8 2388.77 442.268  19
   3   6  -8 2157.47 627.574  18
   6   3  -8 3606.78 742.409  18
  -6   3  -8 2278.50 583.350   4
   6  -3   8 3420.49 746.682   8
  -6  -3   8 644.281 224.594   4
  -6  -3   8 2132.22 646.476  17
  -6  -3   8 1967.92 409.028  16
   6  -3   8 2522.78 605.829  16
  -3   6  -8 3582.14 736.727   3
   6  -3   8 3642.51 706.661   6
   6  -3   8 3571.69 631.283  14
   6   3  -8 3221.40 411.496   3
   6   3  -8 183.908 157.807  14
  -6   3  -8 2034.28 524.819   3
  -3   6  -9 1177.60 407.219   3
  -3   6  -9 161.219 64.4219  13
  -6   3  -9 1350.30 378.183  13
  -3  -6   9 320.085 300.310  17
   6  -3   9 1492.91 403.286   1
   6   3  -9 1122.55 311.011  13
  -3   6  -9 1253.78 371.501  12
   6   3  -9 1072.84 399.032   1
   3  -6   9 508.455 267.433   6
  -3  -6   9 275.644 155.546   6
  -6   3  -9 1435.02 470.880   3
   6   3  -9 1663.57 572.265  11
  -6  -3   9 1773.01 614.067   2
  -6   3  -9 853.209 316.694   5
  -6  -3   9 1496.80 556.830   5
   6   3  -9 1104.41 397.528  20
   6   3  -9 1114.29 383.971  10
  -6   3  -9 1243.06 404.668  19
   6   3  -9 1212.36 398.637  18
  -6  -3   9 751.569 297.530   4
  -6  -3   9 2137.17 720.667  17
  -6   3  -9 1277.83 420.930   4
   6  -3   9 1631.42 547.912   8
  -6   3  -9 1294.75 433.800  20
   6  -3   9 1523.43 547.015  16
   3   6  -9 963.616 327.403   3
   3   6  -9 1329.50 497.616  13
   6  -3   9 2031.13 569.505   6
   6  -3   9 1543.02 420.905  14
   6   3  -9 1422.77 297.602   3
   6   3  -9 378.270 218.794  14
   3   6  -9 1244.91 450.162  18
  -6   3 -10 2317.71 583.327   3
  -3   6 -10 1655.75 569.033  13
   3   6 -10 4741.05 914.762  13
   6  -3  10 1946.04 409.207   1
  -6   3 -10 1243.26 371.670  13
  -6   3 -10 2261.55 560.347  12
  -3   6 -10 4220.54 687.802  12
   3   6 -10 3710.71 818.899  18
   6   3 -10 3462.62 722.408   1
  -6  -3  10 2803.32 704.012   5
   6   3 -10 5016.61 997.525  11
  -6   3 -10 1528.93 424.081   5
  -6  -3  10 3851.16 823.372   2
  -6   3 -10 3031.20 720.974  20
  -6   3 -10 3477.38 606.740  10
   6   3 -10 2421.19 653.088  10
  -6  -3  10 2803.08 450.918  19
  -6   3 -10 2328.23 510.668  19
   6   3 -10 3918.25 831.596  18
  -6  -3  10 2069.42 473.619   4
  -6   3 -10 2146.45 593.339   4
  -3   6 -10 3219.38 521.425   4
   6  -3  10 4828.31 931.801   8
  -6  -3  10 3359.67 869.639  17
  -3  -6  10 675.497 402.518  17
   6  -3  10 4569.44 856.053  16
  -6  -3  10 3373.38 597.288  16
   6   3 -10 2539.91 637.137  20
  -6   3 -10 4409.12 1138.13  15
   3   6 -10 4742.62 778.596   3
   6  -3  10 5017.98 875.849   6
   6  -3  10 5091.53 812.549  14
   3  -6  10 2334.42 578.303   6
  -3  -6  10 1233.32 346.034   6
  -3   6 -10 4071.43 804.917   3
   3  -6  10 1468.44 348.398  14
   6   3 -10 250.944 175.480  14
   6   3 -10 4426.59 552.496   3
   6  -3  11 76.3806 127.801  14
   3   6 -11 67.3628 23.7754   3
   3  -6  11 57.4251 47.7625  14
  -3   6 -11 106.299 138.750   3
  -3   6 -11 19.1021 50.7843  13
   3   6 -11 147.478 172.089  13
  -6   3 -11 74.8919 112.179  13
  -3  -6  11 37.2085 106.109   6
   3  -6  11 122.120 7.99924   6
  -6   3 -11 244.570 286.394  12
  -3   6 -11 135.607 138.387  12
   6   3 -11 175.405 147.509   3
  -6   3 -11 144.343 216.514   3
   6  -3  11 41.0668 8.30718   6
  -6  -3  11 36.2260 47.2987  19
   6   3 -11 132.433 175.969   1
   6   3 -11 22.5792 174.891  11
   6  -3  11-65.1910 171.622   1
  -6   3 -11-42.4731 111.746  20
   6   3 -11 28.6874 63.3580  20
  -6   3 -11-16.3450 73.0319  10
   6   3 -11 680.238 450.494   9
  -3   6 -11 134.020 152.487  18
   3   6 -11 113.248 176.852  18
   6   3 -11 74.0376 110.744  18
  -6  -3  11 78.3975 122.305   5
  -6  -3  11 182.823 239.067   2
  -6   3 -11-94.8372 189.964   4
   3  -6  11-84.7566 101.971  17
  -6  -3  11 47.6651 45.6533   4
  -6  -3  11-56.6659 165.329  17
   6  -3  11 55.7796 189.494   8
   6  -3  11 173.469 146.801  16
  -6  -3  11 33.5330 96.9676  16
  -6   3 -11 311.714 234.737   9
  -3   6 -11 70.6295 96.8733   4
   6   3 -11 110.225 135.712  10
  -6   3 -11 584.982 472.925   7
  -6   3 -11 49.9815 145.534  19
  -6   3 -11 490.299 468.980  15
   6   3 -11-82.1327 127.097  14
  -3  -6  11-122.797 179.813  17
   6   3 -12 3133.34 523.491   3
   3   6 -12 3321.67 804.659  13
  -3   6 -12 1036.25 496.510  13
  -3  -6  12 995.136 344.821   6
  -6   3 -12 815.896 305.750  13
   6   3 -12 2248.34 237.342  12
  -3   6 -12 2913.18 608.917  12
   3   6 -12 1698.30 332.248  12
  -6   3 -12 1561.28 445.086  19
   6   3 -12 2157.54 596.432   1
  -6  -3  12 2496.26 670.794   5
  -3   6 -12 2343.52 314.349   5
   6   3 -12 3156.89 850.529  11
  -6  -3  12 2705.81 719.173   2
  -6   3 -12 1808.70 578.172  20
   6   3 -12 589.573 274.490  20
  -6  -3  12 767.051 197.140  19
  -6   3 -12 1740.84 475.961  10
   6   3 -12 1758.43 551.320  10
   6   3 -12 2587.89 714.398   9
  -3  -6  12 1036.31 491.596  17
  -6   3 -12 1781.14 417.983   9
  -3   6 -12 2745.22 474.980  18
   6   3 -12 2241.97 638.720  18
  -6  -3  12 1854.14 420.634   4
  -3   6 -12 2765.77 521.417   4
   6  -3  12 4225.70 887.436   8
  -6   3 -12 323.679 122.562   4
   3  -6  12 2354.57 489.992  17
  -6  -3  12 2441.08 746.186  17
  -6   3 -12 2041.03 796.740  15
   6  -3  12 2827.01 722.471  16
  -6  -3  12 2712.37 590.332  16
  -3  -6  12 631.098 272.963  16
   3  -6  12 924.827 429.456  16
   3  -6  12 489.196 221.408   8
  -6   3 -12 1675.86 733.587   7
   6  -3  12 3436.82 782.102   6
   3  -6  12 1999.88 595.669   6
   6  -3  12 3279.85 689.980  14
   3   6 -12 2891.54 622.914   3
   3  -6  12 1773.88 374.996  14
  -3   6 -12 2648.69 699.720   3
   6   3 -12 137.322 96.9312  14
   6  -3  13 1029.99 435.980  14
   6  -3  13 968.937 427.207   6
  -3   6 -13 987.253 310.867  18
   3  -6  13 770.112 243.861  14
  -3  -6  13 343.737 201.056   6
   3   6 -13 1028.30 406.411   3
  -3   6 -13 402.088 331.262  13
   3  -6  13 713.195 373.043   6
  -3   6 -13 889.837 395.135   3
   6   3 -13 978.818 190.049  12
   3   6 -13 746.569 228.087  12
  -3   6 -13 889.148 353.253  12
   6   3 -13 755.508 370.657   1
  -3   6 -13 794.192 187.571   5
  -3  -6  13 326.868 158.144  16
   6   3 -13 672.598 392.824  11
  -6   3 -13 431.419 294.289  20
  -6  -3  13 856.560 425.991   5
   6   3 -13 390.070 201.559  10
   6   3 -13 120.795 221.022  20
   6  -3  13 619.318 231.387   2
  -6   3 -13 340.808 187.181   9
   3   6 -13 569.574 340.053  18
   6   3 -13 816.958 396.541  18
  -6  -3  13 872.116 398.338   2
   3  -6  13 1095.19 340.527  17
  -3  -6  13 722.702 386.670  17
  -6  -3  13 788.627 287.577   4
   6   3 -13 485.005 306.682   9
   6  -3  13 1138.79 481.370   8
  -6  -3  13 1424.31 579.947  17
  -3   6 -13 895.957 338.748   4
   3  -6  13 438.436 296.353  16
   6  -3  13 1002.94 454.297  16
  -6  -3  13 906.881 353.311  16
   3  -6  13 384.192 208.223   8
  -6   3 -13 360.540 331.250   7
  -6   3 -13 463.179 268.712  19
  -6   3 -13 491.731 400.422  15
   3   6 -13 952.663 422.258  13
  -6   3 -13 400.085 184.696  10
   6   3 -13 36.0239 97.6587  14
   6  -3  14 1701.57 588.339   6
  -3  -6  14 579.001 255.189   6
   3  -6  14 1259.03 434.484   6
  -3   6 -14 949.641 454.046  13
   3   6 -14 1790.63 629.089  13
  -3   6 -14 1315.08 498.603   3
  -3   6 -14 1448.23 452.708  12
   3   6 -14 1456.67 345.302  12
   6   3 -14 325.013 267.679  10
   6   3 -14 1163.67 544.260  11
  -6   3 -14 475.705 287.286  20
  -6  -3  14 1172.44 487.725   5
   3   6 -14 1087.11 507.534  18
   6  -3  14 1515.95 368.776   2
  -6   3 -14 484.372 195.316  10
  -6   3 -14 648.078 291.084  19
   6   3 -14 1097.14 448.713   1
   6   3 -14 824.170 432.825   9
  -3   6 -14 1516.28 370.883  18
  -6  -3  14 1234.23 344.242   4
   6   3 -14 1047.21 469.361  18
   3  -6  14 1852.01 413.524  17
  -3  -6  14 978.100 475.929  17
  -6  -3  14 1508.06 574.612   2
  -3   6 -14 1087.89 381.369   4
   6  -3  14 2157.71 685.988   8
  -6  -3  14 1260.75 570.931  17
   6   3 -14-77.3077 382.099  20
   3   6 -14 2240.94 830.843  15
  -6  -3  14 1590.69 506.913  16
  -3  -6  14 890.218 394.768  16
   3  -6  14 955.838 531.010  16
   3  -6  14 865.872 329.326   8
   6  -3  14 1867.87 641.188  16
  -3  -6  14 1022.86 524.643   2
  -6   3 -14 185.999 298.758   7
  -6   3 -14 385.419 350.392  15
   6  -3  14 1486.03 486.685  14
  -6   3 -14 464.990 203.318   9
   3  -6  14 1594.80 351.371  14
   3   6 -14 1860.10 541.234   3
   6   3 -14 97.5730 93.3450  14
   6   3 -15 447.098 326.688  18
   3  -6  15 673.006 235.354  14
   6  -3  15 845.432 448.632   6
  -3  -6  15 470.855 308.569  17
  -3  -6  15 201.578 167.069   6
   6  -3  15 628.968 276.694   2
   3  -6  15 385.053 311.350   6
  -3   6 -15 213.502 177.061  13
   3   6 -15 747.677 423.736  13
   3   6 -15 676.873 347.347   3
  -3   6 -15 378.681 281.421   3
  -3   6 -15 549.593 313.934  12
   3   6 -15 477.793 194.895  12
   3   6 -15 1300.20 655.099  11
  -3   6 -15 1422.67 485.095  11
   3   6 -15-85.9534 209.825   1
   6   3 -15 346.238 322.274  11
   6   3 -15 517.401 303.798   1
  -6   3 -15 215.292 189.647  20
  -6  -3  15 811.308 387.513   5
   6   3 -15-557.464 639.355  20
  -3  -6  15 516.212 417.055   2
  -6   3 -15 2.19910 156.475  10
   6   3 -15 38.4049 175.527  10
   6   3 -15 189.567 239.962   9
   3   6 -15 295.262 365.559  18
  -6   3 -15 284.458 196.180  19
  -3   6 -15 465.987 190.077  18
   3  -6  15 594.971 265.010  17
  -3   6 -15 365.430 215.792   4
  -6  -3  15 665.840 409.680   2
  -6  -3  15 384.869 194.266   4
  -6   3 -15 137.089 28.3660   9
  -6  -3  15 662.518 429.301  17
  -3  -6  15 234.804 197.137  16
   3  -6  15 529.762 338.212  16
   3  -6  15 405.338 216.436   8
   6  -3  15 892.253 430.493  16
  -6  -3  15 458.577 317.342  16
  -6   3 -15-636.325 814.897   7
   3   6 -15 645.355 472.936   7
   3   6 -15 671.306 474.172  15
   6  -3  15 976.933 480.054   8
   6   3 -15 53.0184 84.5529  14
   6  -3  15 433.399 273.210  14
   6  -3  16 1347.84 550.014   6
  -3  -6  16 160.367 173.731   6
   3   6 -16 1229.75 695.825  20
   3  -6  16 1007.95 469.794   6
  -3   6 -16 813.457 440.213  13
   3   6 -16 1118.41 513.547  13
   3   6 -16 1517.31 476.355   3
   3   6 -16 1177.60 312.553  12
  -3   6 -16 906.251 428.074   3
  -3   6 -16 969.948 375.815  12
   3   6 -16 2184.96 725.501  11
  -3   6 -16 1591.58 447.065  11
   6   3 -16 756.924 438.251  11
   3   6 -16-56.2551 150.952   1
   6   3 -16 155.075 182.033  10
  -6  -3  16 1399.53 529.110   5
  -6   3 -16 337.737 251.211  19
  -3  -6  16 985.668 568.956   2
  -6   3 -16 354.629 224.067  10
  -6  -3  16 991.873 463.593   2
   6   3 -16 370.620 294.078   9
   6  -3  16 1468.27 428.543   2
  -6   3 -16 89.1945 81.4308   9
  -6  -3  16 1105.65 334.755   4
   6   3 -16 603.956 331.544   1
   3   6 -16 940.091 499.549  18
   6   3 -16 802.224 417.810  18
  -3  -6  16 1281.98 579.910  17
   6  -3  16 2042.53 669.326   8
   3  -6  16 1213.17 374.129  17
  -3   6 -16 1020.89 322.780  18
  -6  -3  16 1379.57 572.007  17
  -3  -6  16 852.322 426.915  16
   3  -6  16 1090.09 545.483  16
   3  -6  16 1064.47 420.092   8
  -6  -3  16 1312.02 541.169  16
   6  -3  16 1529.23 654.859  16
   3   6 -16 267.823 308.040   7
   3   6 -16 604.362 330.043  15
   3  -6  16 1065.12 316.290  14
  -6   3 -16 342.386 291.384  20
   6  -3  16 879.722 432.420  14
   6   3 -16-27.4816 86.0636  14
   6   3 -17-328.691 395.549  10
   3  -6  17 0.17067 74.9462  14
   6  -3  17 222.431 357.938   6
  -3   6 -17 18.0074 53.8486  18
  -3  -6  17 39.6398 265.989   6
   3  -6  17-158.655 183.152   6
  -3   6 -17 258.979 381.945  13
   3   6 -17 73.8154 239.376  13
   3   6 -17 158.631 244.529   3
  -3   6 -17 109.259 289.233   3
  -3   6 -17 10.1612 191.371  12
   3   6 -17 244.417 301.551  12
   3   6 -17 297.536 353.019  11
  -3   6 -17 11.5220 53.7584  11
  -3   6 -17 335.891 496.052  20
   3   6 -17-186.783 104.728  20
  -6   3 -17-138.108 277.851  20
  -6  -3  17 72.0838 207.054   5
   3   6 -17 890.943 794.569  10
   3   6 -17-22.4234 46.4755   1
  -6   3 -17 105.071 167.407  19
  -3  -6  17 232.144 457.049   2
  -3   6 -17 574.458 662.858  15
  -6   3 -17 163.229 224.771  10
   3   6 -17 99.0121 157.647  18
   6   3 -17 6.61082 53.7650  18
   6   3 -17-106.187 214.443   1
  -6  -3  17-26.7844 171.650  17
   6  -3  17 314.467 395.662   8
  -3  -6  17-40.7558 740.635  17
   3  -6  17-126.395 252.589  17
  -6  -3  17-154.231 250.592   2
  -6   3 -17-182.144 208.780   9
   6  -3  17 281.149 344.172   2
   3  -6  17-89.4450 252.854   8
  -3  -6  17-166.948 343.397  16
   3  -6  17-21.0971 117.300  16
   6  -3  17 77.3625 374.584  16
  -6  -3  17 98.6582 237.463  16
   3   6 -17-462.524 662.190  15
  -3   6 -17 1461.81 856.242   7
   6   3 -17-338.824 371.270   9
   6   3 -17-16.2770 175.007  11
   6  -3  17-228.863 269.302  14
   3   6 -18-25.1450 115.225   1
   6  -3  18 1870.35 736.231   6
  -3  -6  18 61.3395 77.3784   6
   6   3 -18 403.693 365.676   9
  -3   6 -18 970.413 508.503  13
   3   6 -18 991.093 497.712  13
   3   6 -18 1504.70 392.124  12
  -3   6 -18 1242.23 442.173  12
  -3   6 -18 1361.16 602.652   3
   6   3 -18-357.956 431.806  10
   3   6 -18 2400.78 799.736  11
  -3   6 -18 1874.67 535.047  11
   6   3 -18 943.315 562.198  11
   3   6 -18 1673.56 717.734  20
  -6  -3  18 2044.60 635.907   5
   3   6 -18 2363.56 865.949  10
   3  -6  18 1363.39 609.563   6
  -3   6 -18 1688.06 686.214  20
  -6   3 -18 5.91653 129.710  19
  -3   6 -18 1073.43 367.788  18
  -3   6 -18 2524.09 857.270  10
  -6   3 -18-174.175 282.968   9
   3   6 -18 986.210 581.517  18
   6  -3  18 2087.46 523.086   2
   3  -6  18 2163.90 558.171  17
   6   3 -18 663.396 395.986   1
   6  -3  18 2313.59 807.417  16
   6  -3  18 2442.25 776.112   8
  -3  -6  18 1842.34 651.962  17
  -6  -3  18 1139.25 599.529   2
  -6  -3  18 2172.14 838.981  17
  -3  -6  18 1809.48 735.431   2
  -6   3 -18-728.368 471.029  20
   3  -6  18 1554.27 486.059   8
  -3  -6  18 1523.00 593.069  16
   3  -6  18 1919.55 685.482  16
   6   3 -18 807.678 442.764  18
  -6  -3  18 1275.11 642.221  16
  -3   6 -18 1655.91 825.116   7
  -3   6 -18 1242.19 715.405  15
   3   6 -18 1921.20 613.557   3
  -6   3 -18 65.6272 118.737  10
  -6   4  -1 150.371 30.4783  19
   6  -4   2 202.812 159.654  14
  -6   4  -2 299.708 186.492  19
   6  -4   2 166.467 147.510   6
   6   4  -2-19.6556 270.019  18
   6   4  -2 112.625 184.541   1
   6  -4   2 10.0255 157.949   8
   6  -4   3 536.340 228.832  14
  -6   4  -3 728.765 275.260  12
   6   4  -3 889.612 412.669  18
   6  -4   3 410.742 204.622   6
   6  -4   3 408.536 179.327   1
  -6   4  -3 945.583 315.141  19
   6   4  -3 79.3930 348.429   8
   6   4  -3 390.559 259.116   1
   6  -4   3 489.790 286.727   8
  -6   4  -4 9.45433 24.7732   3
   6  -4   4-29.9335 51.8716  14
   6  -4   4 40.8963 98.5131   6
  -6   4  -4 18.6824 57.1689  12
   6  -4   4 27.4674 41.9328   1
  -6   4  -4-72.0940 171.066   5
  -6   4  -4-1.18185 99.9972  19
  -6  -4   4-261.616 302.595  19
   6   4  -4-67.4164 185.389   1
   6   4  -4-60.5686 119.265  18
   6   4  -4 1.30966 84.9555   8
  -6  -4   4 43.2675 204.256  17
   6   4  -4-45.1229 117.740  13
   6  -4   4-58.5877 131.960   8
  -6   4  -4-100.644 164.815   4
  -6   4  -5 495.080 270.794   3
   6  -4   5 458.621 226.960  14
   6   4  -5 696.836 284.121  13
   6  -4   5 693.669 300.104   6
  -6   4  -5 551.234 249.543  12
   6  -4   5 437.780 180.706   1
   6   4  -5 694.397 357.930  18
  -6   4  -5 694.888 273.846  19
   6   4  -5 427.429 286.273   1
   6   4  -5 599.168 266.475   8
  -6   4  -5 426.970 222.686   5
  -6  -4   5 46.3960 93.1969  19
   6  -4   5 397.007 234.773   8
  -6   4  -5 584.706 271.767   4
  -6  -4   5 277.363 381.952  17
   6  -4   6 844.747 291.751  14
  -6   4  -6 532.128 278.021   3
   4   6  -6 489.559 142.707  13
   6   4  -6 1029.43 355.649  13
   6  -4   6 725.292 289.148   6
   4  -6   6 72.3906 107.891   6
  -6   4  -6 900.625 305.448  12
  -4   6  -6 613.900 241.847  12
   6  -4   6 650.604 222.729   1
  -6  -4   6 245.837 221.413  19
   6   4  -6 731.274 399.017   1
  -6   4  -6 718.818 284.173  19
  -6   4  -6 784.970 300.621   5
   6   4  -6 833.344 370.137  18
   6   4  -6 1102.01 354.761   8
   6  -4   6 814.816 357.940   8
  -6   4  -6 834.053 333.766   4
  -6  -4   6 250.778 285.366  17
  -4   6  -7 903.697 374.390   3
   6   4  -7 1398.78 497.610  13
   4   6  -7 1111.06 441.818  13
  -6   4  -7 661.844 296.196   3
   4   6  -7 656.790 240.348  18
   6  -4   7 1217.86 400.099   6
   4  -6   7 85.7099 49.7176   6
  -6   4  -7 969.494 308.653  12
   6  -4   7 1020.41 269.944   1
  -4   6  -7 879.206 309.087  12
  -6  -4   7 505.102 381.242   2
   6   4  -7 871.003 416.118  18
  -6   4  -7 988.436 316.631   5
  -6   4  -7 792.896 288.728  19
   6  -4   7 1071.51 430.819   8
   6   4  -7 1192.18 342.839   8
   6   4  -7 995.727 462.883   1
  -6  -4   7 318.810 244.160  17
  -6   4  -7 920.773 348.844   4
   6  -4   7 1010.29 330.591  14
  -6  -4   7 232.534 165.356  19
   6   4  -8 396.854 173.917   3
   6  -4   8 851.062 305.788  14
  -4   6  -8 733.016 362.798   3
  -6   4  -8-148.074 200.171  13
   4   6  -8 919.549 380.595  13
   6   4  -8 1000.42 357.911  13
  -6   4  -8 573.163 285.148   3
   6  -4   8 777.994 351.234   6
   4  -6   8 267.071 196.603   6
  -6   4  -8 699.871 293.058  12
  -4  -6   8-36.4942 99.7996   6
  -4   6  -8 990.702 332.344  12
  -6   4  -8 703.302 268.992   5
  -6  -4   8 605.279 244.843  19
  -6  -4   8 298.960 206.062   2
   6  -4   8-128.946 451.094  16
  -6   4  -8 746.545 269.972  19
  -6   4  -8 595.199 285.352   4
   4   6  -8 712.703 358.680  18
   6   4  -8 796.475 375.954  18
  -6  -4   8 200.724 114.533  17
   6   4  -8 1014.03 283.177   8
   6  -4   8 707.279 318.366   8
   6   4  -8 514.673 280.796   1
   6  -4   8 779.197 218.641   1
  -4  -6   9 323.355 351.504  17
   6  -4   9 818.514 350.045  16
   4  -6   9 524.909 222.349  14
   4   6  -9 2056.79 591.309  13
   6   4  -9 1753.15 487.571  13
  -4   6  -9-149.753 298.024  13
  -6   4  -9 63.7342 53.8333  13
  -6   4  -9 1069.86 403.833   3
  -4   6  -9 1441.45 425.515  12
   4  -6   9 942.041 407.374   6
   6  -4   9 1655.15 330.909   1
  -6  -4   9 1151.39 310.909  19
  -4  -6   9 219.700 150.335   6
  -6   4  -9 1055.55 362.854  12
  -6   4  -9 1373.00 411.321   5
  -6   4  -9 1301.99 363.663  19
   6   4  -9 1814.86 568.576  18
  -6  -4   9 1305.36 516.144   2
   6   4  -9 1787.17 344.259   8
  -6  -4   9 1072.85 498.332  17
  -6   4  -9 1145.61 411.222   4
   6  -4   9 1617.46 489.232   8
  -6  -4   9 400.127 59.5193  16
   4   6  -9 1595.66 585.740  18
   4  -6   9-21.4566 260.027   8
   6   4  -9 1164.45 445.745   1
  -4   6  -9 882.936 252.135   4
   6   4  -9 1232.65 299.335   3
   6  -4   9 1730.19 497.171   6
  -4   6  -9 1573.30 509.023   3
   6  -4   9 1848.54 464.352  14
   4   6 -10 75.6209 130.825   3
   6  -4  10 95.0977 99.8272  14
   6  -4  10 33.6177 72.6903   1
   4  -6  10 27.8903 106.818  14
  -4   6 -10 20.6240 81.6163   3
   6   4 -10 6.11400 54.8995   3
  -4   6 -10 67.4354 119.830  13
   6  -4  10 20.4167 51.2409   6
  -6   4 -10-70.6968 146.347  13
   4   6 -10-86.2257 149.761  13
   6   4 -10-33.0446 39.6505  13
   4  -6  10-65.4034 124.541   6
  -4  -6  10 17.3698 99.5000   6
  -6   4 -10 97.1877 168.252   3
  -6   4 -10 78.8562 167.959  12
  -4   6 -10 114.037 164.063  12
  -6  -4  10 22.2604 11.7622  16
  -6   4 -10 10.3860 109.039  19
   6   4 -10 464.607 451.612  11
  -6   4 -10 14.1948 30.4416  11
  -6   4 -10 67.5823 134.068   5
   6   4 -10 194.981 294.199  20
  -6  -4  10 27.3897 6.41926  19
  -6  -4  10-58.8473 107.986   2
   4   6 -10 15.8726 162.246  18
   6   4 -10-35.9142 71.8800  18
  -4  -6  10 61.0602 184.285  17
  -6  -4  10 6.45227 66.5269  17
  -6   4 -10 52.4682 40.6676   4
   6  -4  10-48.4009 56.1257   8
   6   4 -10-27.8937 53.8760   8
   6  -4  10-60.4334 167.328  16
  -4   6 -10 28.1206 60.3386   4
   6   4 -10-13.3445 123.998   1
   6  -4  11 2702.37 674.051   6
   4   6 -11 2801.09 714.469  13
   6   4 -11 2208.30 592.229  13
   6  -4  11 2217.49 619.536   8
  -4   6 -11 906.336 424.566  13
  -6   4 -11 478.189 224.323  13
  -4  -6  11 731.429 266.439   6
   6  -4  11 1097.62 286.027   1
  -4  -6  11 796.990 438.583  17
  -4   6 -11 2212.33 532.871  12
  -6   4 -11 1199.79 424.553  12
  -6   4 -11 1570.62 480.951   3
  -4   6 -11 1792.74 336.657   5
   6   4 -11 3447.30 883.151  11
  -6   4 -11 1622.80 283.158  11
  -6  -4  11 1534.33 323.773  19
  -6  -4  11 1010.69 411.883   5
  -6   4 -11 1381.27 426.619   5
  -6  -4  11 2062.12 658.122   2
   6   4 -11 1872.80 603.195  20
  -6  -4  11 2020.52 711.873  17
  -4   6 -11 1954.16 379.840  18
   4   6 -11 2100.06 654.242  18
   6   4 -11 2417.68 673.524  18
  -4  -6  11 337.860 141.494  19
  -6   4 -11 1583.00 418.160  19
  -4   6 -11 2408.13 514.531   4
   4  -6  11 1666.86 415.086  17
  -6   4 -11 1307.55 484.908   4
  -6  -4  11 1568.84 450.594  16
   6  -4  11 1833.51 600.356  16
   4  -6  11 846.793 345.395   8
   4   6 -11 2498.49 563.371   3
   4  -6  11 1432.96 508.823   6
   6  -4  11 2751.70 574.045  14
  -4   6 -11 2012.66 626.129   3
   4  -6  11 1595.55 381.274  14
   6   4 -11 2620.11 470.905   3
   6   4 -11 1499.27 518.380   1
  -6  -4  12 816.979 461.724  17
   6   4 -12 925.055 417.650   1
  -6  -4  12 830.029 428.626   2
   4  -6  12 828.658 277.024  14
   6  -4  12 1168.38 460.340   6
  -4  -6  12 133.945 32.7163   6
  -4   6 -12 415.964 315.362  13
  -4   6 -12 928.177 417.960   3
   4   6 -12 1197.80 464.300  13
  -6   4 -12 136.822 123.113  13
   4  -6  12 668.055 345.780   6
   6   4 -12 1296.99 440.377  13
  -6   4 -12 726.908 323.512  12
  -6   4 -12 421.439 318.348   3
  -4   6 -12 751.959 309.429  12
  -6   4 -12 771.305 279.127  19
   6  -4  12-3.49677 110.560   1
  -4   6 -12 986.358 246.562   5
   4  -6  12 482.825 112.745   1
  -6  -4  12 475.465 311.195   5
   6   4 -12 1461.71 626.086  11
   4   6 -12-70.9319 149.334   1
  -6   4 -12 498.414 149.587  11
  -6   4 -12 1207.73 538.532  20
   6   4 -12 776.021 432.726  20
  -4  -6  12 572.755 151.559  19
  -6   4 -12 1356.97 477.369  10
  -6  -4  12 570.760 179.319  19
  -4   6 -12 909.068 266.009  18
   4   6 -12 1199.22 485.837  18
   4  -6  12 1024.71 304.720  17
  -6   4 -12 706.285 370.293   4
  -4  -6  12 185.900 264.104  17
   6  -4  12 1192.89 461.691   8
   4  -6  12 72.8380 212.979  16
  -4   6 -12 981.071 348.481   4
  -6  -4  12 842.143 334.392  16
   6  -4  12 856.144 398.771  16
   4  -6  12 506.455 278.374   8
   6   4 -12 1019.22 455.756  10
   4   6 -12 1069.85 377.050   3
   6  -4  12 1364.15 424.765  14
   6   4 -12 844.022 365.625  18
   6   4 -12 1060.91 300.513   3
   6  -4  13 612.467 309.177  14
   4  -6  13 463.570 222.112  14
   6   4 -13 398.130 266.597   1
   6  -4  13 450.954 309.499   6
  -4  -6  13 153.573 162.944   6
   4   6 -13 558.598 273.405   3
  -4   6 -13 303.971 205.325  13
   4  -6  13 385.054 215.430   6
   6   4 -13 529.991 304.592  10
   4   6 -13 696.619 388.868  13
  -6   4 -13 24.4977 120.529  13
  -4   6 -13 382.476 229.950   3
   6   4 -13 958.265 425.450  13
   6   4 -13 630.566 240.358   3
  -6   4 -13 344.461 291.536  12
  -4   6 -13 319.140 236.519  12
  -6   4 -13 224.728 191.121   3
   6   4 -13 253.511 77.6892  12
  -6  -4  13 238.917 169.179   5
   6   4 -13 674.869 414.997  11
  -6   4 -13 805.454 457.570  20
  -4   6 -13 439.208 175.016   5
  -6   4 -13 145.570 80.8708  11
   4   6 -13 37.7918 78.0120   1
   6   4 -13 187.032 172.030  20
  -4  -6  13 174.605 106.619  17
  -6   4 -13 452.690 285.802  10
  -4  -6  13 177.163 68.6830  19
  -6   4 -13 286.526 162.924  19
  -6   4 -13 1363.96 503.781   9
   6   4 -13 1682.28 737.265   9
  -6  -4  13 63.4640 35.6087  19
  -4   6 -13 502.360 192.775  18
   4   6 -13 484.585 287.494  18
  -6  -4  13 383.580 333.809   2
   6   4 -13 351.032 223.920  18
  -6   4 -13 15.2504 192.441   4
  -6   4 -13 575.775 624.246  15
   4  -6  13 489.877 174.318  17
  -6  -4  13 240.680 224.775  17
   6  -4  13 762.220 381.878   8
  -4   6 -13 424.730 276.962   4
  -4  -6  13-149.854 295.733  16
   4  -6  13-42.3103 268.969  16
  -6  -4  13 354.555 250.065  16
   6  -4  13 493.163 277.793  16
   4  -6  13 203.767 168.427   8
  -6   4 -13 1167.49 701.916   7
   6  -4  14 1320.85 418.180  14
  -4   6 -14 1016.01 261.267  18
   6   4 -14 927.344 384.858  10
  -4  -6  14 212.513 170.932   6
   6  -4  14 1251.06 502.079   6
   6   4 -14 796.409 397.999   1
   4  -6  14 798.459 397.664   6
  -4   6 -14 553.949 269.587  13
   4   6 -14 1371.21 554.842  13
  -6   4 -14 250.845 227.757  13
  -4   6 -14 759.466 400.037   3
   6   4 -14 883.073 176.114  12
   4   6 -14 698.886 210.075  12
  -6   4 -14 672.975 365.661  12
   6   4 -14 1258.65 354.128   3
  -4   6 -14 1077.66 398.372  12
   4  -6  14 624.725 290.710   8
  -6   4 -14 644.898 377.364   3
  -6  -4  14 853.757 379.119   5
   6   4 -14 1307.98 591.608  11
  -6   4 -14 952.672 456.473  20
   6   4 -14 617.919 332.421  20
  -6   4 -14-11.8887 189.563  11
   4   6 -14 10.2523 47.5773   1
  -4  -6  14 656.502 465.359   2
  -6   4 -14 644.110 260.166  19
   6   4 -14 2185.20 775.963   9
  -6   4 -14 1280.02 449.697   9
  -4   6 -14 331.730 162.352  19
   4  -6  14 1380.95 382.153  17
   4   6 -14 440.466 500.917  18
   6   4 -14 962.325 451.704  18
  -6  -4  14 975.562 484.622   2
  -6   4 -14 80.5141 281.480   4
   4  -6  14 618.666 292.008  16
  -4  -6  14 527.898 442.502  17
  -4   6 -14 1060.88 394.043   4
  -6  -4  14 1148.05 548.830  17
   6  -4  14 1481.30 576.160   8
  -4  -6  14 617.091 314.612  16
   6  -4  14 1317.12 544.057  16
  -6  -4  14 888.850 403.897  16
  -6   4 -14 738.379 326.010  10
   4   6 -14 1475.06 611.712   7
  -6   4 -14 937.127 615.180   7
   4   6 -14 1136.69 514.424  15
  -6   4 -14 868.707 549.092  15
   4  -6  14 1387.51 373.054  14
   4   6 -14 1389.92 464.106   3
   6  -4  15 838.366 357.227  14
   6   4 -15 537.279 308.289  10
   4  -6  15 811.207 288.755  14
  -4  -6  15 118.959 150.134   6
   6  -4  15 928.234 429.502   6
   4  -6  15 477.896 323.181   6
  -4   6 -15 325.826 293.787  13
   4   6 -15 1145.28 453.773   3
   6   4 -15 635.921 367.705   1
   4   6 -15 834.828 446.066  13
  -6   4 -15 355.168 228.717  13
  -4   6 -15 294.930 202.922   3
   4   6 -15 671.016 230.789  12
  -6   4 -15 399.982 396.827  12
   4  -6  15 954.463 294.154  17
  -4   6 -15 550.752 307.254  12
   6   4 -15 1001.39 352.470   3
  -6   4 -15 460.049 388.853   3
   4   6 -15 1206.75 659.280  11
  -4   6 -15 1476.55 425.216  11
  -6  -4  15 615.703 412.601   5
   6   4 -15 801.993 451.420  11
   4   6 -15 1000.28 715.323  20
   6   4 -15 207.186 268.386  20
  -4   6 -15 205.361 121.837  19
  -6   4 -15 395.957 231.395  19
  -6   4 -15 677.572 335.465   9
   4   6 -15 456.451 370.008  18
  -4   6 -15 691.202 209.015  18
   6   4 -15 518.797 357.128  18
  -6  -4  15 1013.57 482.144   2
  -4   6 -15 647.738 356.870   4
  -4  -6  15 643.423 428.715   2
  -4  -6  15 545.033 483.352  17
   6   4 -15 801.922 395.519   9
  -6  -4  15 668.654 460.917  17
   6  -4  15 1142.19 507.716   8
  -6   4 -15 856.308 518.711  20
  -6   4 -15 576.564 482.964   7
  -4  -6  15 315.474 309.610  16
   4  -6  15 586.624 402.304  16
   4  -6  15 457.138 218.596   8
   6  -4  15 1103.08 535.251  16
  -6  -4  15 770.284 361.279  16
   4   6 -15 38.0496 290.855   7
   4   6 -15 551.473 339.922  15
   4   6 -15-17.3251 68.2943   1
  -6   4 -15 580.039 542.121  15
  -6   4 -15 715.646 401.597  10
  -4   6 -16-96.3846 274.990   4
   4  -6  16 323.532 198.943  14
  -4  -6  16-126.472 158.099   6
  -4   6 -16 60.1939 81.0343  19
  -6  -4  16 780.518 699.045   2
   6  -4  16 234.662 233.523   6
   4  -6  16 218.764 215.708   6
  -4   6 -16 137.794 268.992  13
   4   6 -16 188.272 292.123  13
   4   6 -16 261.112 201.874   3
   6   4 -16 360.645 409.130  18
  -6   4 -16-178.065 157.707  13
   6   4 -16 829.189 607.997   1
  -4   6 -16 237.870 214.684   3
  -6   4 -16 147.864 367.717  12
  -4   6 -16 86.5080 232.119  12
   4   6 -16 226.445 184.089  12
   6   4 -16 633.291 341.528   3
  -6   4 -16 113.526 262.590   3
   4   6 -16-144.284 290.325  11
  -4   6 -16 281.093 176.270  11
  -6  -4  16 575.865 569.614   5
   6   4 -16 384.577 552.979  11
  -4   6 -16 316.768 536.975  20
   4   6 -16 29.3183 210.395  20
  -6   4 -16 457.980 461.246  20
  -6   4 -16 539.204 371.422  10
   6   4 -16 389.170 738.449  20
   4   6 -16 60.2592 190.260  18
  -6   4 -16 108.248 88.1268  19
   4   6 -16-70.5135 188.233   1
   6   4 -16 1014.02 792.655   9
  -6   4 -16 417.973 289.767   9
  -4   6 -16 151.590 141.831  18
  -6  -4  16 1738.81 1060.78  17
  -4  -6  16 0.46867 296.221  17
   6   4 -16 718.554 738.033  10
   4  -6  16 202.378 130.198  17
   6  -4  16 266.446 318.191   8
  -4  -6  16-71.7844 229.568  16
   4  -6  16 138.712 133.339   8
   4  -6  16 45.4879 153.157  16
   6  -4  16 376.825 338.540  16
  -6  -4  16 976.694 531.092  16
  -6   4 -16-268.221 437.694   7
  -6   4 -16-202.798 335.983  15
   6  -4  16 174.512 134.896  14
  -4  -6  16 84.5655 95.7274   2
  -4  -6  17 171.074 437.348   6
   4  -6  17 516.194 268.785  14
   6  -4  17 307.909 283.311   6
   4   6 -17 203.917 361.309   1
   4  -6  17 548.672 358.475   6
  -6   4 -17 365.330 287.099  19
  -4   6 -17 147.487 50.7566  13
  -4   6 -17 1166.15 858.027  15
   4   6 -17 542.228 367.213  13
  -6   4 -17 506.788 428.815  13
   4   6 -17 640.441 383.953   3
  -4   6 -17 349.450 334.717   3
   6   4 -17 146.666 189.648   1
  -4   6 -17 492.660 363.075  12
   4   6 -17 433.618 303.130  12
   6   4 -17 173.753 58.5170   3
  -6   4 -17 722.094 540.455   3
   4   6 -17 992.620 516.800  11
  -4   6 -17 641.539 293.777  11
  -6  -4  17 279.157 279.925   5
   6   4 -17 464.646 188.762  11
  -4   6 -17 652.028 683.096  20
   4   6 -17 1084.75 630.620  20
   4   6 -17 1630.15 879.958  10
  -6   4 -17 126.641 207.801  20
   6   4 -17 19.3809 105.526  20
   6  -4  17 457.281 280.746   2
  -4   6 -17 296.055 160.877  19
   6   4 -17-63.3914 226.746  10
  -4  -6  17 555.907 454.421   2
   6   4 -17 614.684 311.289   9
  -6   4 -17 262.998 202.069   9
   4   6 -17 135.775 334.441  18
   6   4 -17 576.711 461.527  18
  -6  -4  17 1102.89 638.470   2
  -4  -6  17 1356.10 615.646  17
   4  -6  17 448.871 206.459  17
  -6  -4  17 1703.32 752.327  17
   6  -4  17 932.417 531.579   8
   4  -6  17 297.157 142.517   8
  -4  -6  17 858.360 390.930  16
   4  -6  17 290.566 303.518  16
  -6   4 -17 270.480 172.347  10
   6  -4  17 437.258 408.475  16
  -6  -4  17 1437.63 486.242  16
  -6   4 -17-799.213 716.549   7
  -6   4 -17-525.120 661.409  15
  -4   6 -17 1169.80 777.307   7
   6  -4  17 290.293 168.767  14
  -6   4 -18-44.9799 121.263  19
   6  -5   4 66.6468 65.3860   6
  -6   5  -4 191.799 149.049  12
   6   5  -4-72.4808 244.293  18
  -6   5  -5 80.3995 150.571   3
   6   5  -5 130.487 111.265  18
   6  -5   5 93.8925 116.188  14
   6   5  -5-80.4541 190.829  13
   6  -5   5 72.8339 123.022   6
  -6   5  -5 173.981 155.170  12
  -6  -5   5 31.4321 92.7409  17
  -6   5  -5 57.1484 81.6103  19
   6   5  -5 16.2350 104.680   1
   6  -5   5 22.4140 154.357   8
  -6   5  -6 21.1670 102.558   3
  -6  -5   6-43.7971 4.53765  17
   6  -5   6 63.1282 98.0023  14
   5   6  -6-159.282 372.966  13
   6   5  -6 40.7976 71.9130  13
   6  -5   6 2.00353 55.9558   1
   6  -5   6 107.364 137.351   6
   5  -6   6 7.56922 48.0588   6
  -6   5  -6 89.2110 80.8762  12
  -5   6  -6-10.3026 143.953  12
   6   5  -6 141.839 263.731  18
  -6   5  -6 28.3692 21.5415  19
   5   6  -6-298.426 418.630  18
  -6   5  -6 11.0871 152.664   5
   6   5  -6-119.990 304.106   8
   6   5  -6 43.8275 178.738   1
   6  -5   6 137.771 175.052   8
  -6   5  -6-84.8319 140.215   4
  -5   6  -7 218.626 220.069   3
  -6   5  -7 283.907 207.707   3
   6  -5   7 281.855 174.897  14
   5   6  -7 209.911 233.372  18
   5   6  -7 422.829 252.033  13
   6   5  -7 420.897 221.032  13
   6  -5   7 362.436 245.032   6
   5  -6   7 102.463 120.823   6
  -6  -5   7-49.3779 90.7570   6
  -6   5  -7 412.244 247.049  12
  -5   6  -7 403.931 222.158  12
  -6  -5   7-199.046 226.349  19
  -6   5  -7 382.907 208.393  19
  -6   5  -7 252.895 141.715   5
   6   5  -7 528.900 327.725  18
   6   5  -7 250.682 102.972   8
   6  -5   7 186.722 121.162   1
  -6  -5   7 221.176 290.478  17
   6   5  -7 164.475 70.1467   1
   6  -5   7 244.123 158.621   8
  -6   5  -7 309.870 212.662   4
  -5   6  -8 256.560 224.065   3
   6  -5   8 175.154 124.716  14
   5  -6   8 96.0517 74.0874  14
  -6   5  -8 178.520 156.472   3
   5   6  -8 366.239 248.471  13
   6   5  -8 340.689 235.271  13
   6  -5   8 243.619 220.265   6
  -6  -5   8 45.9322 51.7701   6
   5  -6   8 287.661 242.332   6
   6   5  -8 340.828 259.521  18
  -5  -6   8-33.5286 100.512   6
  -6   5  -8 318.101 209.738  12
  -5   6  -8 273.450 182.684  12
  -6  -5   8 61.5936 109.191  19
  -6   5  -8 253.416 166.224   5
  -6   5  -8 304.426 192.910  19
   5   6  -8 211.642 258.263  18
   6   5  -8 495.380 239.136   8
  -5  -6   8 415.193 446.789  17
  -6  -5   8-44.6264 54.1225  17
   6  -5   8 206.124 199.035   8
  -6   5  -8 346.553 225.116   4
   6   5  -8 161.060 189.515   1
  -5   6  -8 86.9373 148.075   4
   6  -5   8 279.689 156.253   1
   6  -5   9 149.288 135.117  14
  -5   6  -9 25.1005 48.6945   3
   5  -6   9 41.7802 73.8929  14
  -6  -5   9-1.39875 41.3125   6
  -6   5  -9-322.771 360.532  13
  -6   5  -9 111.993 116.747   3
   5   6  -9 100.023 124.354  13
   6   5  -9 122.385 109.658  13
   6  -5   9 93.4771 115.655   6
   5  -6   9-19.5245 157.483   6
  -5  -6   9 61.2986 90.2315   6
  -6   5  -9 119.966 157.611  12
  -5   6  -9 9.92264 102.784  12
  -6  -5   9 15.2435 46.3776  19
   5   6  -9 91.5965 139.882  18
  -6   5  -9 115.682 134.561  19
  -5   6  -9-104.089 196.790   5
   6   5  -9 456.268 280.611  18
   6   5  -9 132.480 90.6461   1
  -5  -6   9 38.1556 157.556  17
  -6  -5   9 94.5938 281.859  17
   6   5  -9 152.646 133.985   8
  -6   5  -9 145.370 118.264   5
   6  -5   9-17.4912 137.602   8
  -6   5  -9 82.4577 125.020   4
   5  -6   9-360.011 246.193   8
  -5   6  -9 63.7967 42.4272   4
   6  -5   9 111.733 61.2230   1
   6  -5  10-238.864 401.947  16
   6   5 -10 208.404 137.462   3
  -6  -5  10 27.7040 32.1837   6
  -5  -6  10-59.9333 82.1844  19
   6  -5  10 322.328 209.435  14
   5  -6  10 98.6777 138.415  14
  -5   6 -10 327.561 274.260   3
  -5   6 -10-117.679 255.575  13
  -6   5 -10 70.5967 84.5002  13
   5   6 -10 227.345 201.203  13
  -6   5 -10 156.005 173.129   3
   6   5 -10 174.375 197.847  13
   6  -5  10 231.520 228.906   6
  -5  -6  10 17.1289 52.1799   6
  -6  -5  10 110.945 121.681  19
   5  -6  10 146.883 130.524   6
  -6   5 -10 336.256 236.423  12
  -5   6 -10 132.067 132.426  12
  -5   6 -10 140.915 73.8140   5
  -6  -5  10 323.573 321.322   2
   5   6 -10-106.450 216.226   1
   5  -6  10 80.8554 55.3505   1
  -6   5 -10 229.147 175.122   5
   6   5 -10 358.239 320.604  18
  -6   5 -10 240.151 171.900  19
   5   6 -10 115.884 27.9063   8
   6   5 -10 142.812 143.657   1
   6  -5  10 250.635 102.769  17
  -5  -6  10 205.215 279.577  17
   6  -5  10 147.731 134.262   8
   6   5 -10 301.180 152.732   8
  -6   5 -10 222.399 112.055   4
   6  -5  10 213.787 117.942   1
  -6  -5  10-104.788 233.261  17
   5  -6  10 117.596 157.221   8
  -5   6 -10 246.465 182.487   4
   5   6 -10 302.443 256.527  18
   6   5 -10-67.0506 145.707   7
   6   5 -10 59.8345 67.6900  15
  -6   5 -10 199.872 78.8318  18
   5   6 -11 469.574 225.758   3
   6  -5  11 525.749 291.742  14
   6   5 -11 540.241 226.540   3
   5  -6  11 328.446 191.961  14
  -5   6 -11 21.4038 77.5010  13
  -5   6 -11 401.188 288.641   3
  -6   5 -11 96.4714 163.794  13
  -5  -6  11 44.3147 59.5851   6
   6  -5  11 399.948 284.372   6
   5   6 -11 665.885 324.250  13
   6   5 -11 583.330 318.638  13
  -6   5 -11 333.253 300.537   3
   5  -6  11 192.512 219.376   6
  -6   5 -11 290.833 89.8094  18
  -6   5 -11 366.305 243.146  12
   5  -6  11 261.509 114.019   1
  -5   6 -11 435.786 274.346  12
   6  -5  11 313.386 137.743   1
   5   6 -11 358.472 128.041   8
  -6   5 -11 396.748 231.463   5
   5   6 -11-65.9857 218.781   1
  -6  -5  11 263.359 203.615   2
  -6  -5  11 304.652 150.981  19
  -5   6 -11 316.181 163.687   5
  -5   6 -11 311.188 136.712  18
  -5  -6  11 36.9613 49.1683  19
  -6   5 -11 294.479 163.146  19
  -5  -6  11 143.330 226.619  17
  -5   6 -11 213.017 25.9447  19
   6   5 -11 386.779 289.975  18
   5  -6  11 398.534 197.743  17
  -6  -5  11 481.175 365.434  17
   6   5 -11 148.364 177.606   1
   6  -5  11 380.373 112.580  17
  -6   5 -11 412.050 250.373   4
   6   5 -11 283.756 109.211   8
   6  -5  11 531.719 335.562   8
   6  -5  11 11.3983 307.105  16
  -5   6 -11 405.718 253.452   4
   5  -6  11 103.683 75.5330   8
   5   6 -11 434.372 374.886  18
  -6  -5  11 12.2907 14.5890   6
   6  -5  12 151.465 129.778  14
   5   6 -12 190.512 161.505   3
   5  -6  12 192.380 109.550  14
  -5  -6  12 44.7033 85.0361   6
   6   5 -12 221.286 151.618   3
  -5   6 -12 34.0005 47.0760  19
  -5  -6  12 5.20012 89.4808  17
  -5   6 -12-5.10356 61.1700  13
   6  -5  12 178.202 180.586   6
  -6   5 -12-9.21454 72.9837  13
  -5   6 -12 103.102 74.3646  18
  -5   6 -12 187.306 258.193   3
   5   6 -12 269.251 240.209  13
   5  -6  12 213.510 210.427   6
   6   5 -12 92.9748 44.5970  13
  -6   5 -12 102.600 135.713   3
   6  -5  12 116.102 59.6474  17
  -6   5 -12 137.971 138.835  12
  -5   6 -12 170.467 143.288  12
   6   5 -12 578.653 580.862  11
  -6   5 -12 219.137 102.436  11
  -6   5 -12 70.6863 116.893   5
  -5   6 -12 209.441 147.119   5
   5   6 -12-23.2324 121.796   1
  -6  -5  12 213.300 200.791   2
  -6   5 -12 136.579 140.926  19
   6   5 -12 393.718 447.300  20
   5   6 -12 231.763 212.550  18
   6   5 -12 109.140 167.483  18
  -6   5 -12 61.4709 34.5606  18
  -6  -5  12 122.859 82.2405  19
   5  -6  12 88.8081 83.5583  17
  -6  -5  12-58.4249 176.063  17
  -6   5 -12 134.580 173.979   4
   6   5 -12-58.0000 81.0311   1
  -5  -6  12-27.3365 63.0390  19
  -5   6 -12 73.7576 100.442   4
   6  -5  12 300.521 268.411   8
   5  -6  12-381.589 488.268  16
  -6  -5  12-101.773 269.740  16
   6  -5  12 110.482 184.839  16
   5  -6  12 179.920 154.767   8
   6  -5  12 79.6060 80.4704   1
   5  -6  12 107.149 67.7551   1
   6  -5  13 872.899 334.397  14
   5  -6  13 745.956 282.036  14
  -5  -6  13 85.5639 86.9073   6
   5   6 -13 861.316 335.127   3
   6  -5  13 896.069 420.090   6
  -5   6 -13 252.972 263.602  13
   5  -6  13 1012.10 430.644   6
  -6   5 -13 212.762 175.686  13
   5   6 -13 1010.53 482.508  13
  -5   6 -13 576.120 357.178   3
   6   5 -13 1114.20 414.842  13
  -6  -5  13 1101.66 554.780  17
  -6   5 -13 309.684 251.824   3
  -6   5 -13 510.308 285.210  12
  -5   6 -13 778.905 378.885  12
  -6   5 -13 317.075 145.441   5
   6   5 -13 1506.59 687.680  11
  -6   5 -13 902.093 253.537  11
  -5   6 -13 832.686 280.323   5
  -5   6 -13 453.339 222.598  19
   5   6 -13 1054.09 479.465   7
   6  -5  13 17.8157 43.5508   1
   5  -6  13 923.646 249.887  17
  -5  -6  13 328.425 329.224   2
  -5  -6  13 518.522 147.785  19
  -6   5 -13 678.562 266.758  19
  -6  -5  13 348.764 135.727  19
  -6  -5  13 824.251 487.642   2
  -5   6 -13 801.602 218.358  18
   5   6 -13 718.843 397.221  18
   6   5 -13 825.429 409.123  18
   5   6 -13 91.4501 60.7507   1
  -5  -6  13 980.451 507.718  17
  -6   5 -13 561.410 348.267   4
  -5   6 -13 611.222 324.390   4
   6  -5  13 303.265 111.552  17
   6  -5  13 817.704 397.375   8
   6   5 -13 329.628 205.013   1
  -5  -6  13-116.720 348.433  16
   5  -6  13 39.9263 196.079  16
  -6  -5  13 380.770 223.236  16
   6  -5  13 560.611 358.064  16
   5  -6  13 568.564 322.878   8
   5   6 -13 903.807 431.038  15
   6   5 -13 904.548 539.815  20
   6   5 -13 1187.02 348.446   3
   6  -5  14 44.7038 108.282  14
  -5  -6  14 19.7857 53.5354   6
   5  -6  14 75.1694 89.1004  14
   6  -5  14-81.4268 169.905   6
   5   6 -14 101.916 131.884   3
   5  -6  14 102.116 177.178   6
  -5   6 -14-53.7009 171.132  13
  -6   5 -14-147.855 168.053  13
   6   5 -14 219.618 138.293   3
   5   6 -14 128.605 225.861  13
   6   5 -14 91.5371 132.294  13
  -5   6 -14 36.1898 88.5822   3
  -6   5 -14 16.5616 189.484   3
  -6   5 -14 30.1996 59.7551  12
  -5   6 -14 80.6918 186.842  12
   5   6 -14 420.562 613.676  11
  -5   6 -14 526.197 340.869  11
   6   5 -14 256.254 279.049  11
  -6   5 -14-6.80616 93.5928  11
  -6   5 -14 460.630 415.463  20
   6   5 -14 91.3388 201.866  20
  -5  -6  14 194.686 289.489   2
  -6  -5  14 8.78459 25.7725  19
   6   5 -14 371.666 409.063  10
  -5   6 -14-19.7348 35.3713  19
   5   6 -14-68.2754 178.498   1
  -6  -5  14 79.5659 264.494   2
   5  -6  14-87.1347 178.528  16
   5   6 -14-7.59208 78.5186  18
  -5   6 -14-29.6965 59.4896  18
  -6   5 -14 19.7793 60.7408  19
  -6   5 -14-0.23076 170.614   4
  -5  -6  14 140.473 183.590  17
   5  -6  14 164.952 134.946  17
  -6  -5  14 87.3212 279.792  17
  -5   6 -14 84.7517 180.159   4
   6   5 -14 256.210 321.612  18
   6  -5  14 55.6779 102.467   8
  -5  -6  14-258.231 324.810  16
  -6  -5  14 11.1830 83.5760  16
   6  -5  14 148.138 215.450  16
   5  -6  14 43.7976 136.749   8
   6   5 -14 141.153 216.210   1
   5   6 -14-438.866 489.609   7
   5   6 -14-7.11641 180.870  15
  -5  -6  15-95.8547 50.4022   6
   6  -5  15 998.422 393.367  14
   5  -6  15 840.921 313.410  14
   6  -5  15 896.581 416.716   6
   5  -6  15 763.246 361.290   6
   5   6 -15 694.567 329.433   3
  -5   6 -15 277.589 239.865  13
  -6   5 -15-40.3115 123.605  13
   5   6 -15 1070.50 489.063  13
   6   5 -15 702.895 416.857  13
  -5   6 -15 400.617 290.733   3
   5   6 -15 99.0040 126.436   1
  -6   5 -15 375.041 244.620  12
  -6   5 -15 352.977 244.293   3
  -5   6 -15 456.212 280.095  12
   5   6 -15 1027.82 541.461  11
  -5   6 -15 1263.86 364.385  11
   6   5 -15 702.778 364.903  11
  -6   5 -15 404.515 116.387  11
   5   6 -15 493.191 314.226  20
  -6   5 -15 590.889 405.586  20
  -6   5 -15 946.301 490.896  10
  -5  -6  15 415.341 291.178   2
  -6   5 -15 419.926 234.231  19
  -5   6 -15 436.842 214.864  19
  -6   5 -15-3.53867 222.524   4
  -6  -5  15 485.163 477.174   2
   5   6 -15 449.805 458.181  18
   6   5 -15 515.888 331.890  18
   6   5 -15 555.772 347.282  10
  -5   6 -15 457.844 316.803   4
  -5  -6  15 375.904 500.178  17
  -6  -5  15 921.940 717.089  17
   5  -6  15 804.262 255.853  17
   6  -5  15 987.924 444.994   8
  -5  -6  15 283.952 302.382  16
   5  -6  15 631.988 518.429  16
   5  -6  15 556.086 307.169   8
  -6  -5  15 445.320 385.322  16
   6  -5  15 679.263 359.371  16
   6   5 -15 449.681 364.024   1
   6   5 -15 429.044 366.720  20
  -6   5 -15 1458.45 915.634   7
  -6   5 -15 1200.99 803.810  15
   6   5 -15 1182.55 426.094   3
   6  -5  16 148.123 103.617  14
   5  -6  16 144.924 147.420  14
   6  -5  16 136.348 201.618   6
   5  -6  16 172.879 175.630   6
   6   5 -16 2293.57 896.052  13
  -5   6 -16 969.395 496.463  13
   5   6 -16 1560.90 518.572   3
  -6   5 -16 295.987 307.970  13
   5   6 -16 571.638 532.366  13
  -5   6 -16 284.507 300.299   3
  -5   6 -16 1240.30 688.976  20
  -6   5 -16 71.7649 198.182  12
   5  -6  16-20.6063 172.494   8
  -5   6 -16 276.969 344.036  12
  -6   5 -16 180.317 271.418   3
   5   6 -16 534.546 536.794  11
  -5  -6  16 4301.33 1225.67   2
  -5   6 -16 107.459 123.113  11
   6   5 -16 1503.97 919.108  11
   5   6 -16 1839.34 861.737  20
  -6   5 -16-86.2259 230.764  20
   6   5 -16 2536.69 1071.86  20
   6   5 -16 2959.74 1046.41  10
  -6   5 -16-69.7131 240.419  10
  -5   6 -16 290.148 173.312  19
  -6   5 -16 90.1641 131.722  19
   5   6 -16 1597.59 687.850   1
   5   6 -16 55.6269 390.341  18
   6   5 -16 947.763 550.615  18
  -5   6 -16 242.313 262.291   4
  -6   5 -16 981.315 480.404   9
   6  -5  16 79.6058 58.9370   8
   5  -6  16 159.164 220.657  16
   6  -5  16 74.1770 81.8210  16
   6   5 -16 1766.78 770.849   1
  -6   5 -16 211.734 513.961   7
  -6   5 -16-8.53253 61.6901  15
  -5  -6  16 1297.41 562.057   6
   6  -5  17 4.36548 106.910  14
   5  -6  17 75.9504 156.792  14
   6  -5  17 85.7315 213.060   6
   5  -6  17-100.325 288.760   6
  -6   5 -17 71.0425 122.569   9
  -5   6 -17 6.63683 86.6147  13
  -6   5 -17 255.546 299.150  13
   5   6 -17-45.3170 70.8213   3
   5   6 -17 104.879 188.671  13
   6   5 -17 201.559 306.037  13
  -5   6 -17 153.874 259.564   3
   6   5 -17 241.738 228.946   3
  -6   5 -17-77.8174 203.343  12
  -5   6 -17-20.2664 63.6669  12
  -6   5 -17 167.762 341.815   3
   5   6 -17-64.8145 59.8555  20
   5   6 -17-106.259 489.908  11
   6   5 -17 146.078 342.087  11
  -5   6 -17 57.3360 72.1247  11
  -6   5 -17-432.093 356.352  20
   6   5 -17-154.592 272.181  20
  -6   5 -17-27.6456 87.7909  19
   6   5 -17 153.177 424.415  10
   6   5 -17 1318.10 730.645   9
   5   6 -17 623.926 610.209  10
  -6  -5  17 289.609 408.502   2
  -5  -6  17 110.137 292.529   2
  -5   6 -17 201.672 322.927  20
  -5  -6  17-438.272 360.001  17
   5   6 -17 66.0802 145.185  18
   6   5 -17 54.0430 91.7129  18
   5   6 -17-70.6250 45.2640   1
  -5   6 -17 961.441 615.207  10
  -6   5 -17 135.027 271.357  10
  -6  -5  17 73.8775 253.561  17
   6  -5  17-150.779 62.5132   8
   5  -6  17-38.3968 150.946   8
  -5  -6  17-110.052 74.1827  16
   5  -6  17-12.7765 187.952  16
  -6  -5  17-59.7421 111.963  16
   6  -5  17 14.2647 237.139  16
  -6   5 -17 304.861 579.803   7
  -5   6 -17-96.5038 139.368  19
  -5   6 -17 885.423 747.159   7
   6   5 -17 145.429 284.720   1
  -6   5 -17 199.097 412.164  15
  -5   6 -17 186.621 473.178  15
  -5  -6  17-204.636 327.166   6
   6   6  -5-437.044 476.607  18
   6  -6   6 148.304 146.836   6
  -6   6  -6 494.052 261.518  12
   6   6  -6 191.419 64.0513  18
  -6   6  -7 75.7730 155.362   3
   6  -6   7-125.217 340.218   8
   6  -6   7-3.67070 118.770  14
   6   6  -7 7.02846 66.8796  13
   6  -6   7 0.43883 46.4741   6
  -6   6  -7 20.1256 43.0176  12
   6   6  -7 18.5724 153.788  18
  -6  -6   7 474.282 414.870  17
  -6   6  -7-155.416 254.547   4
  -6   6  -8 168.257 160.843   3
   6  -6   8 62.6921 55.2374  14
   6   6  -8 342.633 247.265  13
   6  -6   8 135.347 209.784   6
  -6  -6   8 15.9556 60.1683   6
  -6   6  -8 324.108 221.942  12
  -6   6  -8 48.5395 130.082   5
   6   6  -8 384.677 370.649  18
  -6  -6   8-349.926 305.758  17
   6  -6   8-24.8446 118.130   1
   6  -6   8-39.6466 290.265   8
  -6   6  -8 201.151 149.784   4
  -6   6  -9 97.8751 153.805   3
   6  -6   9 52.3036 112.494  14
   6   6  -9 66.3616 118.148  13
   6  -6   9 37.0820 126.160   6
  -6  -6   9-670.920 452.892  17
  -6  -6   9 0.78812 60.4832   6
  -6   6  -9 44.0136 142.853  12
   6   6  -9-131.838 233.742   1
  -6  -6   9 51.1938 74.3363  19
  -6   6  -9-117.988 203.319  19
  -6   6  -9-19.3671 43.8050   5
   6  -6   9 98.8554 126.237   1
   6   6  -9 34.7127 240.787  18
   6   6  -9-39.5427 138.336   8
   6  -6   9-37.0508 75.8335   8
  -6   6  -9-31.6443 56.6178   4
   6   6 -10-106.845 114.998   8
   6  -6  10 50.5038 129.629  14
  -6   6 -10-22.6748 26.4730   3
   6   6 -10-54.5269 166.713  13
  -6  -6  10 3.99597 51.3640   6
   6  -6  10-32.8144 97.7258   6
  -6   6 -10-33.1624 137.088  12
   6  -6  10 54.9327 92.3279   1
  -6  -6  10 181.248 180.235  19
   6   6 -10 20.4972 85.0740  18
  -6   6 -10 45.7222 136.203   5
   6   6 -10-111.210 246.930   1
  -6   6 -10-61.0200 105.282  19
   6  -6  10-25.2563 155.319   8
  -6   6 -10 25.4460 33.0149   4
  -6  -6  10 234.194 323.034  17
   6   6 -11-51.5469 204.475   1
   6  -6  11 1.04121 20.0717  14
  -6  -6  11 37.2137 26.5376   6
  -6   6 -11-111.912 201.512  13
  -6   6 -11 28.8651 124.449   3
   6   6 -11-78.0343 47.0938  13
   6  -6  11 126.321 176.940   6
  -6   6 -11-2.84929 51.8822  12
   6  -6  11-4.67186 24.0749   1
  -6  -6  11 111.499 155.483  19
  -6   6 -11 19.1471 94.1037   5
  -6   6 -11-18.0110 42.1054  19
  -6   6 -11 6.33421 49.8384  18
   6   6 -11 58.4396 154.264  18
   6   6 -11 5.11761 65.9048   8
   6  -6  11 132.024 111.830  17
  -6  -6  11 4.70360 145.592  17
  -6   6 -11 53.7551 81.8590   4
   6  -6  11-90.6961 166.146   8
   6   6 -12 511.682 237.631   3
  -6  -6  12 30.5785 61.2875   6
   6  -6  12 611.500 270.865  14
  -6   6 -12-106.266 222.635  13
  -6   6 -12 226.522 204.422   3
   6  -6  12 427.725 361.767   6
   6   6 -12 601.935 344.288  13
  -6   6 -12 373.299 259.786  12
  -6   6 -12 378.340 210.466   5
  -6  -6  12 561.957 222.640  19
   6   6 -12 208.855 148.250   1
  -6   6 -12 336.788 184.889  19
   6  -6  12 301.708 144.576   1
   6   6 -12 563.484 425.200  18
   6  -6  12 474.448 179.356  17
  -6  -6  12 495.984 452.512  17
  -6   6 -12 448.725 284.232   4
   6  -6  12 243.477 165.096   8
   6   6 -12 464.271 274.366   7
   6   6 -12 357.618 257.070  15
   6  -6  13-8.34690 58.2791   1
  -6  -6  13-4.50898 8.18213   6
   6  -6  13 6.72132 52.9746  14
   6   6 -13 13.6433 52.0661   3
  -6   6 -13-140.814 103.784  13
   6  -6  13 48.8500 163.234   6
  -6   6 -13 168.524 235.635   3
   6   6 -13 34.1044 173.751  13
  -6   6 -13 166.014 244.167  12
  -6  -6  13 81.9834 218.036   2
  -6  -6  13 27.5270 75.3140  19
  -6   6 -13 49.4162 116.175  19
   6   6 -13-42.2282 144.261  18
   6   6 -13 110.030 175.160   1
  -6   6 -13 55.7396 33.2008   5
  -6  -6  13-2.37077 189.864  17
   6  -6  13-53.7067 156.700   8
  -6   6 -13 1.60163 98.2659   4
   6  -6  14 723.874 314.804  14
  -6  -6  14 479.546 525.626   2
   6   6 -14 859.275 358.385   3
   6  -6  14 690.439 390.789   6
  -6   6 -14 295.282 237.367  13
   6   6 -14 1034.56 595.149  13
  -6   6 -14 300.289 244.640   3
  -6   6 -14 112.863 121.737  12
   6   6 -14 801.094 455.245  11
  -6   6 -14 853.503 304.713  11
  -6   6 -14 473.184 233.982  19
   6   6 -14 671.355 399.887  18
   6   6 -14 33.3922 209.579   1
  -6  -6  14 299.216 444.091  17
  -6   6 -14 482.733 305.688   4
   6  -6  14 144.907 315.457  16
   6   6 -14 267.794 165.523  20
   6  -6  14 417.490 237.640   8
  -6  -6  14-46.1129 26.5014   6
   6  -6  15-1.91967 137.853  14
   6  -6  15 114.175 150.378   6
  -6   6 -15-268.311 230.878  13
   6   6 -15 1806.56 764.894  13
  -6   6 -15 70.0526 193.593   3
  -6   6 -15 5.95365 161.812  12
   6   6 -15 327.846 646.144  11
  -6  -6  15 2862.62 1024.37   2
   6   6 -15 415.966 524.526  20
  -6   6 -15-85.1965 128.840  19
  -6   6 -15-22.2872 99.6734   4
   6   6 -15 122.640 350.467  18
   6   6 -15 1035.34 682.869   1
   6  -6  15 100.205 260.889  16
   6  -6  15 63.1640 138.079   8
  -6  -6  15 1048.58 433.273  16
   6   6 -15 1123.34 485.068   3
   6  -6  16 258.421 226.293  14
   6  -6  16 63.5827 139.648   6
   6   6 -16 491.239 291.112   3
  -6   6 -16 78.3629 183.414  13
   6   6 -16 488.424 388.742  13
  -6   6 -16 153.391 170.866   3
  -6   6 -16 226.803 162.538   4
  -6   6 -16 223.165 234.573  12
   6   6 -16 586.505 451.722  11
  -6   6 -16 413.122 472.004  20
   6   6 -16 602.931 610.847  20
   6   6 -16 776.973 625.804  10
  -6  -6  16 289.130 411.310   2
  -6   6 -16 95.5266 127.335  19
   6  -6  16 243.519 290.352   8
   6   6 -16 243.698 135.145  18
   6   6 -16 21.8800 141.118   1
  -6  -6  16 541.987 499.369  17
  -6  -6  16 192.484 287.509  16
   6  -6  16 386.911 501.702  16
  -6   6 -16 1261.80 902.446  15
   7   0   0-1.75853 86.0276  14
  -7   0   0 9.81273 41.7304   3
  -7   0   0 112.728 158.070   4
   7   0   0-17.6392 86.5246   6
  -7   0   0-18.1320 46.2563  12
   7   0   0-47.9282 93.7088  11
  -7   0   0 31.8851 66.6473   2
  -7   0   0 6.93003 141.841   5
   7   0   0-36.1442 63.1225   1
   7   0   0-2.71544 37.5206  18
  -7   0   0-14.3870 76.7196  17
   7   0   0-92.2969 101.855   8
  -7   0   0 38.8125 82.8498  19
   7   0   1 391.736 243.583  14
   7   0  -1 242.421 172.301  14
   7   0   1 268.096 147.430   6
   7   0  -1 265.730 139.666   6
  -7   0  -1 115.775 76.5004   3
  -7   0  -1 317.505 175.127  12
  -7   0   1 216.748 111.627  12
   7   0   1 285.769 188.667   1
   7   0   1 379.625 152.617  11
   7   0  -1 217.117 108.828  11
   7   0  -1 234.488 188.329   8
  -7   0   1 293.060 195.113   5
  -7   0  -1 109.247 164.381   5
  -7   0  -1 129.403 103.712   2
   7   0  -1 205.334 150.063   1
  -7   0  -1 169.493 179.953  19
   7   0   1 278.210 152.676  18
   7   0  -1 245.770 157.002  18
  -7   0   1 340.816 178.456   2
  -7   0  -1 196.321 150.157  17
  -7   0  -1 220.526 212.506   4
  -7   0   1 84.8327 68.9917  17
  -7   0   1 334.401 238.818   4
  -7   0   1 235.600 184.056  19
  -7   0  -1 497.012 354.277   7
  -7   0  -1 490.559 322.769  15
   7   0   1 262.212 198.025   8
   7   0   2 42.6323 43.7635  14
  -7   0   2 7.91197 73.0504   2
   7   0  -2-9.08319 83.0507  14
   7   0   2-17.2692 65.2927   6
   7   0   2-5.72789 39.8075   1
   7   0  -2 28.3985 5.40664   6
  -7   0  -2 15.7944 55.4088   3
  -7   0   2-28.7381 40.6842  12
   7   0   2 23.9983 18.8812  11
  -7   0  -2 50.1858 60.6807   5
   7   0  -2-211.786 150.826  11
  -7   0   2-138.654 171.202   5
  -7   0   2-0.75302 54.1924  19
   7   0   2 10.9525 66.0395  18
   7   0  -2 65.3395 122.066  18
  -7   0  -2 13.3847 82.4882   4
  -7   0  -2-1.10254 59.0815  17
   7   0   2 64.5343 179.944   8
  -7   0   2-3.53671 39.9701  17
   7   0  -2-19.6995 12.7007   1
   7   0  -2-43.5172 98.8419   8
  -7   0  -2-49.1927 102.144  19
  -7   0   2-43.8396 105.123   4
   7   0   2 19.0222 39.9898  16
  -7   0  -2 53.8072 173.913   7
  -7   0  -2 102.963 141.355  15
   7   0   3 846.082 351.952  14
   7   0  -3 584.733 266.261  14
   7   0   3 659.104 259.990   6
   7   0   3 1614.37 280.449  11
  -7   0  -3 279.978 239.188   5
   7   0  -3 407.309 202.223  11
  -7   0   3 632.205 311.084   5
  -7   0   3 629.196 259.047  19
   7   0   3 763.865 241.077  18
   7   0  -3 495.450 245.632  18
  -7   0  -3 372.342 175.809  17
   7   0   3 1043.05 431.326   8
  -7   0  -3 463.701 272.363   4
  -7   0   3 273.785 224.502  17
  -7   0  -3 252.758 186.798  19
  -7   0   3 664.348 236.953   2
   7   0   3 702.121 207.331  16
   7   0  -3 653.672 288.340   8
  -7   0   3 643.818 271.550   4
  -7   0  -3 248.128 226.763   7
  -7   0  -3 348.962 275.133  15
   7   0  -3 799.598 199.749   6
   7   0  -3 693.029 293.944   1
   7   0   3 787.866 313.704   1
   7   0   4-9.14494 57.2852  14
   7   0  -4-9.81122 45.6161  14
   7   0   4-9.75484 121.177   6
   7   0  -4 47.3948 98.0707   1
   7   0  -4-21.1645 88.1492  11
   7   0  -4 13.9056 30.1907   6
  -7   0  -4-174.116 270.717   5
  -7   0   4-27.7860 108.585   4
  -7   0  -4 180.369 198.188  19
  -7   0   4-34.6826 80.4103  19
   7   0   4 7.65709 38.1878  18
  -7   0  -4-98.6617 217.432   4
  -7   0  -4-6.42827 21.3933  17
   7   0   4-43.2988 157.028   8
  -7   0   4 229.970 197.860  17
   7   0  -4 5.33126 68.0426   8
  -7   0   4 46.2346 85.3970   2
   7   0  -4-76.6770 104.785  18
   7   0   4 55.7398 84.6856   1
   7   0   4-29.8162 67.0580  16
  -7   0  -4-138.188 242.010   7
  -7   0   4 21.7379 30.1170  16
  -7   0  -4-19.4212 135.624  15
  -7   0   4 109.572 145.628   5
   7   0   5 156.549 176.197  14
   7   0   5 20.3092 75.1679   6
   7   0  -5 32.0397 86.4631  14
  -7   0  -5 77.3189 113.305  19
   7   0  -5 16.5349 42.8664  18
   7   0   5 124.275 148.855   1
   7   0   5 79.8069 107.678   8
   7   0  -5 61.9647 44.7010   6
   7   0  -5 7.60330 44.2951   1
   7   0  -5 42.0840 86.7119  11
  -7   0   5 23.1568 67.3611   5
  -7   0   5 152.187 141.581  19
   7   0   5 120.397 95.2945  18
  -7   0  -5 156.851 155.461  17
  -7   0   5-73.1505 149.653  17
   7   0  -5 43.6962 77.7245   8
  -7   0   5 47.8991 94.5027   4
   7   0   5 112.151 138.143  16
  -7   0   5 51.9460 87.2302   2
  -7   0  -5-577.521 344.339   7
  -7   0  -5-107.904 210.155   4
  -7   0   5 43.7772 63.6451  16
  -7   0  -5-314.387 261.740  15
   7   0   6-26.4577 62.2450   6
   7   0  -6-50.4477 71.3681  14
  -7   0  -6 91.2951 239.062  19
   7   0  -6-110.328 78.7721   6
   7   0  -6 52.6729 103.883  11
   7   0  -6 52.8818 116.799   1
  -7   0   6 4.97726 48.4156   5
  -7   0   6 0.02914 27.0436  19
   7   0   6 18.4708 87.9837  18
  -7   0   6 22.5314 59.5738   2
   7   0  -6-40.6854 67.4682  18
  -7   0   6 142.698 163.317  17
   7   0  -6-11.4336 44.5281   8
  -7   0   6 17.9274 99.2137   4
   7   0   6 34.6542 67.2461  16
  -7   0   6-7.46094 37.8389  16
   7   0   6-23.0633 58.1055   1
   7   0   6 58.0487 69.8330   8
  -7   0  -6 4.22659 54.8993  17
   7   0   6 56.4721 145.516  14
   7   0   7 187.667 163.020   6
   7   0  -7 132.664 99.6866  14
   7   0   7 185.498 130.814   1
  -7   0  -7 71.4162 147.264  19
  -7   0   7 298.651 209.168   5
   7   0   7 148.973 58.1092  18
   7   0  -7 91.0173 126.038   1
   7   0  -7 90.7420 51.7589  18
  -7   0  -7 74.0723 115.152  17
   7   0   7 460.798 380.275   8
  -7   0   7 127.029 132.089  17
   7   0   7 311.686 227.838  16
  -7   0   7 162.008 112.194   4
  -7   0   7 242.812 142.618  19
  -7   0   7 101.350 55.7965  16
   7   0  -7-31.3663 161.180  11
  -7   0   7 265.156 162.015   2
   7   0   7 75.7666 78.6391  14
   7   0   8 14.6892 136.030   6
   7   0  -8 47.4132 91.2088  14
   7   0  -8 28.9056 110.415  11
  -7   0  -8 215.783 265.398  19
  -7   0   8 91.9393 140.691   5
  -7   0   8 0.46306 89.6453  19
   7   0  -8-5.65695 84.1201  18
   7   0   8 248.686 351.069   8
  -7   0   8 22.6667 109.000  17
   7   0  -8 102.945 134.066   1
   7   0   8 106.807 163.691  16
  -7   0   8-70.5944 126.129   4
  -7   0   8-17.6863 73.4971  16
  -7   0   8 14.7296 111.971   2
   7   0   8 114.706 176.203  14
   7   0   9-87.4942 109.960   6
   0   7  -9 7.23812 55.8527   3
   7   0  -9 10.7775 42.0077  14
   0   7  -9-6.80352 126.235  13
   0  -7   9 86.6883 145.982   6
   7   0  -9-109.242 212.936  11
  -7   0   9 14.6516 142.864   5
  -7   0  -9 15.0058 66.3172  19
   7   0  -9 63.0179 148.325  18
   7   0   9 15.8906 199.825   8
  -7   0   9-58.1153 138.557  17
   7   0   9 58.1017 146.094  16
  -7   0   9 18.6557 62.5016  16
  -7   0   9-64.9949 165.933   4
   7   0  -9-32.5713 91.7260   1
  -7   0   9 103.362 98.5696   2
   7   0   9-14.4218 77.4797  14
   0   7 -10-23.5367 61.1185   3
   7   0 -10-25.2877 37.0651  14
   7   0 -10-29.8899 90.8965   1
   0   7 -10-109.462 180.364  13
   0  -7  10 26.3771 96.7025   6
   7   0 -10-65.9655 198.935  11
  -7   0 -10 23.7400 45.9230  19
  -7   0  10 81.9059 159.219   5
   7   0 -10-33.0104 115.549  18
   7   0  10 69.4552 55.2257   8
   7   0  10-76.4734 173.345  16
  -7   0  10-20.2723 135.678  17
  -7   0  10-83.6119 130.323  16
  -7   0  10-124.457 202.146   4
   7   0  10-71.1837 192.120  14
  -7   0  10 29.1930 85.6370   2
   7   0  10 6.69678 66.7971   6
   0   7 -11 1084.49 428.545   3
   7   0 -11 382.576 226.861  14
   0   7 -11 971.233 454.321  13
   0  -7  11 191.399 169.473   6
   7   0 -11 435.383 274.228   1
   0   7 -11 798.819 265.464  12
   7   0 -11 23.9232 220.522  11
  -7   0 -11-163.186 257.510  19
  -7   0  11 814.421 379.416   5
   7   0 -11 89.7203 129.580  18
   7   0  11 1160.64 568.983   8
  -7   0  11 908.589 460.124  17
   0   7 -11 654.724 358.823  18
   7   0  11 783.494 382.043  16
  -7   0  11 411.293 219.658  16
   7   0  11 647.552 329.944   6
  -7   0  11 668.642 317.623   2
   7   0 -12 3.07341 38.3298  14
   0   7 -12-54.6503 142.201   3
   0   7 -12 5.13986 137.765  13
   0  -7  12 15.8972 112.184   6
   0   7 -12-27.8975 74.6133  12
   7   0 -12-150.859 391.808  11
  -7   0 -12-192.702 266.185  19
  -7   0  12-47.5880 100.700   5
   0   7 -12-39.5534 160.443  18
   7   0 -12 33.0567 149.429  18
   7   0  12-114.748 280.507   8
   0  -7  12 198.450 189.493  17
   7   0 -12-6.54256 45.5075   1
  -7   0  12 117.006 157.787  17
   7   0  12-106.243 185.207  16
  -7   0  12 48.3516 134.280  16
   7   0  12-95.8311 254.969   6
  -7   0  12 2.91679 92.7189   2
   7   0 -13 461.831 231.566  14
   0   7 -13 1511.04 555.623  13
   0  -7  13 965.464 353.149   6
   0   7 -13 1550.54 394.961  12
  -7   0  13 799.227 376.966  16
   7   0 -13-129.020 433.422  11
  -7   0 -13-27.8397 224.654  19
  -7   0  13 1083.09 462.642   5
   7   0 -13 412.571 259.800   1
   0   7 -13 916.556 497.947  18
   0   7 -13 1093.50 223.643   4
   7   0 -13 97.2837 120.785  18
   7   0  13 1546.12 694.343   8
   0  -7  13 388.761 317.526  17
  -7   0  13 1267.63 561.666  17
   7   0  13 1214.21 489.596  16
   0   7 -13 1915.68 587.044   3
   7   0  13 808.233 343.661   6
  -7   0  13 1567.52 561.150   2
   7   0 -14 23.5121 93.3448  14
   0   7 -14-24.6565 91.2525   3
   0   7 -14-123.899 174.884  13
   0  -7  14-0.28185 64.9569   6
   0   7 -14 30.6355 69.9124  12
   0   7 -14-15.4799 78.2706  18
   7   0 -14-86.0262 319.831  18
   7   0  14 21.3787 98.3718   8
   7   0 -14-70.4283 163.048   1
   0  -7  14 175.416 220.688  17
  -7   0 -14-160.030 280.783  19
  -7   0  14-200.908 340.073  17
  -7   0  14-77.4428 142.705   5
   0   7 -14 23.4515 62.8109   4
   0  -7  14-448.605 456.990  16
   7   0  14-101.690 198.087  16
  -7   0  14 236.501 250.580  16
   7   0  14-546.449 493.333   6
  -7   0  14 104.028 186.426   2
  -7   0  15 691.627 419.735   2
   7   0 -15 156.801 150.200  14
   0  -7  15 372.925 140.307  14
   0  -7  15 188.855 168.117   6
   0   7 -15 833.408 430.261   3
   0   7 -15 670.907 441.669  13
   0   7 -15 725.382 301.492  12
  -7   0 -15-105.454 293.496  19
  -7   0  15 446.579 224.285   5
   0   7 -15 496.077 368.351  18
   7   0  15 901.341 441.463   8
   7   0 -15-103.824 385.056  18
   0  -7  15 843.901 449.845  17
   7   0 -15 272.899 249.221   1
  -7   0  15 243.769 88.6613  17
   0  -7  15 59.4487 230.249  16
   7   0  15 505.997 299.559  16
  -7   0  16 371.097 396.608   2
   0  -7  16 51.4763 104.708   6
   0   7 -16-48.4830 139.897   3
   0   7 -16-42.0097 250.869  13
   0   7 -16-71.0057 129.124  12
   7   0  16 97.7921 71.4052   8
   0  -7  16 65.2259 162.651  17
  -7   0 -16-337.041 408.240  19
   0   7 -16-54.4324 80.5164  18
   0  -7  16-111.769 233.814  16
   7   0  16-17.5816 94.2660  16
   0  -7  17 67.4579 149.688   6
   0   7 -17 858.269 547.628  13
   0   7 -17 232.361 224.061   3
   0   7 -17 149.712 202.564  12
   0   7 -17 535.321 449.621  11
  -7   0 -17-664.768 473.584  19
   0   7 -17 44.5669 159.755  18
   7   0  17 298.210 405.266   8
   0  -7  17-200.833 252.438  17
   0  -7  17-69.7425 165.835  16
   7   0  17 170.665 281.640  16
   0  -7  18 71.0907 126.198   6
   0   7 -18 263.181 335.022  13
   0   7 -18-20.7305 130.156   3
   0   7 -18 36.6907 98.6499  12
   0   7 -18 77.7498 198.219  11
   0   7 -18 426.286 676.408  20
  -7   0 -18-497.898 504.452  19
   0   7 -18-91.1525 153.661  18
   7   0  18 70.2904 242.498   8
   0  -7  18 108.525 204.272  17
   0  -7  18 196.153 276.526  16
   7   0  18 5.29854 246.754  16
   0   7 -18 495.692 689.803   7
   0   7 -18 86.2657 529.072  15
   7   1   0 1760.16 493.640   1
  -7  -1   0 752.413 356.250   4
   7  -1   0 1411.05 405.389   1
  -7   1   0 557.084 204.905  12
  -7   1   0 1407.70 461.607   5
  -7  -1   0 727.512 334.741  19
  -7  -1   0 883.345 403.626   5
  -7   1   0 1252.52 281.906   2
  -7   1   0 1266.53 404.034  19
   7   1   0 1718.15 423.055  18
   7  -1   0 714.131 262.170  18
  -7   1   0 1433.48 447.329   4
   7   1   0 2087.80 576.087   8
   7  -1   0 1577.95 479.708   8
  -7  -1   0 617.043 269.004  17
  -7   1   0 474.822 224.848  17
   7   1   0 733.772 259.762   6
   7   1   0 1356.31 437.321  14
   7  -1   0 1520.07 340.455   6
   7  -1   0 1600.46 421.303  14
   7   1   1 593.034 290.800  14
   7   1  -1 535.013 268.062  14
   7   1   1 290.657 145.267   6
   7   1  -1 419.569 172.134   6
  -7   1  -1 19.6306 38.7625   3
   7  -1   1 551.593 247.439  14
   7  -1  -1 601.258 251.834  14
   7   1  -1 360.368 126.828  13
   7  -1   1 746.258 261.833   6
   7   1  -1 608.937 341.062   1
  -7  -1   1 494.986 260.254  17
   7  -1  -1 663.676 216.043   6
  -7  -1   1 476.299 160.626  12
   7  -1  -1 605.876 263.955   1
  -7   1  -1 309.862 162.414  12
  -7   1   1 251.321 131.032  12
   7   1  -1 1662.56 412.574  11
  -7  -1  -1 175.749 68.4359   5
  -7  -1   1 416.530 268.688   5
  -7   1  -1 572.034 167.064   2
  -7   1  -1 600.109 334.459   5
  -7  -1   1 297.985 173.065  19
  -7  -1   1 473.926 189.407   2
  -7   1  -1 543.388 275.498  19
   7   1   1 694.970 258.956  18
   7   1  -1 662.191 269.153  18
  -7   1   1 576.898 288.655   5
   7  -1   1 386.165 180.545  18
   7  -1  -1 274.822 163.235  18
  -7  -1  -1 294.167 209.225   4
  -7  -1  -1 253.951 184.485  17
  -7  -1   1 421.319 247.562   4
  -7   1   1 674.801 292.264  19
  -7  -1  -1 171.667 167.852  19
   7   1  -1 669.160 322.553   8
  -7   1  -1 161.957 93.4590  17
  -7   1   1 284.819 191.205  17
   7  -1   1 703.841 334.979   8
   7  -1   1 494.972 240.530   1
  -7   1  -1 591.513 283.306   4
   7  -1  -1 647.448 291.765   8
  -7   1   1 543.666 188.919   2
  -7   1   1 532.161 294.895   4
   7   1   1 556.141 259.857   8
  -7  -1   1-109.937 216.929  15
   7   1   1 702.930 330.389   1
   7   1   2 278.699 211.993  14
   7   1   2 146.348 115.092   6
   7   1  -2 225.730 222.149  14
   7  -1   2 376.623 233.742  14
   7   1  -2 275.589 125.863   6
   7  -1  -2 178.655 140.821  14
  -7   1  -2 143.196 93.9877   3
   7  -1   2 328.309 185.569   6
   7   1  -2 395.502 126.381  13
   7  -1  -2 333.448 153.031   6
   7   1   2 403.527 178.239  18
  -7   1  -2 183.399 129.569  12
  -7  -1   2 133.639 66.7002  12
   7   1  -2 488.308 260.964   1
   7   1  -2 563.895 248.670  11
  -7  -1   2 454.245 283.137   5
  -7   1  -2 271.785 107.956   2
  -7   1  -2 338.031 208.691   5
  -7  -1  -2 137.561 182.708  19
   7   1   2 149.135 215.392   8
  -7  -1   2 156.453 137.935  19
  -7   1  -2 230.983 160.658  19
   7  -1  -2 298.830 197.775   1
   7   1  -2 293.468 149.413   9
  -7   1   2 238.365 139.540  19
  -7  -1   2 273.191 173.682   2
  -7  -1   2 340.372 214.716  17
   7  -1   2 340.154 201.202   1
   7   1  -2 243.142 152.231  18
   7  -1   2 215.231 121.421  18
  -7  -1  -2-16.4597 226.849   4
   7  -1  -2 95.3160 105.034  18
  -7   1   2 244.146 181.766   5
  -7  -1  -2 180.097 160.365  17
  -7  -1   2 233.402 196.479   4
  -7   1  -2 72.6416 11.9522  17
   7  -1   2 433.011 299.786   8
  -7   1   2 92.8899 94.0536  17
  -7   1  -2 215.643 193.747   4
   7   1   2 326.792 262.441   1
   7  -1  -2 161.983 139.233   8
   7   1  -2 415.587 259.310   8
  -7   1   2 293.523 187.576   4
   7   1   2 214.674 97.2050  16
  -7  -1   2-10.6227 154.261   7
  -7  -1   2 140.895 84.4373  15
  -7   1   2 306.454 153.127   2
   7   1   3 171.518 127.516   6
   7   1  -3 459.237 224.861  14
   7  -1   3 481.901 246.357  14
   7  -1  -3 444.723 223.855  14
   7   1  -3 355.780 126.915   6
   7  -1   3 582.860 243.035   6
   7   1  -3 736.222 198.523  13
  -7   1  -3 178.891 117.478   3
  -7   1  -3 259.128 146.395  12
   7  -1  -3 379.700 158.962   6
  -7  -1   3 87.4372 44.1205  12
   7   1  -3 818.303 306.252  11
  -7   1  -3 362.950 143.843  20
  -7  -1   3 484.910 269.971   5
  -7   1  -3 405.503 275.270   5
  -7  -1   3 523.440 230.384   2
   7   1  -3 456.989 266.734   1
  -7   1  -3 67.0451 43.9165  10
  -7   1   3 544.797 271.051   5
  -7   1   3 399.314 198.916  19
   7   1   3 449.826 260.957   1
   7   1  -3 294.103 164.249   9
  -7   1  -3 339.737 183.585  19
   7   1   3 542.556 224.294  18
  -7  -1   3 229.014 182.462  19
   7  -1   3 312.084 137.397  18
   7  -1  -3 165.170 150.420  18
  -7  -1  -3 71.3988 133.921  17
   7  -1   3 551.401 259.349   1
   7   1   3 500.466 263.850   8
   7   1  -3 458.455 224.112  18
  -7  -1   3 196.465 175.237  17
  -7  -1   3 380.853 264.891   4
   7  -1  -3 430.277 227.688   1
  -7   1  -3 504.255 300.451   4
   7  -1   3 605.799 352.312   8
  -7   1  -3 95.8884 54.2443  17
   7   1  -3 633.653 285.396   8
  -7   1   3 241.219 163.334  17
  -7  -1  -3 213.149 227.846  19
   7  -1  -3 364.464 218.908   8
  -7   1   3 228.745 197.501   4
   7   1   3 299.002 130.286  16
  -7  -1   3 487.900 198.888   7
  -7  -1   3 393.892 168.761  15
  -7   1   3 434.666 181.844   2
   7   1   3 360.704 233.358  14
   7  -1   4 18.2791 16.1642  18
   7  -1  -4-14.4733 53.0300   1
  -7   1   4 40.6025 60.0064   2
   7   1  -4 49.1903 139.841  14
   7  -1   4 7.55415 89.4148  14
   7  -1  -4 41.5704 97.8214  14
   7   1  -4 59.2068 57.9120   6
   7  -1   4 16.5998 41.0576   6
   7   1   4 50.5944 78.7830  18
  -7  -1   4 181.454 190.741   2
  -7   1   4 6.36563 14.2304  19
   7  -1   4 94.7283 149.171   1
  -7   1  -4 111.962 154.379  12
  -7   1  -4-26.5630 82.8264   3
   7  -1  -4-45.7534 51.5235   6
   7   1  -4 50.9736 105.042  11
  -7   1  -4 6.26602 55.5507   5
  -7   1  -4-48.0846 63.1446  20
  -7  -1   4 206.823 227.820   5
   7   1  -4 151.307 176.603   8
   7   1  -4 164.818 158.633   1
  -7   1  -4 26.5068 40.2130  19
  -7  -1   4 136.678 125.867  19
  -7   1  -4-22.9934 29.6276   4
  -7   1   4 61.2801 121.562   5
   7   1  -4-85.9414 107.948   9
   7   1   4 21.2084 53.1645   1
   7   1   4-45.1177 84.6303   8
   7   1  -4 80.9334 28.4762  18
   7  -1  -4-69.5397 93.4856  18
  -7  -1  -4-45.9521 43.1363  17
  -7   1  -4-69.1739 104.700  10
  -7  -1   4 145.923 203.415  17
   7  -1   4-57.2775 185.960   8
  -7   1  -4 24.3541 11.0803  17
  -7  -1   4 134.155 203.609   4
  -7   1   4-140.519 155.026  17
   7  -1   4 68.5749 96.6694  16
   7  -1  -4 34.2067 93.4276   8
  -7   1   4-29.3566 73.6015   4
   7   1   4-8.11926 26.7582  16
  -7  -1  -4-72.7458 118.215  19
  -7  -1   4 217.509 167.639  15
   7   1   4-23.7841 84.8896  14
   7   1   4 3.15277 9.65746   6
   7  -1   5 312.363 179.121   1
   7  -1   5 330.058 226.986  14
   7   1  -5 321.549 186.112  14
  -7   1   5 216.118 197.613   5
  -7   1   5 110.019 114.302   2
   7  -1  -5 224.862 128.802  14
   7  -1   5 344.178 199.406   6
   7   1  -5 317.486 98.9940   6
   7   1   5 233.879 175.328   1
  -7   1  -5 261.949 213.052   3
   7  -1  -5 220.342 196.771   1
  -7   1  -5 161.820 214.313   5
   7   1  -5 242.842 191.336  11
  -7   1  -5 81.7247 132.587  20
  -7  -1   5 392.418 258.811   5
  -7   1  -5 183.691 201.373  19
  -7  -1   5 301.289 194.235  19
  -7   1   5 169.201 151.779  19
   7   1  -5 152.091 76.2777   9
   7   1  -5 321.570 207.871   1
   7   1  -5 271.651 197.922  18
   7  -1   5 235.504 107.784  18
   7  -1  -5 19.8653 64.5866  18
  -7   1  -5 139.044 143.568   4
  -7  -1   5 426.840 230.585   2
   7  -1   5 322.426 264.622   8
  -7  -1   5 117.155 164.952  17
  -7   1  -5 121.409 100.287  17
  -7  -1   5 132.407 163.842   4
  -7   1   5 85.3825 103.390  17
   7   1  -5 268.124 165.644   8
   7  -1   5 276.145 173.207  16
  -7  -1   5 218.587 90.5280  16
   7   1   5 234.509 216.847   8
  -7  -1  -5 186.677 246.341  19
   7   1   5 200.550 137.030  16
  -7   1   5 77.2628 94.0427   4
  -7   1  -5 466.796 350.931   7
  -7   1  -5 722.756 439.527  15
   7   1   5 226.711 186.693  14
   7   1   5 140.158 45.7284   6
   7  -1   6 449.507 238.930  14
   7   1  -6 268.080 186.673  14
   7   1   6 333.669 271.482   8
  -7   1   6 139.348 111.793   2
   7  -1   6 393.733 234.197   6
   7  -1  -6 111.884 142.381  14
  -7   1   6 198.206 163.915  19
  -7   1  -6-7.98525 23.0161  13
  -7  -1  -6-52.8047 147.871  19
   7   1  -6-25.6203 100.646   9
  -7   1  -6 186.040 120.960   5
   7   1  -6 251.168 166.407  11
  -7   1  -6 115.072 102.495  20
  -7  -1   6 417.730 227.680   5
  -7   1  -6 198.464 193.531  19
  -7  -1   6 458.806 217.775  19
  -7   1  -6 61.1046 57.8307  17
  -7   1   6 278.630 191.082   5
  -7  -1   6 295.610 247.079  17
   7  -1   6 288.898 103.018  18
   7   1  -6 275.858 180.247  18
   7  -1  -6 66.3586 87.5476   1
   7  -1  -6-72.1761 159.414  18
  -7   1  -6 247.808 234.613   4
   7  -1   6 526.523 360.072   8
  -7  -1   6 263.872 161.588   2
   7   1  -6 317.944 233.629   1
  -7   1   6 94.6691 158.096  17
  -7  -1   6 345.318 208.159   4
   7   1  -6 216.906 139.243   8
   7  -1   6 323.923 176.255  16
  -7  -1   6 365.113 135.011  16
   7  -1   6 298.078 204.038   1
   7   1   6 160.613 126.959  16
  -7   1  -6 527.225 368.769   7
  -7   1   6 0.95396 135.615   4
  -7   1  -6 6.22681 53.2173  15
   7   1  -6 388.742 100.477   6
   7   1   6 337.441 252.940  14
   7   1   6 121.602 97.8143   6
   7  -1   7 329.117 213.872  14
   7   1  -7 78.5267 115.121  14
   7  -1   7 312.390 199.849   6
   7  -1  -7 6.70969 35.2218  14
  -7   1   7 211.396 184.568   2
   7   1  -7 264.483 78.2692   6
   7   1  -7 205.292 49.1224  11
  -7   1   7 186.971 168.214   5
  -7   1  -7-88.2073 161.134  20
  -7  -1  -7-72.5003 158.780  19
  -7  -1   7 232.663 188.362   5
  -7  -1   7 279.133 155.359  19
   7   1  -7-240.708 212.227   9
   7  -1   7 286.149 93.6594  18
   7   1  -7 267.484 204.686  18
  -7   1  -7-100.300 226.704   4
   7  -1  -7-68.5902 198.284  18
   7   1   7 594.502 426.248   8
   7  -1   7 385.806 243.380   1
   7  -1   7 440.038 347.769   8
  -7   1  -7-71.4740 60.5380  17
  -7   1  -7 156.282 225.141  19
  -7  -1   7 312.177 182.563   2
  -7   1   7 294.471 319.411  17
  -7  -1   7 309.109 150.392   4
   7   1  -7 237.682 156.337   8
   7  -1   7 280.294 161.408  16
  -7  -1   7 314.161 131.151  16
  -7  -1   7 143.160 96.9277  17
   7  -1  -7 182.145 181.229   1
  -7   1  -7 135.582 182.821   7
   7   1   7 146.697 133.091  16
   7   1  -7 332.167 171.297   1
  -7   1  -7 92.1268 179.873  15
   7   1   7 76.2946 137.272  14
   7   1   7-54.1279 255.526   6
   7  -1   8 958.980 452.938  14
   7   1  -8 829.085 387.559   1
   7   1  -8 645.291 285.619  14
   7  -1   8 1178.22 459.823   6
  -7  -1  -8-48.2749 316.562  19
   7  -1  -8 564.741 231.859  14
  -7   1   8 542.488 260.934   2
   1   7  -8 444.747 207.040  13
   7  -1  -8 136.795 139.061   1
  -7  -1   8 1200.42 527.401   5
   7   1  -8 754.293 364.356  11
  -7  -1   8 1225.20 500.337   2
  -7   1  -8 137.063 72.0711  20
  -7  -1   8 1455.52 409.312  19
  -7   1  -8 673.183 463.091  19
   7  -1   8 899.312 405.018   1
  -7   1   8 491.967 248.275   5
   7   1  -8-119.457 186.838   9
  -7  -1   8 925.737 375.009   4
   7   1  -8 646.001 329.488  18
  -7   1  -8 282.409 235.240   4
   7   1   8 931.414 586.088   8
   7  -1  -8 57.1164 109.041  18
  -7  -1   8 1408.14 623.082  17
   7  -1   8 1530.87 612.432   8
  -7   1   8 284.903 263.410  17
  -7  -1   8 1009.65 291.851  16
   7  -1   8 1244.18 424.322  16
   7   1  -8-117.545 316.396   8
  -7   1  -8 360.263 273.576   7
   7   1   8 371.331 229.073  16
  -7   1  -8 479.137 349.223  15
   7   1  -8 392.905 86.6812   6
   7   1   8 67.4798 262.176   6
   7  -1   9 1352.99 465.208  14
   7   1  -9 877.697 305.478  14
   7  -1   9 1416.08 473.634   6
   7  -1  -9 667.121 252.571  14
  -7   1   9 844.569 355.597   2
  -1   7  -9 638.811 230.805  13
   1   7  -9 1068.52 475.951  13
   7   1  -9 1153.42 435.823   1
   1  -7   9 207.042 179.112   6
  -1  -7   9 81.9684 130.578   6
   7   1  -9-41.7245 158.519   9
   7  -1   9 299.666 145.820   1
   7  -1  -9 471.455 268.786   1
  -7   1  -9-224.017 385.296  20
  -7  -1  -9-305.529 467.875  19
  -7   1  -9 194.560 156.043  19
  -7   1   9 787.280 310.544   5
  -7  -1   9 1454.61 416.336   4
   7   1  -9 795.943 309.750  18
   7   1   9 1053.91 551.614   8
  -7  -1   9 1382.88 477.085   5
   7  -1  -9 29.0986 228.853  18
   7   1  -9 597.301 314.859  11
   7  -1   9 1801.47 624.601   8
  -7  -1   9 897.761 424.696  17
  -7   1   9 516.217 310.328  17
   7  -1   9 1546.13 455.175  16
  -7  -1   9 1087.84 299.167  16
   7   1   9 728.487 328.712  16
  -7  -1   9 1420.39 426.087   2
  -7   1  -9-200.662 510.666   7
  -7  -1   9 1104.81 310.998  19
  -7   1  -9-3.28959 322.753  15
  -1   7  -9 1604.54 501.491   3
   7  -1  10 240.400 215.859   6
   1   7 -10 361.460 231.878   3
   7   1 -10 209.967 171.246  14
  -1   7 -10 495.412 252.550   3
   7  -1 -10 65.1493 104.344  14
  -7   1  10 184.603 161.693   2
  -1   7 -10 208.838 206.991  13
   1   7 -10 321.936 249.478  13
   1  -7  10 36.0575 56.2756   6
   7   1 -10 195.003 174.889   1
  -1  -7  10 77.3007 121.333   6
  -1   7 -10 210.281 46.8088  12
  -7   1 -10 110.202 100.515  19
  -7  -1  10 318.922 241.238   5
  -7  -1  10 67.0269 118.070  19
   7  -1 -10 84.1249 126.810   1
   1   7 -10-22.4178 332.740  18
   7   1 -10-355.705 262.993   9
   7   1 -10 189.859 188.060  18
   7   1  10 266.638 275.628   8
   7  -1 -10-82.8974 295.374  18
   7  -1  10 310.512 50.9187   8
  -7  -1  10-11.9709 153.106  17
  -7   1  10-91.7448 273.377  17
  -7  -1  10 359.363 272.831   2
  -7  -1  10 233.828 167.431   4
   7  -1  10 303.256 201.649  16
  -7  -1  10 185.308 149.982  16
   7   1  10 209.232 207.222  16
  -7   1  10-333.740 232.116   5
   7   1 -10 118.670 85.1554  11
   7  -1  10 393.784 259.471  14
   7  -1  11 608.137 343.205   6
   7   1 -11 410.099 228.882  14
   1   7 -11 842.400 360.306   3
  -1   7 -11 892.434 390.224   3
  -7   1 -11 53.3270 135.554  19
  -1   7 -11 529.359 313.940  13
   1   7 -11 840.966 434.225  13
   1  -7  11 217.378 193.120   6
  -1  -7  11 196.050 200.048   6
  -1   7 -11 623.281 259.305  12
   7   1 -11 416.201 253.938   1
   7   1 -11 338.507 244.150  11
   7  -1  11 658.170 154.286   2
  -7  -1  11 766.182 355.479   5
  -1   7 -11 351.143 181.006  18
   7   1 -11-264.938 348.619   9
   7   1 -11 324.137 244.249  18
   7   1  11 464.935 328.853   8
  -1  -7  11-44.7343 271.963  17
   1   7 -11 664.846 468.712  18
   7  -1  11 892.080 420.204   8
   7  -1 -11 187.932 188.769   1
  -7  -1  11 717.905 309.447  17
  -7  -1  11 796.343 391.010   2
   7  -1  11 867.702 372.484  16
  -7  -1  11 710.890 296.498   4
  -7  -1  11 571.311 280.540  16
   7   1  11 383.409 296.673  16
   7  -1  11 703.835 373.925  14
   7  -1  12 1089.20 449.142   6
   7   1 -12 449.499 218.423  14
   1   7 -12 1069.09 420.340   3
  -1   7 -12 1134.88 421.866   3
  -1   7 -12 1094.35 486.731  13
   1   7 -12 1200.34 532.128  13
   1  -7  12 401.152 233.306   6
  -1  -7  12 293.533 229.975   6
  -1   7 -12 924.757 326.434  12
   1   7 -12 807.281 249.736  12
   7  -1  12 929.458 203.090   2
   7   1 -12 297.419 308.720  11
   7   1 -12 671.864 351.159   1
  -1   7 -12 976.054 413.332  18
  -7   1 -12 109.781 155.470  19
  -7  -1  12 811.241 377.241   5
   1   7 -12 798.305 471.022  18
   7   1 -12-184.426 305.333   9
   7   1 -12 378.791 273.422  18
   7   1  12 254.785 145.426   8
   1  -7  12 297.049 310.749  17
  -1  -7  12 365.124 301.128  17
   7  -1  12 1240.10 515.406   8
  -7  -1  12 1093.95 514.400  17
  -7  -1  12 913.403 400.980   2
   7  -1  12 888.370 390.554  16
  -7  -1  12 851.977 317.073   4
  -7  -1  12 740.250 308.614  16
   7   1  12 324.745 247.131  16
   7  -1  12 931.948 425.142  14
   7  -1  13 624.970 366.515   6
   7   1 -13 235.623 174.453  14
   1   7 -13 256.188 162.957   3
  -1   7 -13 545.958 300.195   3
  -1   7 -13 770.207 394.763  13
   1   7 -13 525.398 347.733  13
  -1  -7  13 105.320 126.311   6
   1  -7  13 259.280 197.321   6
  -1   7 -13 632.803 268.838  12
   1   7 -13 428.701 201.637  12
  -7   1 -13 3.70464 54.7925  19
   7   1 -13 175.221 150.125   1
   7   1 -13 42.1815 192.354  11
  -7  -1  13 301.082 193.589   5
  -1   7 -13 464.238 289.249  18
   1   7 -13 213.737 260.296  18
   7   1 -13-456.548 431.569   9
   7   1  13 131.972 102.649   8
   7   1 -13 182.953 226.436  18
   1  -7  13 194.987 30.7854  17
  -1  -7  13-58.2921 205.707  17
  -7  -1  13 580.679 395.989  17
   7  -1  13 411.666 364.420   8
   7  -1  13 483.013 336.385  16
  -1   7 -13 406.604 159.055   4
  -7  -1  13 373.574 231.282   2
  -7  -1  13 293.705 219.291  16
  -7  -1  13 342.167 178.470   4
   7   1  13 294.899 293.822  16
   7  -1  13 547.371 169.392   2
   7  -1  13 244.108 202.252  14
   7   1 -14 495.303 250.855  14
   1  -7  14 593.305 183.273  14
  -1   7 -14 1246.19 540.792  13
   1   7 -14 1571.43 555.498  13
  -1  -7  14 699.780 355.053   6
   1  -7  14 880.901 365.616   6
  -1   7 -14 1630.93 453.992  12
   1   7 -14 1454.42 388.369  12
  -7  -1  14 1520.01 530.865   5
   7  -1  14 1579.26 319.431   2
  -1   7 -14 1681.34 481.521  18
   7   1 -14 672.753 355.271   1
   1   7 -14 1038.75 506.648  18
  -1   7 -14 1630.18 344.043   4
   7   1  14 528.087 271.436   8
   7  -1  14 1898.81 682.221   8
   1  -7  14 1341.00 546.319  17
  -1  -7  14 737.013 459.828  17
  -7   1 -14 136.959 247.958  19
  -7  -1  14 1670.30 667.216  17
  -1  -7  14 221.697 312.657  16
   1  -7  14 108.471 206.575  16
   7   1 -14 532.069 343.085  18
   7  -1  14 1639.22 572.283  16
  -7  -1  14 1290.20 447.319  16
  -7  -1  14 1518.09 524.278   2
  -7  -1  14 1052.73 332.329   4
   1   7 -14 1893.57 573.424   3
  -1   7 -14 1831.70 590.926   3
   7  -1  14 1522.37 586.769   6
   7   1 -15 111.348 124.804  14
   1  -7  15 247.051 126.550  14
   1  -7  15 285.119 174.122  17
  -1  -7  15 116.258 128.753   6
   1   7 -15 395.799 300.869   3
   1  -7  15 108.259 122.891   6
  -1   7 -15 412.371 292.468   3
  -1   7 -15 215.863 235.367  13
   1   7 -15 361.562 279.446  13
  -1   7 -15 261.119 192.315  12
   1   7 -15 298.974 148.747  12
   7   1 -15 89.9438 94.9067  11
  -1   7 -15 163.859 69.7179  18
   1   7 -15 231.747 285.399  18
   7   1 -15 140.634 183.863   1
   7   1 -15 14.4120 136.490  18
   7  -1  15 92.2288 70.4149   8
  -1  -7  15 364.844 250.862  17
  -7  -1  15 348.381 312.412   5
  -7  -1  15 214.413 263.601  17
  -1  -7  15-238.957 294.107  16
   1  -7  15-632.730 393.605  16
   7  -1  15 412.062 324.031  16
  -7  -1  15 122.843 163.246  16
  -7  -1  15 38.0737 133.594   2
  -7  -1  15 82.1873 124.853   4
  -7   1 -15-139.835 157.654  19
   7  -1  15 365.286 152.170   2
   7  -1  15 151.321 163.483   6
   7   1 -16 153.494 102.534  14
   1  -7  16 345.818 140.051  14
  -7  -1  16 449.734 356.916   5
  -1  -7  16 95.8540 109.158   6
   1  -7  16 380.215 272.900   6
   1   7 -16 678.265 391.843   3
  -1   7 -16 373.517 337.630  13
   1   7 -16 315.711 218.891  13
  -1   7 -16 686.488 403.426   3
  -1   7 -16 523.669 270.978  12
   1   7 -16 380.488 198.791  12
   7   1 -16 100.530 183.507  11
  -7   1 -16 125.876 182.012  19
   1   7 -16 321.371 317.932  18
  -1   7 -16 509.589 274.100  18
   7   1 -16-86.5692 222.856  18
   7   1 -16 151.440 227.700   1
   7  -1  16 447.869 352.521   8
  -1  -7  16 90.7410 192.853  17
   1  -7  16 394.144 269.441  17
  -7  -1  16 681.090 510.747  17
  -1  -7  16 319.163 192.751  16
   1  -7  16 123.200 140.683  16
   7  -1  16 449.503 366.215  16
  -7  -1  16 413.988 372.203  16
  -7  -1  16 287.624 314.353   2
   7  -1  16 361.368 132.098   2
   7  -1  16 32.4438 380.162   6
  -7  -1  17 509.788 339.024   5
  -7   1 -17 286.150 222.959  19
   7   1 -17 114.129 107.438  14
  -1  -7  17 336.939 270.878   6
   1  -7  17 186.592 252.305   6
  -1   7 -17 472.850 316.781  13
   1   7 -17 781.068 524.760  13
   1   7 -17 685.689 426.803   3
  -1   7 -17 508.049 295.153   3
  -1   7 -17 522.268 268.509  12
   1   7 -17 658.553 353.954  12
   1   7 -17 1761.99 695.709  11
  -1   7 -17 1125.49 463.060  11
   7   1 -17-120.721 408.830  11
   1   7 -17 337.773 299.841  18
  -1   7 -17 398.650 227.493  18
   7   1 -17-87.6705 267.015  18
  -7  -1  17 136.753 154.154  16
   7  -1  17 535.074 331.775   8
  -1  -7  17 295.777 248.245  17
   1  -7  17 365.735 213.839  17
   7   1 -17 167.272 210.979   1
  -7  -1  17 869.979 505.565  17
  -1  -7  17 391.350 340.129  16
   1  -7  17 314.442 286.972  16
   7  -1  17 109.805 173.807  16
  -7  -1  17 415.698 370.000   2
   1   7 -17 1126.40 779.812  15
   7  -1  17 420.766 197.545   2
   7  -1  17-333.010 531.959   6
  -1  -7  18 66.3449 118.572   6
   1  -7  18 71.7929 182.696   6
  -1   7 -18 146.216 244.891  13
   1   7 -18 190.606 362.943  13
   1   7 -18 33.0479 160.331   3
  -1   7 -18 136.833 253.333   3
  -1   7 -18 31.9725 148.591  12
   1   7 -18 63.8577 136.602  12
   1   7 -18-169.680 256.809  11
  -1   7 -18 272.549 342.316  11
  -1   7 -18 465.853 787.140  20
   7   1 -18-306.919 624.996  11
  -7   1 -18-185.478 206.129  19
   1   7 -18-30.3531 54.5251  18
  -1   7 -18 36.2373 217.183  18
   7   1 -18-147.676 373.046  18
  -7  -1  18 151.559 217.673   5
   1   7 -18 367.828 465.484  20
  -1  -7  18-75.9499 102.530  17
   1  -7  18 206.388 278.994  17
   7   1 -18 6.26097 73.2598   1
  -7  -1  18-306.288 429.552  17
   7  -1  18 367.230 335.765   8
  -1  -7  18 61.2514 177.152  16
   1  -7  18 117.942 283.079  16
   7  -1  18-87.1280 285.017  16
  -7  -1  18-110.759 201.841  16
  -7  -1  18-128.546 302.837   2
   1   7 -18 759.927 708.716   7
  -1   7 -18 1116.30 845.285   7
   1   7 -18 262.081 485.504  15
  -1   7 -18 606.513 661.554  15
   7  -1  18-735.102 663.950   6
   7   2   0 2536.26 651.315   1
  -7   2   0 866.546 273.542  12
   7  -2   0 1963.46 462.360   1
  -7   2   0 2243.54 567.107   5
  -7   2   0 1324.71 278.689   2
  -7   2   0 2129.95 498.458  19
  -7  -2   0 332.675 185.608  19
  -7  -2   0 363.739 263.134  17
   7   2   0 2478.24 533.557  18
  -7   2   0 2064.55 518.203   4
   7   2   0 2624.73 653.262   8
   7  -2   0 1855.98 541.501   8
   7   2   0 1197.92 438.364  14
   7  -2   0 2020.18 426.346   6
   7  -2   0 2181.50 485.157  14
  -7   2   1 2426.26 521.190  19
   7   2   1 1976.02 592.566   1
  -7  -2   1 681.732 355.037  17
   7   2  -1 2581.27 629.999   1
  -7   2  -1 1415.38 350.235  12
   7  -2   1 2037.06 469.013   1
  -7   2  -1 1979.91 532.741   5
  -7   2   1 1894.72 527.271   5
   7  -2  -1 1813.18 460.948   1
  -7   2  -1 1479.83 271.073   2
  -7   2   1 976.472 244.910   2
  -7   2  -1 2005.43 488.765  19
  -7  -2   1 457.658 270.228  19
   7   2   1 1980.30 500.323  18
   7   2  -1 2615.28 561.066  18
   7   2   1 2271.72 649.580   8
   7   2  -1 2851.19 674.416   8
  -7   2  -1 2027.92 541.628   4
  -7   2   1 1733.04 480.930   4
   7  -2   1 1979.30 558.782   8
   7  -2  -1 1606.99 508.330   8
  -7  -2  -1 246.542 199.981  17
  -7  -2  -1-68.0091 157.217  19
   7   2   1 1207.16 460.626  14
   7   2  -1 1535.10 460.880  14
   7  -2   1 2499.14 482.192   6
   7  -2   1 2591.21 532.144  14
   7  -2  -1 1801.99 461.481  14
   7  -2  -1 1698.44 384.551   6
  -7  -2  -2-35.4720 158.743  19
  -7   2  -2 731.282 168.091   2
  -7   2  -2 198.842 138.939   3
   7  -2   2 760.674 337.379   8
   7   2  -2 1248.82 385.017  18
   7  -2   2 958.261 321.593  14
   7  -2  -2 597.995 265.776  14
   7   2  -2 596.863 203.365  13
  -7  -2   2 194.319 88.7132   4
  -7   2  -2 863.541 324.601  19
   7  -2   2 890.631 301.449   1
   7  -2  -2 428.286 172.779   6
  -7   2  -2 613.276 232.568  12
  -7  -2   2 330.050 175.955   5
  -7  -2   2 135.133 127.308  19
  -7   2   2 868.386 359.377   5
   7   2   2 998.230 437.317   1
   7   2   2 773.071 375.321   8
  -7  -2   2 678.117 309.605  17
   7   2   2 822.852 298.541  18
   7   2  -2 1312.36 422.295   8
  -7   2  -2 961.315 376.483   5
  -7   2   2 839.577 318.091  19
   7  -2  -2 698.190 287.719   1
  -7   2  -2 880.465 355.394   4
   7  -2  -2 428.588 249.730   8
  -7   2   2 447.799 208.486   4
   7   2  -2 1251.57 423.141   1
   7  -2   2 1090.13 320.576   6
   7   2   2 397.731 248.295  14
   7   2  -2 500.548 311.248  14
  -7   2  -3 120.379 151.414  19
   7   2  -3-1.61489 97.0975   1
   7  -2   3 101.773 113.852  14
   7  -2  -3 44.1332 95.2372  14
  -7   2  -3 5.38520 36.7343   3
   7   2  -3 3.88601 27.2198  13
   7  -2   3 146.444 142.171   6
   7  -2  -3 52.7938 66.5530   1
  -7  -2   3 13.7913 25.7699  12
  -7   2  -3 29.0086 78.4358  12
  -7  -2   3-18.3525 109.040   5
  -7  -2  -3 46.3108 190.934  19
  -7   2  -3 61.8978 109.172   5
   7   2   3 8.98883 82.9044   1
  -7  -2   3 138.325 151.024   2
  -7   2   3 50.7461 49.0283  19
  -7   2   3 54.6930 20.3777   5
   7   2  -3 121.004 74.6092  18
   7   2   3 67.8466 172.014   8
  -7  -2   3-3.95715 120.261   4
  -7  -2   3 47.3913 75.3126  19
  -7  -2   3 6.98089 48.9108  17
   7   2  -3 76.1330 96.2141   8
   7  -2   3 38.5305 128.454   8
  -7   2  -3 25.6291 59.8736   4
  -7   2  -3 87.7787 58.8013   2
   7  -2  -3-87.3194 197.713   8
  -7   2   3-82.9353 180.067   4
   7   2   3-85.5197 240.177  14
   7  -2   3 78.4408 29.9982   1
   7   2  -3 38.5384 107.885  14
   7   2  -4 430.230 222.830  14
   7  -2   4 815.534 310.642  14
   7  -2  -4 335.668 197.504  14
   7   2  -4 915.694 396.626   1
  -7   2  -4 359.674 212.026   3
   7  -2   4 734.966 279.602   6
   7   2  -4 983.428 259.597  13
  -7   2  -4 453.463 216.436  12
   7   2  -4 1903.08 544.008  11
  -7  -2   4 479.606 307.205   5
   7   2   4 269.550 175.429   1
   7   2  -4 259.575 120.734  20
  -7   2  -4 565.522 289.783   5
  -7  -2   4 582.785 286.442   2
  -7   2   4 381.138 207.777   5
   7   2  -4 880.619 297.266   8
   7  -2  -4 274.149 202.704   1
   7   2  -4 742.695 336.885  18
   7   2   4 408.982 140.948   8
  -7  -2   4 236.019 181.803   4
   7  -2   4 747.371 268.212   1
  -7  -2   4 236.097 171.870  17
  -7   2  -4 613.631 301.980  19
   7  -2   4 684.346 304.824   8
  -7   2  -4 594.582 315.283   4
  -7   2   4 606.710 242.336  19
  -7  -2   4 593.300 275.540  19
  -7  -2  -4 54.0758 106.292  19
   7   2  -5 34.3056 46.0207  14
  -7   2  -5 14.9274 25.9623  19
   7  -2   5 173.992 158.093  14
   7  -2  -5 12.0036 63.6173   1
   7  -2  -5-9.13274 87.5851  14
   7  -2   5 159.913 144.154   6
   7   2  -5 309.258 159.332  13
  -7   2  -5 58.0864 20.2721   3
   7   2  -5 226.601 142.464   1
  -7   2  -5 118.850 67.4222  12
   7   2  -5 243.089 206.279  11
  -7   2   5-96.5521 255.311   5
  -7  -2   5 68.3194 42.8119   5
  -7   2  -5 177.920 167.533   5
   7   2  -5-86.8156 152.050  20
   7  -2   5 126.443 159.686   1
   7   2  -5 286.635 154.894  10
  -7  -2   5 126.391 188.199  19
   7  -2   5-56.0020 207.298  16
  -7  -2   5 203.204 146.760   2
   7   2  -5 161.336 109.621  18
   7   2   5-45.1135 242.450   8
  -7  -2   5 2.83918 51.1933   4
  -7  -2   5-46.6756 139.921  17
   7   2  -5 203.484 162.289   8
  -7   2  -5 108.900 165.821   4
   7  -2   5 189.406 178.416   8
   7   2  -6 526.293 285.427  14
   7  -2  -6 383.051 215.360  14
   7   2  -6 1424.25 362.844  13
   7  -2   6 1288.41 368.994   1
  -7   2  -6 621.687 256.458  12
  -7   2  -6 576.580 243.822   3
   7   2  -6 1078.00 405.327   1
   7   2  -6 1083.60 394.999  11
  -7   2  -6 673.487 333.281   5
  -7  -2   6 823.385 388.061   5
  -7   2  -6 993.478 329.866  20
  -7   2  -6 775.100 209.333  10
  -7   2  -6 686.307 301.775  19
  -7  -2   6 1033.28 318.198  19
   7   2  -6 1946.44 524.249   9
  -7   2  -6 698.596 149.433   9
   7   2  -6 1175.37 385.675  18
   7  -2  -6 127.626 163.116   1
  -7  -2   6 788.179 323.941   2
   7   2   6 344.644 227.732   8
  -7  -2   6 630.293 318.432   4
  -7  -2   6 683.643 369.010  17
  -7   2  -6 933.456 395.490   4
   7  -2   6 1410.99 497.577   8
   7   2  -6 1242.71 333.748   8
  -7  -2   6 377.777 109.894  16
   7  -2   6 894.933 315.522  16
   7   2  -6 656.690 196.914  10
   7  -2   6 1287.29 408.014   6
   7  -2   6 1199.62 404.044  14
   7   2  -7 445.909 295.360  14
   7  -2   7 1764.62 521.058   1
  -7   2  -7 935.271 422.050  12
  -7   2  -7 772.738 408.151   3
   7   2  -7 958.481 406.245  10
   7   2  -7 1314.59 527.067  11
  -7   2  -7 908.721 416.284   5
  -7  -2   7 1280.70 538.264   2
  -7   2  -7 1404.96 537.068  20
  -7  -2   7 668.401 472.365   5
   7   2  -7 1109.19 451.386   1
  -7   2  -7 1396.95 593.131  19
   7   2  -7 2380.74 584.271   9
   7   2  -7 1226.90 464.312  18
   7  -2   7 2115.81 721.341   8
   7   2  -7 1100.24 430.944   8
   7   2   7-52.5848 395.854   8
  -7   2  -7 1017.83 464.163   4
  -7  -2   7 781.876 407.101   4
  -7  -2   7 481.324 509.904  17
   7  -2   7 1404.56 491.152  16
   7  -2   7 1727.89 521.236   6
  -7   2  -8 1187.46 459.559   3
   7  -2   8 2865.09 633.741  16
   2   7  -8 1675.62 596.273  13
  -7   2  -8-182.618 123.616  13
   7  -2   8 2144.11 536.568   1
  -7   2  -8 1753.08 565.827  12
   7   2  -8 2103.73 595.761   1
   7   2  -8 2894.63 807.330  11
  -7   2  -8 860.468 360.544   5
  -7  -2   8 2064.72 598.073   2
  -7   2  -8 1413.79 560.308  19
  -7   2  -8 1188.33 376.224  10
  -7  -2   8 2702.78 548.334  19
  -7   2  -8 1636.48 508.092  20
   7   2  -8 1363.07 437.444  10
   7   2  -8 2400.05 679.661   9
   7   2  -8 1996.87 604.180  18
  -7   2  -8 738.313 220.501   9
  -7  -2   8 2204.69 613.743   4
   7  -2   8 2836.18 745.733   8
   7   2  -8 1531.08 425.560   8
   7   2   8 251.041 496.212   8
  -7   2  -8 1057.38 475.982   4
  -7  -2   8 2024.17 398.459  16
  -7   2  -8 2266.78 813.451   7
  -7   2  -8 2693.22 873.137  15
   7  -2   8 2394.26 572.711   6
   7   2  -8 1040.55 391.349  14
   7  -2   8 2892.81 666.994  14
   7   2  -8 2221.32 294.637   3
   7   2  -9 52.2889 46.9761  14
   7  -2   9 41.5921 36.0275  14
  -7   2  -9-18.6277 101.601  10
  -2   7  -9 57.7158 109.484   3
   7  -2   9 91.9644 117.285   6
   2   7  -9 188.372 171.839  13
   7   2  -9 12.7752 77.1583  18
  -7   2  -9 68.1328 56.2839  13
   2  -7   9 17.0794 8.53311   6
  -2  -7   9 26.8034 56.7723   6
  -7  -2   9 92.2156 90.9982  19
  -2   7  -9-190.891 146.484  12
   7   2  -9 121.957 211.731  11
   7   2  -9 100.607 102.446  10
  -7   2  -9 79.0639 167.042  20
  -7  -2   9 68.2265 92.8767   5
  -7   2  -9 96.2548 76.8788  19
   7   2  -9 264.872 243.474   9
   7   2  -9 110.004 179.014   1
   7  -2   9 73.4956 118.970   1
   7   2   9-427.149 776.589   8
  -7   2  -9 2.70681 168.538   4
   7  -2   9 2.44094 94.2631  16
  -7  -2   9-62.8752 112.014   2
   7  -2   9 31.4671 115.741   8
  -7  -2   9 54.7248 11.8800  17
  -7  -2   9-7.96521 68.3919   4
  -7  -2   9 65.3046 62.8413  16
   7   2  -9-48.5665 184.647   8
  -7   2  -9 253.710 283.552   7
  -7   2  -9-88.3796 141.626   9
  -7   2  -9-70.2400 246.719  15
   2   7 -10 2899.76 785.852  13
  -2   7 -10 1614.42 549.084  13
  -7   2 -10 633.532 257.615  13
  -2   7 -10 2867.97 570.730  12
   2  -7  10 578.146 269.560   6
  -2  -7  10 272.760 205.919   6
   7   2 -10 2354.25 572.942   1
  -7  -2  10 2742.09 745.979   5
   7   2 -10 2529.66 720.219  11
  -7  -2  10 2834.71 696.790   2
  -7   2 -10 1298.13 442.015  20
  -7  -2  10 2145.56 423.515  19
   7  -2  10 621.469 303.240   1
  -7   2 -10 1015.77 409.482  19
  -7   2 -10 634.376 174.792  10
   7   2 -10 249.962 172.663  10
   2   7 -10 1676.45 629.347  18
  -7  -2  10 2603.30 574.086   4
   7  -2  10 3768.67 842.922   8
   7   2 -10 2447.00 682.118  18
  -7   2 -10 400.487 126.805   4
  -7  -2  10 2219.47 707.336  17
   7   2 -10 997.443 419.114   9
   7  -2  10 3126.53 709.255  16
  -7  -2  10 2604.06 505.000  16
  -7   2 -10 1964.68 721.463   7
   2   7 -10 3099.01 686.220   3
  -7   2 -10 1644.17 692.380  15
   7  -2  10 3406.69 767.625   6
  -2   7 -10 3460.59 777.200   3
   7  -2  10 3416.76 755.368  14
   7   2 -10 992.656 346.213  14
   7  -2  11 697.806 358.163  14
   7   2 -11 149.103 150.448  14
  -2   7 -11 37.5022 255.947  18
   2   7 -11 503.163 255.368   3
   7  -2  11 783.318 375.807   6
  -2   7 -11 673.858 359.242   3
  -2   7 -11 245.383 247.778  13
   2   7 -11 709.416 387.526  13
   2  -7  11 192.091 117.095   6
  -2  -7  11 164.750 171.969   6
  -7   2 -11 153.326 99.6862  10
  -2   7 -11 553.413 250.960  12
   7   2 -11 430.565 310.816  11
   7   2 -11-58.9637 218.257  10
  -7  -2  11 335.721 143.445  19
  -7   2 -11 313.968 247.592  19
  -7  -2  11 502.720 302.240   5
   7   2 -11 257.495 172.115   9
   2   7 -11 484.742 321.224  18
  -7   2 -11-37.1003 203.512   9
   7   2 -11 394.995 252.410  18
  -7   2 -11 44.1964 156.731  20
   7  -2  11 869.055 490.645   8
  -2  -7  11 297.228 378.043  17
  -7  -2  11 702.589 336.285   2
  -7  -2  11 552.370 360.380  17
  -7  -2  11 472.235 236.906   4
   7   2 -11 477.347 246.347   1
   7  -2  11 682.807 354.080  16
  -7  -2  11 483.168 241.309  16
  -7   2 -11 111.645 275.791   7
  -7   2 -11-15.3258 263.339  15
   7   2 -12 436.180 221.295  14
   7  -2  12 1589.61 560.803   6
  -2   7 -12 1122.17 454.390   3
  -2   7 -12 953.911 456.592  13
   2   7 -12 1415.85 564.618  13
  -2  -7  12 412.643 249.575   6
   2  -7  12 704.301 314.070   6
  -2   7 -12 1351.36 411.366  12
  -7   2 -12 262.487 246.456  19
   7  -2  12 1106.72 249.185   2
   7   2 -12 982.268 480.036  11
   2   7 -12 737.129 510.500  18
  -7  -2  12 1283.99 479.703   5
  -7   2 -12 262.889 234.211  20
  -7   2 -12 43.5530 175.283  10
   7   2 -12-153.267 346.398  10
  -2   7 -12 1524.26 445.894  18
   7   2 -12 607.551 352.055   9
  -2   7 -12 1103.17 275.962   4
   7   2 -12 851.125 415.626  18
   2  -7  12 546.882 343.399  17
   7  -2  12 2066.53 700.282   8
  -7  -2  12 1316.42 577.895  17
  -7  -2  12 1330.67 494.746   2
  -7  -2  12 1217.35 364.662   4
   7   2 -12 1015.06 395.402   1
   7  -2  12 1355.42 531.821  16
  -7  -2  12 1244.29 388.293  16
  -7   2 -12-114.959 503.265   7
  -7   2 -12 21.9829 305.954  15
  -2  -7  12 194.184 219.869  17
   2   7 -12 1561.38 511.896   3
   7  -2  12 1295.23 485.042  14
   7   2 -13 299.536 187.689  14
   7  -2  13 1636.73 573.883   6
   2  -7  13 506.305 196.524  14
  -2   7 -13 1494.81 531.557   3
  -2   7 -13 1065.61 494.248  13
   2   7 -13 1346.25 543.653  13
  -2  -7  13 380.851 257.416   6
   2  -7  13 768.782 372.445   6
  -2   7 -13 1441.38 449.409  12
   2   7 -13 988.888 289.034  12
   7  -2  13 1631.87 319.281   2
  -2  -7  13 776.017 441.656  17
   7   2 -13 713.865 450.105  11
  -7   2 -13-38.1393 283.964  20
  -7  -2  13 1415.50 536.205   5
  -7   2 -13 481.493 341.436  19
  -7   2 -13-164.090 304.344  10
   7   2 -13-275.066 479.652  10
   7   2 -13 34.1892 183.752   9
  -2   7 -13 1310.77 430.941  18
   2   7 -13 863.067 575.886  18
  -7  -2  13 1305.29 401.880   4
  -2   7 -13 1349.06 344.674   4
   7  -2  13 1776.18 610.145  16
   7   2 -13 711.901 348.251  18
   2  -7  13 786.283 373.582  17
   7  -2  13 2196.46 750.269   8
  -7  -2  13 1095.64 482.374  17
  -7  -2  13 1399.02 546.096   2
  -7  -2  13 1359.82 420.788  16
   7   2 -13 1028.01 439.626   1
  -7   2 -13-1077.01 623.938  15
   2   7 -13 1642.46 519.781   3
   7  -2  13 1487.87 529.532  14
   7   2 -14 220.452 172.308  14
   7  -2  14 1282.30 510.459   6
  -7   2 -14 144.247 165.329  19
  -2   7 -14 1104.50 341.667   4
   2  -7  14 636.246 218.880  14
   2   7 -14 1190.18 443.986   3
  -2   7 -14 1279.19 499.966   3
  -2   7 -14 728.234 425.201  13
  -2  -7  14 332.227 214.237   6
   2   7 -14 1169.00 498.802  13
   2  -7  14 727.688 340.457   6
   2   7 -14 1018.40 301.510  12
  -2   7 -14 980.672 361.089  12
   7  -2  14 1395.21 318.244   2
   7   2 -14 537.391 397.438  11
  -7   2 -14-177.555 322.498  20
   7   2 -14 47.8475 43.3388   9
  -2   7 -14 915.930 332.240  18
   2   7 -14 857.665 486.738  18
   7   2 -14 477.286 262.399  18
   2  -7  14 816.078 302.571  17
  -2  -7  14 827.178 500.212  17
   7  -2  14 1422.89 601.360   8
  -7  -2  14 666.553 417.614  17
  -7  -2  14 1100.73 501.439   2
  -2  -7  14-329.788 402.385  16
   2  -7  14 164.518 334.069  16
  -7  -2  14 1011.19 349.994   4
   7  -2  14 1429.66 578.394  16
  -7  -2  14 1131.53 410.604  16
  -7  -2  14 1114.58 486.172   5
   7   2 -14 668.165 349.398   1
   7  -2  14 788.222 403.509  14
   7   2 -15 1020.56 429.710   1
   7  -2  15 1410.88 579.367   6
   7   2 -15 259.971 195.882  14
  -2  -7  15 488.352 262.257   6
   2  -7  15 737.621 359.466   6
  -2   7 -15 1806.93 622.578   3
  -2   7 -15 1254.63 528.198  13
   2   7 -15 1363.06 564.782  13
  -2   7 -15 1645.56 483.230  12
   2   7 -15 1476.21 399.133  12
  -7  -2  15 1805.84 630.359   5
   7  -2  15 2083.58 403.871   2
   7   2 -15 717.763 427.639  11
   2  -7  15 1214.96 511.430  17
  -2  -7  15 947.586 463.797  17
  -7   2 -15 226.027 185.668  19
   2   7 -15 1323.90 644.911  18
  -2   7 -15 1474.23 393.070   4
   7   2 -15 68.1347 157.122   9
  -2   7 -15 1658.56 439.612  18
  -7  -2  15 1559.36 430.161   4
   7   2 -15 745.126 423.967  18
   7  -2  15 2350.33 737.516   8
  -7  -2  15 1994.30 744.891  17
  -7  -2  15 1689.41 622.087   2
  -2  -7  15 307.525 291.739  16
   2  -7  15 329.097 262.465  16
   7  -2  15 1657.29 576.838  16
  -7  -2  15 1827.07 507.004  16
   2  -7  15 1212.53 294.048  14
   2   7 -15 2146.32 641.021   3
   7  -2  15 1332.63 520.966  14
   7  -2  16 1116.76 477.772   6
   7   2 -16 97.7698 113.231  14
   7   2 -16 385.083 263.481   1
   2  -7  16 828.026 238.655  14
  -2  -7  16 221.249 129.960   6
   2  -7  16 586.813 403.079   6
   2   7 -16 1380.44 552.955   3
  -2   7 -16 737.700 450.404  13
   2   7 -16 749.420 391.322  13
  -2   7 -16 766.165 383.750   3
   2   7 -16 1046.63 367.419  12
   7   2 -16 492.864 365.980  18
  -2   7 -16 959.275 379.778  12
   7  -2  16 1473.75 383.271   2
   7   2 -16 410.501 380.327  11
  -7   2 -16 113.485 125.495  19
  -7  -2  16 985.139 463.423   5
   7   2 -16-768.489 473.283   9
   2   7 -16 555.199 454.801  18
  -2   7 -16 1145.34 376.364  18
   7  -2  16 1442.80 583.853   8
  -2  -7  16 603.760 348.080  17
  -7  -2  16 1003.77 494.822  17
  -7  -2  16 1080.27 477.134   2
  -2  -7  16 156.583 99.7003  16
   2  -7  16 394.764 167.241  16
  -7  -2  16 1040.21 337.832   4
   7  -2  16 1391.40 594.757  16
  -7  -2  16 622.001 354.502  16
   2  -7  16 1137.93 350.172  17
   7  -2  17 75.6006 112.491   6
   7   2 -17 121.819 163.368   1
  -2  -7  17-50.7204 114.046   6
   2  -7  17 142.105 166.024   6
   2   7 -17 537.473 379.648   3
  -2   7 -17 365.689 269.280  13
   2   7 -17 219.213 337.699  13
  -2   7 -17 216.447 165.328   3
  -2   7 -17 129.748 139.416  12
   2   7 -17 200.942 239.759  12
   2   7 -17 1016.85 590.668  11
  -2   7 -17 1281.04 529.065  11
   7   2 -17-155.408 323.000  11
  -7  -2  17 76.7706 70.9330   5
   7   2 -17-322.292 316.142   9
   2   7 -17 160.626 151.906  18
  -2   7 -17 300.249 220.949  18
   7   2 -17 122.067 195.320  18
   7  -2  17 255.342 353.453   8
  -2  -7  17 109.389 321.987  17
   2  -7  17 374.258 273.839  17
  -7  -2  17 189.769 356.165  17
  -2  -7  17 102.837 165.493  16
  -7  -2  17 345.491 298.190   2
   2  -7  17 268.189 306.529  16
  -7   2 -17-173.260 211.732  19
  -7  -2  17 267.254 201.403   4
   7  -2  17 117.638 261.132  16
  -7  -2  17 67.3411 28.0351  16
   2   7 -17 443.428 558.679   7
   2   7 -17 429.232 538.760  15
   7   3   0 3549.03 781.535   1
  -7   3   0 2399.31 565.600   5
   7  -3   0 1791.41 433.303   1
  -7   3   0 3140.61 617.172  19
   7   3   0 2941.68 649.358  18
   7   3   0 2220.58 659.323   8
  -7   3   0 2519.56 572.103   4
   7  -3   0 1656.48 536.341   8
   7  -3   0 2320.33 517.962  14
   7  -3   0 1720.96 410.304   6
   7  -3   1 422.286 220.775  14
   7  -3  -1 261.298 156.531  14
   7  -3  -1 241.030 118.507   1
   7  -3   1 319.062 176.511   6
   7  -3  -1 74.6955 72.1431   6
  -7   3  -1 332.937 160.979  12
   7   3   1 331.125 266.596   1
  -7  -3   1 47.1788 68.5926  19
  -7   3  -1 641.406 241.527  19
  -7   3   1 484.591 223.373  19
  -7   3  -1 444.603 246.692   5
  -7   3   1 65.0391 140.785   5
   7   3  -1 352.577 292.434   1
   7   3   1 163.355 149.342   8
   7   3  -1 645.828 283.967   8
  -7  -3   1 477.375 355.502  17
   7   3  -1 517.539 294.865  18
   7  -3   1 379.633 262.538   8
   7  -3  -1 112.867 75.1637   8
  -7   3  -1 407.302 221.330   4
   7  -3   1 393.651 199.154   1
   7  -3  -2 640.041 275.425  14
  -7   3  -2 798.693 281.913  12
  -7   3  -2 1071.38 391.237   5
   7  -3   2 1082.24 339.643   1
  -7   3  -2 1220.01 371.469  19
  -7  -3   2 162.225 170.997  19
   7   3  -2 1519.14 482.811  18
  -7   3  -2 1207.26 408.727   4
   7   3   2 501.179 157.948   8
   7   3  -2 1195.66 443.620   8
  -7  -3   2 153.589 223.958  17
   7   3  -2 1151.46 507.409   1
   7  -3   2 874.855 354.796   8
  -7   3   2 1114.87 339.735  19
   7  -3  -2-6.02736 297.890   8
   7  -3  -2 504.719 268.071   1
   7  -3   2 1172.23 355.898   6
   7  -3   2 1078.62 345.123  14
  -7   3  -3 326.383 185.184   3
   7   3  -3 866.205 287.392  13
  -7   3  -3 802.614 282.626  12
   7  -3   3 1004.45 311.873   1
  -7   3  -3 1182.84 390.324   5
  -7   3  -3 1233.90 382.647  19
  -7  -3   3 182.382 215.181  19
   7   3  -3 1407.37 469.964  18
  -7   3  -3 1133.60 419.962   4
   7   3   3 211.248 334.504   8
   7   3  -3 1517.87 459.929   8
  -7  -3   3 379.991 319.344  17
   7   3  -3 1271.08 492.575   1
   7  -3   3 847.451 375.443   8
   7  -3   3 1282.31 397.439   6
   7  -3   3 1313.37 400.813  14
   7   3  -3-3.49102 101.162  14
   7  -3   4-54.7550 74.2077  14
  -7   3  -4 26.7027 66.0996   3
   7   3  -4 5.49812 64.9504  13
   7  -3   4 18.7936 76.9525   6
  -7   3  -4-23.3366 41.6649  12
   7  -3   4 10.9407 22.8728   1
  -7   3  -4 18.4133 77.8616   5
  -7   3  -4 19.0037 103.644  19
   7   3  -4-48.2258 90.7221  18
  -7  -3   4 170.083 247.163  17
   7   3  -4-47.4960 82.6381   8
  -7  -3   4-232.010 194.227  19
   7  -3   4 25.9943 73.0958   8
  -7   3  -4 71.3815 90.4645   4
   7   3  -4-29.4677 121.502   1
   7   3  -4-15.5414 66.5855  14
   7  -3   5 659.513 292.796  14
   7  -3   5 488.562 227.017   1
  -7   3  -5 379.249 214.386   3
   7   3  -5 626.808 281.810  13
   7  -3   5 804.475 329.013   6
  -7   3  -5 503.561 241.028  12
  -7  -3   5 442.023 243.685   2
  -7   3  -5 643.040 324.522   5
  -7   3  -5 545.476 245.503  19
   7   3  -5 474.683 256.548  18
  -7  -3   5 66.2584 229.220  17
   7   3  -5 1121.90 360.608   8
   7  -3   5 621.339 340.887   8
  -7   3  -5 681.022 330.329   4
   7   3  -5 588.692 368.894   1
  -7  -3   5 188.647 216.016  19
   7   3  -5 67.6919 159.609  14
   7  -3   6 636.713 300.165  14
  -7   3  -6 198.339 167.661   3
   7  -3   6 374.873 187.414   6
   7  -3   6 484.788 209.182   1
  -7   3  -6 421.609 203.192  12
  -7  -3   6-3.78379 198.195   5
  -7   3  -6 323.865 200.788   5
  -7  -3   6 240.026 150.421  19
  -7   3  -6 412.805 220.973  19
   7   3  -6 759.009 350.120  20
   7   3  -6 938.100 396.918   8
   7   3  -6 472.135 299.252  18
  -7  -3   6 746.120 458.510   2
  -7  -3   6 71.1770 256.786  17
   7  -3   6 274.057 177.112   8
  -7   3  -6 290.201 199.358   4
   7   3  -6 142.210 234.672  14
   7   3  -6 901.871 468.588   1
   7   3  -7 1786.38 494.692  13
  -7   3  -7 791.629 343.826   3
   7   3  -7 1473.15 529.182   1
   7  -3   7 1531.86 372.040   1
  -7   3  -7 1089.26 353.987  12
  -7   3  -7 1419.36 463.051   5
   7   3  -7 2531.86 745.003  11
  -7  -3   7 993.787 504.263   5
   7   3  -7 1262.00 459.238  20
  -7   3  -7 1023.72 400.899  19
  -7  -3   7 1372.87 584.648   2
   7   3  -7 1439.25 501.431  18
   7   3  -7 1558.40 457.144   8
  -7  -3   7 229.502 209.876   4
  -7  -3   7 1062.51 599.078  17
  -7   3  -7 1172.17 444.485   4
   7  -3   7 1569.32 539.804   8
   7  -3   7 1591.85 449.995   6
   7  -3   7 1534.55 423.123  14
   7   3  -7 570.562 385.306  14
  -3   7  -8 207.422 116.488   3
   7   3  -8 174.482 83.9199   3
   7  -3   8 516.344 267.839  14
   7   3  -8 351.802 226.834   1
   3   7  -8 486.905 290.403  13
  -7   3  -8-52.5224 107.728  13
   7  -3   8 500.557 269.865   6
   7  -3   8 539.031 235.895   1
   7   3  -8 354.683 213.887  13
  -7   3  -8 171.474 154.888   3
  -7   3  -8 270.754 207.716  12
   3  -7   8 61.7358 138.920   6
   7   3  -8 642.489 371.274  11
  -7  -3   8 211.790 57.3036   5
  -7   3  -8 339.551 221.590   5
   7   3  -8 160.704 164.818  20
  -7   3  -8 345.977 256.520  19
   7   3  -8 254.891 197.884  18
  -7  -3   8 302.092 161.319  19
  -7  -3   8 85.0987 145.587   4
  -7  -3   8 120.982 144.499  17
  -7   3  -8 293.956 231.565   4
   7  -3   8 354.178 229.518   8
   7   3  -8 335.719 200.709   8
  -7  -3   8 11.8972 105.289  16
   7  -3   8 365.596 216.084  16
   7   3  -8 613.571 331.000  10
  -7  -3   8 323.655 246.280   2
   7   3  -8 145.151 160.972  14
   3   7  -9 4381.96 976.753  13
   7   3  -9 4450.77 765.293  13
   7  -3   9 3679.05 618.441   1
  -7   3  -9 2390.46 578.254  12
  -3   7  -9 3624.34 653.678  12
   7   3  -9 3486.40 766.878   1
   3  -7   9 565.935 294.240   6
  -7   3  -9 2201.40 612.305   5
  -7  -3   9 2918.95 792.649   5
   7   3  -9 5080.62 1033.44  11
  -7  -3   9 3581.92 808.688   2
  -7   3  -9 3485.10 751.224  20
  -7   3  -9 3654.59 612.465  10
  -7   3  -9 2641.70 577.426  19
  -7  -3   9 3202.81 535.538  19
  -7  -3   9 1409.12 452.564   4
   3   7  -9 2728.82 751.753  18
   7   3  -9 4066.52 862.717  18
   7  -3   9 4711.73 943.454   8
   7   3  -9 3028.67 529.576   8
  -7  -3   9 2737.00 800.859  17
  -7   3  -9 2696.30 711.789   4
  -7  -3   9 2448.79 470.476  16
   7  -3   9 3487.06 755.949  16
  -3   7  -9 4271.91 869.764   3
   7  -3   9 4571.82 855.483   6
   7  -3   9 4289.47 760.239  14
   7   3  -9 3497.94 432.655   3
   7   3  -9 1980.48 545.296  20
   7   3  -9 632.154 299.255  14
  -7   3  -9 1695.97 505.814   3
   7  -3  10 250.971 225.166  14
  -3   7 -10 134.844 188.836   3
   7  -3  10 277.924 223.384   6
  -3   7 -10-447.896 326.077  13
   3   7 -10 111.710 195.629  13
  -7   3 -10 116.876 127.694  13
   7   3 -10 196.651 113.287   3
  -7   3 -10 28.8165 83.3708  12
   3  -7  10 137.735 194.861   6
  -3  -7  10-18.2011 87.1363   6
   7   3 -10 208.365 175.927   1
  -7   3 -10 70.2326 146.514   3
  -3   7 -10 94.2901 108.794  12
  -7   3 -10 66.9592 71.9375   5
   7   3 -10 225.772 278.642  11
  -7  -3  10 80.5026 131.175   5
  -7   3 -10 228.849 235.906  20
  -7   3 -10 22.1373 75.2134  10
   7   3 -10 138.174 241.822  10
  -7   3 -10 56.1349 48.6599  19
  -7  -3  10 107.994 103.702  19
   7   3 -10 916.184 512.648   9
  -7   3 -10 116.429 136.930   9
   3   7 -10 100.633 225.075  18
   7   3 -10 38.4540 54.4040  18
  -7  -3  10 233.681 201.040   2
   7   3 -10-57.1060 201.500  20
  -3  -7  10 77.1971 349.312  17
  -7  -3  10 114.955 160.496   4
  -7   3 -10 101.384 161.108   4
   7  -3  10 122.289 51.0048   1
  -7  -3  10 197.894 166.047  17
   7  -3  10 230.876 222.974   8
  -7  -3  10 169.573 149.463  16
   7  -3  10 101.890 173.282  16
   7   3 -10 28.8347 97.1814   8
  -7   3 -10 604.080 594.512  15
   7   3 -10 18.1403 81.3557  14
   3   7 -11 1933.11 678.979  13
  -3   7 -11 671.238 387.593  13
  -7   3 -11 210.634 142.444  13
  -3   7 -11 1366.56 424.796  12
   3  -7  11 653.208 303.368   6
  -7   3 -11 763.442 391.673  12
  -3  -7  11 188.267 179.125   6
  -7   3 -11 834.785 307.320  10
  -7   3 -11 784.480 380.593   3
   7   3 -11 1184.82 451.963   1
   7   3 -11 1375.72 555.791  11
   3   7 -11 896.887 592.160  18
  -7  -3  11 1030.18 481.066   5
  -7   3 -11 1205.56 436.884  20
   7   3 -11 226.696 114.160  20
  -7  -3  11 1048.32 305.613  19
   7   3 -11 950.975 347.862  10
  -7   3 -11 705.826 335.192  19
   7  -3  11 432.877 249.487   1
   7   3 -11 1462.83 515.612   9
  -7   3 -11 833.078 273.773   9
   7   3 -11 1383.05 518.052  18
  -7  -3  11 1299.28 505.710   2
  -7   3 -11 455.852 335.441   4
  -3  -7  11 236.914 246.800  17
  -7  -3  11 822.012 316.492   4
  -7  -3  11 1001.41 482.711  17
   7  -3  11 2151.40 696.171   8
  -7  -3  11 1314.74 381.993  16
   7  -3  11 1775.60 567.104  16
  -7   3 -11 1287.72 712.346   7
   3   7 -11 1543.04 484.161   3
   7  -3  11 1956.04 591.244   6
  -7   3 -11 1314.94 700.381  15
  -3   7 -11 1761.74 603.818   3
   7  -3  11 1938.76 536.754  14
   7   3 -11 1502.76 324.229   3
   7   3 -11 146.813 100.724  14
   7   3 -12 1549.28 363.833   3
   3  -7  12 473.440 190.049  14
  -3   7 -12 1367.88 506.169   3
  -3   7 -12 1060.72 456.470  13
   3   7 -12 1552.69 568.784  13
  -7   3 -12 240.289 156.735  13
  -3  -7  12 383.378 188.190   6
   3  -7  12 803.283 398.453   6
  -3   7 -12 1629.60 485.272  12
  -7   3 -12 1049.88 495.808  12
  -7   3 -12 870.293 448.830   3
   7   3 -12 1294.10 527.448  11
   7   3 -12 1338.54 488.651   1
  -7  -3  12 1317.11 578.303   5
  -7   3 -12 1128.95 439.233  20
   7   3 -12-236.015 470.619  20
   7   3 -12 809.906 369.381  10
  -7   3 -12 679.960 322.420  19
  -7  -3  12 685.132 234.680  19
  -3   7 -12 1322.56 391.485  18
  -7   3 -12 711.151 216.418   9
   3   7 -12 663.950 461.665  18
   7   3 -12 1301.45 534.171  18
  -7   3 -12 195.158 83.7397   4
  -3   7 -12 1405.76 383.908   4
  -7  -3  12 1373.10 501.792   2
   3  -7  12 428.087 234.464  17
  -3  -7  12 95.8741 257.525  17
  -7  -3  12 1013.32 364.111   4
  -7  -3  12 1021.23 506.491  17
   7   3 -12 1236.22 535.660   9
   7  -3  12 1705.57 572.830   8
  -7  -3  12 1490.66 441.068  16
   7  -3  12 1865.20 592.961  16
  -7   3 -12 1543.32 748.822   7
  -7   3 -12 991.210 590.217  15
   7  -3  12 1981.64 610.943   6
   3   7 -12 1883.61 536.847   3
   7  -3  12 1907.75 537.013  14
  -7   3 -12 738.983 307.440  10
   7   3 -12 157.177 158.470  14
   7   3 -13 1455.33 369.484   3
   7  -3  13 1439.93 523.430   6
   3   7 -13 1114.20 423.832   3
   3  -7  13 655.211 231.602  14
  -3   7 -13 1231.61 511.632   3
  -3   7 -13 760.911 434.825  13
   3   7 -13 1256.71 514.116  13
  -3  -7  13 369.098 228.800   6
   3  -7  13 515.909 342.444   6
  -7   3 -13 366.272 249.757  13
  -3   7 -13 1177.33 409.036  12
  -3   7 -13 749.966 170.870   5
   7   3 -13 1078.21 514.232  11
  -7  -3  13 925.202 466.227   5
  -7   3 -13 830.211 404.117  20
   7   3 -13 898.660 412.712   1
   7   3 -13-398.548 612.487  20
  -7   3 -13 458.772 162.617  10
   7   3 -13 478.592 275.723  10
  -7   3 -13 716.535 349.272  19
  -7   3 -13 350.803 153.450   9
   7   3 -13 966.451 456.815   9
  -3   7 -13 1106.09 354.844  18
   3   7 -13 702.479 503.295  18
  -3   7 -13 1315.94 375.179   4
  -7  -3  13 1264.27 478.578   2
   7   3 -13 941.151 419.336  18
   3  -7  13 652.317 303.994  17
  -3  -7  13 348.661 336.475  17
  -7  -3  13 748.603 322.172   4
   7  -3  13 1606.82 575.164   8
  -7  -3  13 1274.49 586.230  17
   7  -3  13 1247.26 506.258  16
  -7  -3  13 1226.04 406.190  16
  -7   3 -13 1041.87 666.556   7
  -7   3 -13 857.379 492.331  15
   7  -3  13 1520.99 519.309  14
   7   3 -13 117.269 132.818  14
  -3  -7  14 498.059 260.806   6
  -3   7 -14 980.237 409.433  13
   3   7 -14 2090.02 704.478  13
   3  -7  14 1024.76 469.482   6
  -7   3 -14 676.246 365.807  13
  -3   7 -14 1896.49 512.268  12
   7   3 -14 361.337 260.684  10
   7   3 -14 1283.34 516.770  11
  -7  -3  14 1990.66 652.827   5
  -7   3 -14 467.980 318.769  20
  -3  -7  14 1043.66 595.855  17
   7   3 -14 1296.19 517.310   1
  -7   3 -14 459.206 245.626  10
  -3   7 -14 1561.85 418.349  18
   7   3 -14 1035.21 484.484   9
  -7   3 -14 431.201 220.148   9
   3   7 -14 1354.81 662.003  18
  -3   7 -14 1876.34 455.153   4
   7   3 -14 1438.55 565.838  18
   3  -7  14 1473.05 472.049  17
  -7  -3  14 1928.16 647.595   2
  -7  -3  14 1423.06 408.401   4
  -7   3 -14 903.623 378.305  19
   7  -3  14 2825.93 758.114   8
  -7  -3  14 1765.74 664.167  17
  -7  -3  14 1886.61 533.631  16
   3  -7  14 99.8356 376.501  16
   7  -3  14 2115.06 652.395  16
  -7   3 -14-38.0580 376.026   7
  -7   3 -14 795.036 486.965  15
   7  -3  14 2450.92 724.903   6
   7  -3  14 2053.40 617.271  14
   3   7 -14 2097.03 586.786   3
   3  -7  14 1224.48 339.843  14
  -3   7 -14 2021.96 677.791   3
   7   3 -14 98.0344 76.4479  14
   7  -3  15 1003.12 485.284   6
   3  -7  15 818.685 255.181  14
  -7   3 -15-25.1195 159.259   9
   7   3 -15 72.9928 200.872  10
  -3  -7  15 201.007 180.241   6
   3   7 -15 901.997 350.229   3
   3  -7  15 203.481 204.214   6
  -3   7 -15 545.502 337.796  13
  -3   7 -15 968.568 460.339   3
   3   7 -15 959.356 426.904  13
  -7   3 -15 255.274 201.506  10
  -3   7 -15 733.037 329.879  12
   3   7 -15 552.179 197.855  12
   7   3 -15 617.832 449.999  11
  -7  -3  15 725.265 412.839   5
  -7   3 -15 201.275 174.641  20
   7  -3  15 644.130 247.577   2
  -7   3 -15 511.863 324.538  19
   7   3 -15 502.405 319.005   1
   7   3 -15 293.417 270.454   9
  -3   7 -15 826.950 295.561  18
   3   7 -15 384.935 396.560  18
   7   3 -15 595.173 387.677  18
   3  -7  15 661.815 348.017  17
  -7  -3  15 698.233 439.349   2
  -3  -7  15 453.490 444.482  17
  -7  -3  15 674.999 290.885   4
   7  -3  15 1069.92 476.220   8
  -3   7 -15 590.771 272.562   4
  -7  -3  15 801.060 527.237  17
  -3  -7  15-170.324 360.394  16
   3  -7  15-53.4503 373.273  16
   7  -3  15 1061.13 485.827  16
  -7  -3  15 905.232 351.505  16
  -7   3 -15-755.235 827.536   7
  -7   3 -15-1243.96 706.511  15
   7  -3  15 916.683 393.351  14
   7   3 -15 58.5338 133.668  14
   7  -3  16 1068.30 500.881   6
   3  -7  16 673.440 242.741  14
  -3  -7  16 389.602 223.761   6
   3  -7  16 629.031 368.929   6
   3   7 -16 1070.24 444.345   3
   7   3 -16 310.953 237.050   1
  -3   7 -16 369.231 251.436  13
   3   7 -16 1092.72 579.030  13
  -3   7 -16 483.925 258.812   3
  -3   7 -16 793.170 359.221  12
   3   7 -16 595.035 207.295  12
  -3   7 -16 2077.73 625.049  11
   7   3 -16 375.364 192.644  11
  -7  -3  16 593.873 313.136   5
  -7   3 -16-138.490 275.275  20
  -7   3 -16 341.348 257.295  19
   7   3 -16-137.561 384.414  10
   7   3 -16 428.449 310.850   9
   3   7 -16 841.912 524.641  18
  -3   7 -16 1101.36 363.249  18
   7   3 -16 616.571 374.334  18
  -3   7 -16 677.290 289.306   4
  -7   3 -16 229.140 177.995   9
  -3  -7  16 1368.26 796.310  17
   3  -7  16 836.734 370.643  17
  -7  -3  16 1046.46 495.056   2
   7  -3  16 1954.04 753.942   8
  -7  -3  16 892.286 329.579   4
  -7   3 -16 195.530 158.224  10
  -7  -3  16 771.265 516.507  17
  -3  -7  16 120.548 225.684  16
   3  -7  16 135.714 119.800  16
   7  -3  16 1197.02 569.211  16
  -7  -3  16 1032.65 414.457  16
   3  -7  16-3.33162 371.045   8
   3   7 -16 1529.47 800.334   7
   3   7 -16 1500.80 782.914  15
   7  -3  16 871.483 400.810  14
   7  -3  17 1389.45 601.558   6
  -7   3 -17-12.2455 233.457  10
  -3  -7  17 274.907 302.527   6
   3  -7  17 604.019 382.076   6
   3   7 -17 1329.05 535.328   3
  -3   7 -17 902.263 498.803  13
   3   7 -17 1185.41 593.620  13
  -3   7 -17 837.741 406.163   3
  -3   7 -17 900.856 366.361  12
   3   7 -17 1048.27 324.456  12
   3   7 -17 2201.63 850.669  11
  -3   7 -17 2301.92 621.756  11
  -7  -3  17 1286.15 537.353   5
  -7   3 -17 45.0211 134.136  20
   7   3 -17-217.006 526.391  10
   7   3 -17 322.815 278.735   9
   7   3 -17 578.312 330.950   1
  -7   3 -17-145.086 357.950   9
   3   7 -17 589.189 520.446  18
  -3   7 -17 950.324 346.089  18
   7   3 -17 571.030 400.494  18
  -3  -7  17 936.420 476.288  17
  -7  -3  17 789.294 500.285   2
   3  -7  17 1142.45 406.199  17
   7  -3  17 1767.06 675.541   8
   7   3 -17 657.976 507.058  11
  -7  -3  17 455.523 461.582  17
  -3  -7  17 515.076 349.372  16
   3  -7  17 664.776 426.853  16
   7  -3  17 1220.57 608.354  16
  -7  -3  17 824.477 442.218  16
   3  -7  17 111.885 295.062   8
   3   7 -17 1008.48 599.732   7
   3   7 -17 1252.37 677.224  15
  -7   3 -17 101.695 206.741  19
   7  -3  17 637.494 327.770  14
  -7   4   0-80.4431 216.563  19
   7  -4   1 606.140 267.500   6
   7   4  -1 1227.06 568.889   1
   7  -4   1 604.931 235.258   1
  -7   4  -1 1762.35 484.425  19
   7   4  -1 547.651 203.376   8
   7  -4   1 365.279 36.8148   8
   7  -4   1 1063.15 356.883  14
   7   4  -1 1571.39 483.629  18
   7  -4   2-5.09604 97.3166  14
   7  -4   2 109.742 116.020   6
  -7   4  -2-4.85874 128.176  12
   7   4  -2 56.9981 109.939   1
  -7   4  -2 149.646 131.571  19
   7   4  -2 79.3185 93.7506  18
  -7   4  -2 17.8412 173.541   5
   7  -4   2 73.0637 83.3462   1
   7   4  -2 118.514 217.621   8
   7  -4   2-11.5252 123.674   8
  -7   4  -2-110.867 217.815   4
   7  -4   3 228.930 151.291  14
   7  -4   3 286.825 196.553   6
  -7   4  -3 386.807 197.098  12
  -7   4  -3 331.089 202.702  19
   7   4  -3 316.883 278.340   1
   7  -4   3 169.189 101.073   1
  -7   4  -3 218.208 140.521   5
   7   4  -3 488.603 265.601  18
   7   4  -3 283.371 187.080   8
  -7  -4   3 3.36552 84.4795  17
   7  -4   3 121.625 127.266   8
  -7   4  -3 189.880 52.6835   4
  -7   4  -4 116.509 126.120   3
   7  -4   4 341.761 206.047  14
   7   4  -4 153.864 41.9031  13
   7  -4   4 280.199 192.974   6
  -7   4  -4 464.148 236.369  12
  -7  -4   4 308.835 248.547  19
  -7   4  -4 488.954 237.082  19
  -7   4  -4 338.358 212.176   5
   7   4  -4 491.158 327.477  18
   7   4  -4 355.923 308.489   1
   7   4  -4 630.960 288.817   8
  -7  -4   4 201.685 166.727  17
   7  -4   4 265.310 215.195   8
   7  -4   4 370.292 204.841   1
  -7   4  -4 493.508 286.482   4
  -7   4  -5-80.8434 143.361   3
   7  -4   5 41.0683 79.0118  14
   7   4  -5-0.29905 49.8774  13
   7  -4   5 19.9264 103.072   1
   7  -4   5-23.0568 13.5642   6
  -7   4  -5-27.4749 106.033  12
   7   4  -5 32.9421 108.987   1
  -7   4  -5 38.7560 121.510   5
  -7   4  -5 125.753 132.422  19
   7   4  -5 52.9003 113.797  18
   7   4  -5 168.196 228.693   8
   7  -4   5-114.450 99.6858   8
  -7   4  -5-26.7094 78.8766   4
   7   4  -6 272.188 213.065  18
   7  -4   6 427.741 224.254  14
  -7   4  -6 354.926 211.839  19
  -7   4  -6 205.752 147.321   3
   7   4  -6 451.581 232.570  13
   7  -4   6 464.589 242.055   6
  -7   4  -6 377.877 212.909  12
  -7   4  -6 373.138 215.661   5
   7  -4   6 350.575 186.057   1
   7   4  -6 469.051 192.874   8
  -7  -4   6-94.8473 151.256  17
   7   4  -6 255.821 229.112   1
   7  -4   6 383.902 275.142   8
  -7  -4   6-84.2107 114.579  19
  -7   4  -6 343.290 229.335   4
   7  -4   7 397.150 229.733  14
   7  -4   7 333.595 178.620   1
  -7   4  -7 353.317 222.727   3
   7   4  -7 403.881 220.239  13
   7  -4   7 426.680 215.318   6
  -7   4  -7 309.830 188.283  12
  -7  -4   7 285.256 294.309   2
  -7   4  -7 408.216 232.598   5
  -7  -4   7 272.752 225.912  19
  -7   4  -7 425.905 233.887  19
   7   4  -7 265.962 232.077  18
  -7  -4   7 69.4458 23.9431  17
   7   4  -7 548.312 260.921   8
   7   4  -7 523.970 350.368   1
   7  -4   7 288.927 285.570   8
  -7   4  -7 319.908 220.886   4
  -4   7  -8 1082.05 410.494   3
   7   4  -8 1560.72 450.609  13
   4   7  -8 1196.96 498.701  13
  -7   4  -8 799.366 372.701   3
   7  -4   8 1224.64 431.402   6
  -7   4  -8 923.456 316.189  12
   4  -7   8 40.4312 54.2851   6
   7  -4   8 1270.45 327.959   1
  -4   7  -8 1214.59 351.834  12
  -7  -4   8 779.455 425.608   2
  -7  -4   8 681.172 271.709  19
  -7   4  -8 1140.47 375.866  19
   4   7  -8 864.638 378.816  18
   7   4  -8 1438.36 550.022  18
   7   4  -8 1639.36 405.008   8
  -7  -4   8 649.559 399.258  17
  -7   4  -8 1049.03 385.636   5
  -7   4  -8 1256.12 450.258   4
   7  -4   8 1271.68 519.521   8
   7   4  -8 932.236 420.636   1
   7  -4   8 1283.19 412.717  14
   7   4  -9-43.8098 110.503   3
  -4   7  -9 12.2067 97.0928   3
   7  -4   9-4.50357 33.7228  14
  -7   4  -9-238.344 262.344  13
   4   7  -9-6.35506 35.3197  13
   7  -4   9 5.59003 77.4192   6
   7   4  -9 99.9915 154.490  13
  -7   4  -9 20.6114 129.301   3
   7  -4   9 106.063 139.561   1
   4  -7   9 103.347 164.278   6
  -7   4  -9 42.0806 56.7545  12
  -4  -7   9 15.9028 68.7552   6
  -4   7  -9 1.41343 84.0952  12
   7   4  -9 356.129 572.859  11
   7   4  -9 153.472 263.495  20
  -7   4  -9 75.5240 140.808   5
  -7  -4   9-21.1690 86.0589  19
  -7  -4   9 131.369 172.568   2
  -7   4  -9 11.1518 16.3430  19
   4   7  -9 49.8363 152.227  18
   7   4  -9 2.72919 127.694  18
  -7  -4   9-102.931 208.777  17
   7   4  -9 75.6189 132.494   8
  -7   4  -9 5.17541 67.4917   4
   7  -4   9-80.8557 178.618   8
   7  -4   9-251.332 388.054  16
   7   4  -9 32.2490 12.4308   1
   4   7 -10 1859.70 641.720  13
   7   4 -10 1882.40 535.009  13
  -7   4 -10 63.6932 113.070  13
  -7   4 -10 727.573 317.874   3
   7  -4  10 1421.88 371.155   1
  -4   7 -10 1527.50 443.947  12
   4  -7  10 565.574 322.532   6
  -7   4 -10 1061.19 365.039  12
  -4  -7  10 82.8523 77.9698   6
   7   4 -10 2237.43 836.208  11
  -7   4 -10 446.915 117.508  11
  -7   4 -10 1154.87 409.711   5
   7   4 -10 1342.52 506.820  20
  -7  -4  10 1058.92 342.391  19
  -7   4 -10 1079.32 380.281  19
  -7  -4  10 1098.98 485.007   2
   4   7 -10 1419.79 589.294  18
   7   4 -10 1559.23 546.612  18
   7   4 -10 1409.43 322.912   8
  -4  -7  10 124.193 217.599  17
  -7  -4  10 685.956 342.866  17
  -7   4 -10 922.783 438.797   4
   7  -4  10 1269.28 472.563   8
  -7  -4  10 243.871 58.9742  16
   7  -4  10 970.824 431.603  16
   7   4 -10 1255.52 308.082   3
  -4   7 -10 1546.43 544.510   3
   7  -4  10 1759.14 560.257   6
   7   4 -10 1174.82 497.008   1
   7  -4  10 1674.91 484.816  14
   7  -4  11 855.968 353.142  14
  -4   7 -11 641.618 375.329   3
   4  -7  11 243.880 158.081  14
   7   4 -11 678.844 231.467   3
  -4   7 -11 16.2045 258.122  13
   7  -4  11 738.152 329.264   6
   4   7 -11 889.502 415.746  13
  -7   4 -11 41.5424 34.8793  13
   7   4 -11 1037.47 414.718  13
   4  -7  11 322.937 235.743   6
  -4  -7  11 161.269 124.064   6
  -7   4 -11 329.730 250.693   3
  -7   4 -11 659.230 310.234  12
  -4   7 -11 844.725 361.671  12
  -7  -4  11 196.889 55.3237   5
   7   4 -11 1206.81 545.296  11
  -7   4 -11 488.336 290.197   5
  -7   4 -11 1044.41 500.544  20
   7   4 -11 662.729 361.454  20
  -7   4 -11 15.4744 95.4963  11
  -7  -4  11 507.674 214.302  19
  -7   4 -11 566.898 266.111  19
  -7  -4  11 604.477 352.869   2
   4   7 -11 892.145 414.051  18
   7   4 -11 823.545 451.192  18
  -4  -7  11 30.0529 150.134  17
   7   4 -11 1202.23 521.129  10
  -7   4 -11 521.911 327.104   4
  -7  -4  11 659.940 440.284  17
   7  -4  11 846.691 451.211   8
   7  -4  11 499.743 235.438   1
  -7  -4  11 411.232 220.666  16
   7  -4  11 669.863 394.839  16
   7   4 -11 238.835 110.033   8
  -4   7 -11 461.022 214.443   4
   7   4 -11 482.634 313.856   1
   7  -4  12 442.462 264.510  14
   4   7 -12 442.365 243.463   3
   7   4 -12 123.872 103.368   1
  -4   7 -12 367.350 200.011  18
   4  -7  12 214.846 122.606  14
  -4   7 -12 103.622 53.9616   3
   7  -4  12 579.604 335.145   6
  -4   7 -12 22.8509 86.4763  13
   4   7 -12 445.871 288.385  13
   7   4 -12 380.607 191.036   3
  -7   4 -12 131.353 134.352  13
  -4  -7  12-1.65985 42.7663   6
   7   4 -12 453.335 243.572  13
   4  -7  12 89.0334 37.5997   6
  -7   4 -12 359.399 272.518  12
  -7   4 -12 127.513 178.317   3
  -4   7 -12 295.016 213.380  12
  -7  -4  12 190.036 214.846   5
   7   4 -12 300.472 166.934  11
  -7   4 -12 508.018 337.607  20
   7   4 -12 285.440 296.676  20
  -7   4 -12 564.996 359.039  10
   7   4 -12 526.386 381.678  10
  -7   4 -12 187.878 113.498  19
  -7  -4  12 250.315 123.227  19
   7  -4  12 21.9239 66.6425   1
  -4   7 -12 144.971 67.9794   5
  -7   4 -12 278.018 242.898   4
  -7  -4  12 161.774 152.940   2
   7   4 -12 184.150 97.2870  18
  -4  -7  12 147.887 324.034  17
  -7  -4  12 475.789 298.423  17
   7  -4  12 728.688 451.433   8
  -7  -4  12 141.156 127.102  16
   7  -4  12 296.378 190.971  16
  -4   7 -12 333.829 205.351   4
  -7   4 -12 1164.69 734.012  15
   4   7 -12 165.595 265.544  18
   7   4 -13 1664.83 582.581   1
   4   7 -13 3049.54 823.036  13
   7   4 -13 3209.48 753.701  13
  -4   7 -13 895.698 512.080  13
  -4  -7  13 467.330 226.453   6
  -7   4 -13 400.460 235.382  13
   4  -7  13 1623.61 572.090   6
  -4   7 -13 2036.76 562.473  12
  -7   4 -13 1239.13 486.789  12
  -7   4 -13 935.213 469.347   3
  -4   7 -13 2358.32 385.751   5
   7   4 -13 3392.68 961.017  11
  -7  -4  13 1346.23 548.818   5
   4  -7  13 529.023 118.598   1
  -7  -4  13 2785.33 783.648   2
  -7   4 -13 2074.35 683.123  20
   7   4 -13 1210.11 521.331  20
  -7  -4  13 1096.91 279.910  19
  -7   4 -13 2046.53 515.419  10
   7   4 -13 1793.97 562.356  10
  -7   4 -13 1482.57 446.982  19
   7   4 -13 4139.12 1028.62   9
  -7   4 -13 3019.82 629.352   9
   4   7 -13 1514.03 772.069  18
   7   4 -13 2453.41 737.724  18
  -4   7 -13 2723.00 596.042   4
   7  -4  13 2938.79 778.156   8
  -7   4 -13 969.060 473.340   4
   4  -7  13 1828.86 476.985  17
  -4  -7  13 736.257 508.343  17
  -7  -4  13 2649.90 836.345  17
  -4   7 -13 2392.79 468.575  18
  -7  -4  13 2402.58 571.892  16
   7  -4  13 2194.27 684.735  16
   4  -7  13 53.6786 309.043   8
  -7   4 -13 3312.02 1095.55   7
   7  -4  13 3256.00 802.325   6
   4   7 -13 3087.22 694.575   3
  -7   4 -13 2712.63 1012.55  15
   7  -4  13 3365.63 727.002  14
  -4   7 -13 2274.71 680.852   3
   4  -7  13 1629.87 406.463  14
   7   4 -13 2884.35 512.523   3
   7  -4  14 362.498 267.394  14
   4  -7  14 144.860 118.827  14
   7  -4  14 273.819 245.593   6
   4   7 -14 314.580 217.679   3
   7   4 -14 249.778 237.856   1
  -4  -7  14 99.8658 149.988   6
  -4   7 -14 252.058 237.211   3
  -4   7 -14 129.801 239.274  13
   4   7 -14 279.121 180.213  13
   4  -7  14 60.9145 140.819   6
  -7   4 -14-6.26746 122.388  13
   7   4 -14 634.294 369.475  13
   7   4 -14 337.405 176.817   3
  -7   4 -14 35.8396 130.093  12
  -4   7 -14 377.825 290.940  12
  -7   4 -14 381.078 314.877   3
  -7  -4  14 240.400 265.147   5
   7   4 -14 374.912 366.677  11
  -7   4 -14 217.720 261.256  20
   7   4 -14 349.073 344.789  20
  -7   4 -14 267.557 189.929  10
   7   4 -14 199.692 93.4715  10
   7   4 -14 405.674 314.938   9
  -7  -4  14-126.929 165.342  19
  -4   7 -14 234.757 165.659  18
   4   7 -14 142.794 250.538  18
  -7  -4  14 411.485 300.322   2
   7   4 -14 85.9099 77.7096  18
  -7   4 -14-183.925 355.792   4
   4  -7  14 178.682 167.431  17
  -4  -7  14 299.682 354.243  17
  -7  -4  14 67.7858 238.261  17
   7  -4  14 374.298 254.952   8
  -7   4 -14 72.0977 25.4923  19
  -4   7 -14 320.934 228.499   4
  -7  -4  14 300.490 229.622  16
   7  -4  14 351.222 345.656  16
  -7   4 -14 290.305 288.046   9
  -7   4 -14 372.296 385.219   7
  -7   4 -14 301.255 261.182  15
   4  -7  15 934.660 314.050  14
   7  -4  15 1454.97 601.092   6
  -4  -7  15 67.2829 269.810   6
   4   7 -15 1086.39 436.921   3
  -4   7 -15 310.048 275.598  13
   4  -7  15 796.722 359.273   6
  -4   7 -15 822.046 437.296   3
   7   4 -15 763.767 422.849   1
   4   7 -15 1257.56 520.417  13
  -7   4 -15 263.319 356.093  13
  -7   4 -15 669.899 494.237  12
  -4   7 -15 983.779 403.597  12
  -7   4 -15 521.405 431.789   3
  -7  -4  15 881.578 518.328   5
   7   4 -15 844.556 496.092  11
  -7   4 -15 1303.49 590.597  20
  -7   4 -15 881.516 391.163  10
   7   4 -15 309.155 270.435  10
   7   4 -15 740.456 473.814   9
  -7   4 -15 342.803 273.180  19
  -7   4 -15 843.586 369.675   9
  -4   7 -15 1185.82 329.903  18
   4   7 -15 774.660 597.312  18
   7   4 -15 980.695 403.454  18
  -7  -4  15 1443.86 757.871   2
  -7  -4  15 2294.33 1079.17  17
   4  -7  15 1224.71 411.511  17
  -4  -7  15 450.365 579.504  17
  -4   7 -15 947.752 363.713   4
   7  -4  15 1338.57 541.199   8
   4  -7  15-885.299 488.556  16
   7  -4  15 1045.29 523.318  16
   4  -7  15 143.068 163.294   8
  -7   4 -15 1308.83 781.258   7
  -7   4 -15 1329.99 763.430  15
   7   4 -15-90.4605 294.896  20
   7  -4  15 1613.89 578.979  14
   7   4 -15 1409.34 415.205   3
   4  -7  16 478.573 235.289  14
   7  -4  16 556.531 400.805   6
  -4  -7  16-35.4707 130.555   6
   4   7 -16 483.840 271.656   3
   4  -7  16 373.043 378.902   6
  -4   7 -16 281.491 96.5097  13
   4   7 -16 550.827 314.953  13
  -4   7 -16 331.219 296.956   3
  -7   4 -16 168.162 228.841  13
   7   4 -16 169.506 182.794   1
  -4  -7  16 99.0116 267.342  17
  -7   4 -16 373.575 397.168  12
  -4   7 -16 503.485 316.423  12
   7   4 -16 474.116 197.273   3
   4   7 -16 142.632 138.502  12
  -7   4 -16 212.090 269.868   3
   4   7 -16 1493.41 888.252  11
  -4   7 -16 1451.24 525.475  11
  -7  -4  16 254.477 192.580   5
   7   4 -16 396.093 243.586  11
  -7   4 -16 94.2342 132.000  20
   7   4 -16-483.868 640.839  20
  -7   4 -16 90.0677 141.577  10
   7   4 -16-112.929 248.439  10
  -7   4 -16 213.999 139.698  19
  -7   4 -16-188.346 310.208   9
   4   7 -16 148.236 340.092  18
  -4   7 -16 581.633 241.699  18
   7   4 -16 173.444 241.130   9
   7   4 -16 210.069 197.119  18
  -7  -4  16 423.073 363.633   2
  -4   7 -16 413.281 211.945   4
   4  -7  16 698.658 326.931  17
  -7  -4  16 499.964 458.255  17
   7  -4  16 609.519 422.758   8
  -4  -7  16-844.928 598.199  16
   4  -7  16-21.7492 360.581  16
   7  -4  16 493.085 339.849  16
  -7  -4  16 763.734 432.590  16
   4  -7  16 126.374 170.888   8
  -7   4 -16 164.308 220.611   7
   4   7 -16 579.860 491.606   7
  -7   4 -16-6.24367 142.413  15
   4   7 -16 382.567 391.325  15
   7  -4  16 323.217 273.725  14
  -7   5  -3-163.845 233.212  19
   7  -5   3 94.1978 134.177   6
   7   5  -3-66.0115 197.746  18
   7  -5   4 39.3707 50.8636  14
   7  -5   4 96.6140 130.553   6
   7   5  -4 236.750 271.850  18
  -7   5  -4 140.762 113.158  12
   7  -5   4 30.4876 77.3379   1
   7   5  -4 230.347 294.629   1
  -7   5  -4 14.5042 109.435  19
  -7   5  -4-121.557 270.122   5
  -7  -5   4-24.6121 39.1112  17
   7  -5   4 23.9775 192.016   8
  -7   5  -4-429.842 245.245   4
   7  -5   5 67.8668 85.7644  14
   7   5  -5-117.161 246.511  13
   7  -5   5-26.7507 15.7545   1
   7  -5   5 2.31904 99.0071   6
  -7   5  -5 57.4439 57.6160  12
  -7  -5   5-362.306 360.034  19
   7   5  -5 31.8866 121.417   1
  -7   5  -5 19.9679 62.2542  19
  -7   5  -5-75.0804 154.565   5
   7   5  -5-29.5032 139.394  18
   7   5  -5-28.5406 54.9285   8
  -7  -5   5-2.67388 51.8553  17
   7  -5   5-15.9791 115.445   8
  -7   5  -5-83.5674 153.459   4
  -7   5  -6-26.8935 93.8724   3
  -7  -5   6-105.903 113.306  19
   7  -5   6 179.617 186.378  14
   7   5  -6 214.987 183.454  13
   7  -5   6 82.6717 63.0341   1
   7  -5   6 47.6549 101.760   6
  -7   5  -6 88.2843 81.7707  12
  -7   5  -6 143.528 104.783   5
  -7   5  -6 108.103 104.904  19
   7   5  -6-83.9171 245.484   1
   7   5  -6 223.489 200.570   8
  -7  -5   6 308.302 304.591  17
   7  -5   6 98.7811 45.0170   8
  -7   5  -6 150.467 156.596   4
   7   5  -6 205.267 282.026  18
  -7   5  -7 23.9704 20.4969   3
   7  -5   7 152.340 169.634  14
   7   5  -7 19.6983 118.177  13
   7  -5   7 70.6334 127.322   6
  -7   5  -7-29.6780 104.955  12
   7  -5   7 19.7049 74.8715   1
  -7  -5   7-55.9294 111.894  19
  -7   5  -7 78.8207 133.821  19
   5   7  -7-361.217 588.943  18
   7   5  -7 99.6372 149.997   1
   7   5  -7 226.207 248.609  18
   7   5  -7 2.73053 127.999   8
  -7  -5   7 12.0916 224.648  17
   7  -5   7 69.7674 97.8158   8
  -7   5  -7 39.9727 113.519   5
  -7   5  -7 46.4119 86.9207   4
  -5   7  -8 17.8349 164.848   3
   7  -5   8 123.460 111.136  14
  -7   5  -8 71.1733 35.4208   3
   5   7  -8-1.91988 197.161  13
   7   5  -8 146.448 199.942  13
   7  -5   8 136.982 139.480   6
   5  -7   8-42.7857 79.9157   6
  -7   5  -8 90.4250 54.6170  12
  -5   7  -8 92.8738 71.6708  12
  -7  -5   8-103.705 153.506  19
  -7   5  -8 9.16025 63.9367  19
  -7   5  -8 188.571 153.590   5
   5   7  -8 82.7688 220.298  18
   7   5  -8 261.423 289.633  18
   7  -5   8 40.7262 59.2508   1
   7   5  -8-49.5641 141.969   1
   7   5  -8 82.4330 48.2894   8
  -7  -5   8 349.922 338.818  17
   7  -5   8 113.979 140.416   8
  -7   5  -8 38.3058 78.3963   4
  -5   7  -9 179.237 157.545   3
   7  -5   9 291.765 220.136  14
   7  -5   9 261.548 146.033   1
  -7   5  -9 121.049 130.009   3
   5   7  -9 425.247 289.940  13
   7   5  -9 424.128 259.052  13
   7  -5   9 437.862 296.131   6
   5  -7   9 136.657 165.647   6
  -7   5  -9 127.655 95.5286  12
  -5  -7   9 8.46420 116.993   6
  -5   7  -9 353.104 201.553  12
   5   7  -9 367.483 335.232  18
  -7  -5   9 255.574 189.392  19
  -7   5  -9 311.915 212.071  19
   7   5  -9 381.498 310.899  18
   7   5  -9 183.129 237.931   1
  -5  -7   9 27.5830 199.223  17
  -7  -5   9 143.017 271.669  17
   7   5  -9 488.173 229.356   8
  -7   5  -9 280.513 137.345   5
  -7   5  -9 408.412 290.921   4
   7  -5   9 249.213 209.195   8
   7  -5  10 247.567 172.586  14
  -5   7 -10 87.8914 129.620   3
   5  -7  10 59.6189 100.016  14
  -7   5 -10-340.147 410.508  13
   5   7 -10 352.095 293.235  13
  -7   5 -10-68.6883 155.830   3
   7  -5  10 100.584 88.9540   6
   7   5 -10 148.696 172.907  13
   5  -7  10 102.409 203.782   6
  -5  -7  10-30.0418 87.5587   6
  -7   5 -10 141.803 146.618  12
  -5   7 -10 163.690 148.939  12
  -7   5 -10 206.968 202.694   5
  -7  -5  10 204.628 321.261   2
   5   7 -10 193.177 280.732  18
  -7  -5  10 192.122 225.323  19
  -7   5 -10 185.474 155.005  19
   7   5 -10 215.118 205.426  18
   7  -5  10 168.301 88.9467   1
  -5  -7  10 83.2405 268.889  17
   7   5 -10 81.7963 181.940   1
  -7  -5  10 666.216 537.319  17
   7   5 -10 262.459 167.338   8
  -7   5 -10-15.3403 138.214   4
   7  -5  10 121.889 62.5113   8
  -5   7 -10-29.0855 172.302   4
   7   5 -11 26.0222 79.9648   3
   7  -5  11-6.00162 89.6667  14
  -5   7 -11 224.794 259.797   3
   5  -7  11 21.6220 62.2281  14
  -7   5 -11-72.2438 174.549  13
   5   7 -11-22.8437 98.5543  13
   7  -5  11 55.3026 166.446   6
  -7   5 -11 54.4227 164.511   3
   7   5 -11 71.2645 113.540  13
  -7  -5  11 25.9157 106.218  19
   5  -7  11-4.70900 114.325   6
  -5  -7  11 74.7448 142.104   6
   7  -5  11 80.5770 98.8539   1
  -7   5 -11 285.610 224.637  12
  -5   7 -11 115.766 129.725  12
   7   5 -11 437.610 585.803  11
  -7   5 -11 56.4609 69.2295  11
   7   5 -11 163.474 356.659  20
  -7   5 -11 169.327 221.885   5
  -7  -5  11 260.116 321.199   2
  -7   5 -11 1.08031 61.0442  19
  -5   7 -11-134.609 189.137   5
   5   7 -11 9.37895 133.726  18
   7   5 -11-157.591 176.343  18
  -5  -7  11-69.6453 226.565  17
  -7  -5  11 301.414 224.143  17
   7   5 -11 34.4014 51.6481   1
  -7   5 -11-40.6940 78.7026   4
   7   5 -11 56.5855 43.3854   8
   7  -5  11-420.318 496.400  16
   7  -5  11 76.2124 250.006   8
  -5   7 -11-19.0114 101.662   4
   7  -5  12 1139.43 403.171  14
   5  -7  12 655.387 285.309  14
  -5   7 -12 1071.57 459.110   3
  -5   7 -12-100.276 319.596  13
   7  -5  12 1092.70 452.134   6
  -7   5 -12-97.5626 144.401  13
   5   7 -12 1303.31 519.055  13
  -5  -7  12 185.178 150.036   6
   7   5 -12 1568.85 538.330  13
  -7   5 -12 741.735 374.054   3
   5  -7  12 524.479 342.417   6
  -7   5 -12 609.488 331.066  12
  -5   7 -12 976.389 378.672  12
  -5   7 -12 944.802 299.407   5
   7   5 -12 1804.31 770.919  11
  -7  -5  12 509.305 195.666  19
  -7   5 -12 746.715 351.180   5
   7   5 -12 973.424 487.498  20
  -5  -7  12-3.31524 71.3563  19
  -7  -5  12 771.900 442.066   2
  -7   5 -12 1065.41 330.976  19
  -5   7 -12 536.426 236.351  18
   5   7 -12 1044.98 464.973  18
   7   5 -12 1083.21 511.264  18
  -5  -7  12 104.383 285.876  17
  -7  -5  12 628.081 435.412  17
  -7   5 -12 826.353 427.959   4
   7   5 -12 612.645 373.292   1
   7  -5  12 892.341 405.499   8
  -7  -5  12 22.4280 283.902  16
   7  -5  12 464.073 226.419  16
  -5   7 -12 919.174 365.150   4
   7  -5  12 710.598 264.099   1
   5   7 -12 858.795 348.762   3
   7   5 -12 1019.43 305.065   3
   5  -7  12 325.959 130.416   1
   7  -5  13 51.4389 34.6881  14
   5   7 -13 38.7515 57.8667   3
   5  -7  13 72.8531 115.170  14
   7   5 -13-7.61990 36.1331   3
  -5   7 -13 207.922 175.491   3
   7  -5  13 22.1211 45.6607   6
  -5   7 -13-105.194 251.104  13
  -5  -7  13 19.0513 51.8534   6
  -7   5 -13-6.25672 36.0879  13
   5   7 -13 65.3910 88.0330  13
  -5   7 -13 96.7843 127.693  18
   5  -7  13 123.863 238.480   6
   7   5 -13-57.0718 61.7932  13
  -7   5 -13 140.540 178.859   3
  -7   5 -13-19.3207 24.0715  12
  -5   7 -13 66.0111 77.2162  12
  -7   5 -13-40.2986 164.430   5
   7   5 -13 114.452 296.909  11
  -7   5 -13 570.896 501.575  20
   7   5 -13-50.7654 221.937  20
   7   5 -13 794.797 608.187  10
  -5   7 -13 31.7876 42.2521   5
  -7  -5  13 58.4055 89.7237  19
  -7  -5  13-188.225 361.918   2
  -7   5 -13 89.1972 150.468  19
   5   7 -13 135.119 238.554  18
   7  -5  13-24.4443 29.4418   1
   7   5 -13-0.47453 108.194  18
   5  -7  13 17.3132 113.639  17
  -5  -7  13 96.9529 190.758  17
  -7   5 -13 141.018 258.264   4
  -7  -5  13 187.589 275.991  17
   7  -5  13 116.548 306.640   8
  -7  -5  13-437.162 346.137  16
  -5   7 -13-63.0617 62.2597   4
   7  -5  13 233.694 315.678  16
   7   5 -13 119.921 179.460   1
   5  -7  13-115.897 295.101   8
   7  -5  14 1385.48 474.409  14
   5  -7  14 1012.80 346.119  14
  -5  -7  14 64.5760 280.452   6
   7  -5  14 1186.93 518.779   6
  -5   7 -14 480.423 488.783  13
  -5   7 -14 1459.51 622.015   3
  -7   5 -14-90.2064 156.778  13
   5  -7  14 1073.38 489.206   6
   5   7 -14 1407.82 657.973  13
  -7   5 -14 1403.01 553.451  10
  -5   7 -14 1519.50 591.099  12
  -7   5 -14 592.654 397.352   3
  -7   5 -14 811.476 426.309  12
   7   5 -14 1507.00 812.355  11
  -7  -5  14 1526.42 1058.91   2
  -7   5 -14 1184.70 554.897  20
   7   5 -14 1319.15 812.091  20
   7   5 -14 1110.66 706.167  10
   5   7 -14 632.431 495.194  18
  -5   7 -14 1466.28 565.240   4
   7   5 -14 1448.56 652.791  18
  -7   5 -14 458.787 324.981   4
   5  -7  14 897.260 331.716  17
  -5  -7  14 1149.70 798.506  17
   7  -5  14 1186.13 448.294   8
   7  -5  14 851.480 458.019  16
   5  -7  14 297.551 202.469   8
   7   5 -14 762.791 548.987   1
  -7   5 -14 810.295 321.863  19
   5   7 -14 1291.97 475.713   3
  -7   5 -14 2040.91 995.074  15
   7  -5  15 28.9277 78.6236  14
   5  -7  15 18.6093 73.5170  14
  -5  -7  15-40.1761 166.057   6
   5   7 -15 172.628 163.470   3
   7  -5  15-112.520 225.888   6
  -5   7 -15-80.2680 240.710  13
   5  -7  15 19.1042 65.9858   6
  -5   7 -15-210.458 329.454   3
  -7   5 -15-134.376 224.727  13
   5   7 -15 277.226 354.877  13
   7   5 -15 797.556 557.449  13
  -7   5 -15-40.0317 68.6530   3
  -7   5 -15-116.662 136.576  12
  -5   7 -15-60.5736 171.419  12
   7   5 -15-311.799 122.267  10
   7   5 -15-199.715 147.242  11
  -7   5 -15-153.984 233.134  20
  -7   5 -15-37.1817 143.409  19
  -7   5 -15 965.890 473.313   9
  -7   5 -15-73.2533 71.3391  10
   7   5 -15-58.4659 378.560  20
  -7  -5  15 1072.83 751.507   2
   5   7 -15 16.2441 110.833  18
   7   5 -15-15.1931 149.508  18
  -7   5 -15-265.854 314.045   4
  -5  -7  15 1096.78 608.958  17
  -7  -5  15 1107.27 850.308  17
  -5   7 -15 193.950 254.972   4
   7  -5  15-2.66191 191.740   8
  -7  -5  15 1868.80 713.280  16
   5  -7  15-664.076 662.883  16
   7  -5  15-219.597 392.299  16
   5  -7  15-50.8702 160.825   8
   7   5 -15-192.410 240.215   1
  -7   5 -15 1066.10 756.187   7
  -7   5 -15 702.269 687.727  15
   7   5 -15 1007.52 457.389   3
  -7   5 -16 74.9736 77.9449  12
  -5   7 -16 386.765 285.459  12
  -7   5 -16-105.518 167.210  19
  -5  -7  16 87.0367 212.742  17
  -7  -5  16 625.734 518.764  17
   7   6  -4-165.550 372.181  18
   7  -6   5 126.195 164.150   6
   7   6  -5 234.918 280.136  18
   7  -6   6 74.9182 125.306  14
   7  -6   6 48.1931 115.636   6
  -7   6  -6-18.2386 70.8748  12
   6   7  -6-247.907 557.159  18
   7   6  -6 187.397 325.883  18
  -7   6  -6-301.296 286.600   5
  -7  -6   6 70.4433 356.232  17
  -7   6  -6-148.329 225.069   4
  -7   6  -7 305.851 219.828   3
   7  -6   7 263.618 153.746   1
   7  -6   7 382.626 228.135  14
   7   6  -7 570.480 279.439  13
   7  -6   7 374.712 274.311   6
  -7   6  -7 802.087 324.868  12
   7   6  -7 102.844 159.827   1
  -7  -6   7-239.018 286.814  19
  -7  -6   7 123.233 189.371  17
  -7   6  -7 457.823 179.868  19
  -7   6  -7 462.597 196.285   5
   7   6  -7 530.002 417.334  18
   7   6  -7 386.642 11.3014   8
   7  -6   7 70.4753 211.373   8
   6   7  -7 273.611 224.520  18
  -7   6  -7 491.482 268.173   4
  -7   6  -8-30.4777 74.2325   3
   6   7  -8 46.8339 216.356  18
   7  -6   8 30.7022 111.422  14
   6   7  -8-195.354 298.000  13
   7   6  -8 87.4423 161.205  13
   7  -6   8 199.594 202.196   6
   6  -7   8 59.7046 168.312   6
   7  -6   8-47.2126 95.8495   1
  -7  -6   8 3.24172 5.86189   6
  -7   6  -8-6.06175 50.1677  12
  -6   7  -8-6.64790 94.5388  12
   7   6  -8 75.1694 147.166   1
  -7  -6   8 164.613 204.551  19
  -7   6  -8-93.2443 174.531  19
  -7   6  -8 28.4122 77.0129   5
   7   6  -8 35.0663 199.088  18
   7   6  -8 91.4305 155.478   8
  -6  -7   8-211.083 304.887  17
  -7  -6   8 578.300 496.769  17
   7  -6   8-24.1102 144.979   8
  -7   6  -8 6.77166 93.7224   4
  -6   7  -9 63.1781 114.800   3
  -7   6  -9-8.27179 139.538   3
   7  -6   9 53.8397 114.344  14
   6  -7   9 105.070 148.052  14
   6   7  -9 173.891 158.189  13
   7   6  -9 135.335 175.207  13
  -7  -6   9 36.2868 48.5481   6
   7  -6   9 91.9702 63.5064   6
   6  -7   9-10.2827 103.645   6
   7  -6   9 78.1119 106.605   1
  -6  -7   9-16.3954 46.0319   6
  -7   6  -9 133.258 176.191  12
  -6   7  -9 152.108 169.051  12
  -7   6  -9 93.8747 143.835   5
  -7  -6   9 15.8685 122.095  19
   7   6  -9 138.445 161.817   1
  -7   6  -9 59.5480 52.0793  19
   6   7  -9 145.212 174.943  18
   7   6  -9 114.565 161.447  18
   7   6  -9 266.445 251.438   8
  -7  -6   9 291.127 286.253  17
  -6  -7   9-160.546 263.974  17
   7  -6   9-29.6559 113.195   8
  -7   6  -9 40.3795 126.777   4
  -6   7  -9-43.1524 146.819   4
  -6   7 -10 8.08470 80.8520   3
   7  -6  10 45.0783 126.213  14
   6  -7  10-30.7288 106.453  14
  -7   6 -10-14.4591 158.537   3
  -7  -6  10 43.9262 67.6774   6
   6   7 -10-92.4580 171.859  13
   7   6 -10 79.8985 109.154  13
   7  -6  10 34.9413 111.946   6
   6  -7  10 103.347 207.820   6
  -6  -7  10 20.6987 54.5437   6
  -7   6 -10 45.9298 95.7690  12
  -6   7 -10 22.1355 62.8681  12
  -6  -7  10-417.928 369.383  19
  -7  -6  10-159.681 112.725  19
   7  -6  10-14.3222 57.4145   1
  -7   6 -10-9.77550 56.0544  19
  -6   7 -10-69.5122 143.217   5
   6   7 -10 199.074 326.301  18
   7   6 -10 0.74411 93.2100  18
   7   6 -10-10.5463 49.9898   1
  -6  -7  10 75.6186 140.515  17
  -7  -6  10-41.4752 233.860  17
   7   6 -10 3.97827 57.3180   8
  -7   6 -10 0.92462 176.573   4
   7  -6  10 90.2791 189.435   8
  -6   7 -10 22.0534 136.454   4
  -7   6 -10-22.5723 104.199   5
   7  -6  11 23.3564 41.0147  14
  -6   7 -11 134.785 174.976   3
   6  -7  11 64.0044 143.986  14
  -7   6 -11-11.8591 152.692   3
   6   7 -11 102.132 168.353  13
   7   6 -11 314.402 260.542  13
   7  -6  11 241.128 248.706   6
  -6  -7  11 50.3298 95.1826   6
   6  -7  11 119.103 199.101   6
  -7   6 -11 32.4617 103.725  12
  -6   7 -11-7.94249 100.411  12
   7   6 -11-123.587 161.740   1
   6  -7  11-41.9617 72.8665   1
  -7   6 -11-3.84490 76.1517  19
  -6  -7  11 62.6977 152.453  19
  -7   6 -11 100.376 168.340   5
  -7  -6  11-215.866 69.1097  19
  -6   7 -11-20.1850 57.3537   5
   6   7 -11 3.60694 95.6136  18
   7   6 -11-10.2186 136.255  18
  -6  -7  11 306.054 434.732  17
  -7  -6  11 245.688 332.997  17
  -7   6 -11 94.0959 128.128   4
   7  -6  11-54.0448 66.5499   8
  -6   7 -11 157.900 196.500   4
   7  -6  11 43.9237 94.6323   1
   7  -6  12-51.2305 120.141  14
   6  -7  12 42.2371 98.4448  14
  -6   7 -12 66.9302 43.4062   3
  -7   6 -12-368.848 401.894  13
  -7   6 -12 14.0879 61.1012   3
  -6  -7  12 52.2617 49.3204   6
   6   7 -12 118.902 133.898  13
   7  -6  12 4.12492 62.2284   6
   7   6 -12 49.0654 111.597  13
   6  -7  12-154.457 182.323   6
  -7   6 -12 4.06491 25.4001  19
  -7   6 -12 78.9808 120.340  12
  -6   7 -12-51.1584 189.075  12
  -6   7 -12 37.0695 11.2426   5
  -7   6 -12 102.731 162.609   5
  -6  -7  12 73.3934 109.197  19
  -7  -6  12 88.5363 108.848  19
   7   6 -12 0.07280 119.899   1
   6   7 -12 53.0789 115.150  18
   7   6 -12-96.0332 223.900  18
   7  -6  12 43.3189 77.9842   1
   6  -7  12 99.4639 132.878  17
  -6  -7  12 283.231 390.891  17
  -7  -6  12-107.612 143.673  17
  -7   6 -12 132.650 163.814   4
   7  -6  12 63.0419 43.9267   8
  -6   7 -12 8.70644 64.4893   4
   6  -7  12-126.058 336.261   8
   6  -7  12 3.20127 41.4916   1
   6   7 -13 159.130 107.583   3
   7  -6  13 754.003 326.254  14
   6  -7  13 553.407 256.241  14
  -6  -7  13 64.2658 171.064   6
   7   6 -13 1975.83 781.117  13
  -6   7 -13 588.046 381.092   3
  -6   7 -13-230.521 368.643  13
  -7   6 -13-113.319 209.330  13
   7  -6  13 623.945 412.118   6
  -7   6 -13 430.209 356.191   3
   6   7 -13 966.386 424.739  13
   6  -7  13 417.245 298.340   6
  -7   6 -13 474.585 371.368  12
  -6   7 -13 354.553 161.490  12
   7   6 -13 1844.91 979.942  11
  -7   6 -13 570.948 307.596   5
  -7  -6  13 281.587 174.993  19
  -7   6 -13 435.173 253.172  19
   6   7 -13 320.540 262.924  18
   7   6 -13 520.387 443.920  18
   7   6 -13 449.617 268.913   1
  -6  -7  13 682.653 678.569  17
  -7  -6  13 1371.97 909.917  17
   7   6 -13 556.119 103.896  20
  -7   6 -13 488.963 312.868   4
  -6   7 -13 323.315 227.048   4
   7  -6  13 380.331 199.679   8
   6  -7  13 228.574 254.497   8
   6   7 -14 9.24245 81.4687   3
   7  -6  14-33.4585 101.519  14
   7   6 -14 141.207 129.301   3
   6  -7  14-37.6710 17.0530  14
  -6   7 -14-164.422 198.929  13
  -6   7 -14-37.8106 131.910   3
   7  -6  14 11.2301 106.837   6
  -7   6 -14-167.959 288.000  13
   6  -7  14 49.6520 228.064   6
   6   7 -14-87.0698 158.971  13
   7   6 -14 51.3539 206.489  13
  -7   6 -14 234.478 274.088   3
  -7   6 -14-128.713 224.344  12
  -6   7 -14 28.2602 110.859  12
   7   6 -14 124.899 497.351  11
   6   7 -14-204.218 372.796   1
   7   6 -14-92.7138 304.890  20
  -7  -6  14 61.4265 249.140   2
  -7   6 -14-7.70520 79.7732  19
   6   7 -14 32.5928 43.3842  18
   7   6 -14 150.085 220.386  18
   7   6 -14-35.9871 153.050   1
  -6  -7  14 368.552 435.919  17
  -7  -6  14 279.442 153.073  17
  -7   6 -14 52.0515 65.4953   4
  -6   7 -14-7.08925 97.0407   4
   7  -6  14-431.342 663.890  16
   7  -6  14-41.9462 280.789   8
   6  -7  14 8.66968 93.8060   8
   7   7  -5-125.948 551.010  18
   7   7  -6 630.775 406.801  18
   7  -7   7 149.010 209.025   6
  -7   7  -7-402.383 252.534  12
   7   7  -7 144.086 149.559  18
  -7  -7   7 334.836 412.229  17
   7   7  -8 1654.69 538.884  13
  -7   7  -8 1299.71 464.980  12
   7  -7   8 290.035 232.740   6
   7   7  -8 1493.76 636.317  18
  -7  -7   8 216.784 278.780  17
  -7   7  -8 698.792 336.366   4
  -7   7  -9 32.6049 108.057   3
   7  -7   9-7.23675 85.9302  14
   7   7  -9 1.01113 80.9759  13
   7  -7   9 52.4530 152.595   6
  -7  -7   9-13.5115 57.5641   6
  -7   7  -9 33.9944 78.1219  12
  -7  -7   9-251.336 332.284  19
  -7   7  -9-94.6007 184.870   5
   7   7  -9-109.196 53.0732  18
   7   7  -9-88.1657 282.501   8
  -7  -7   9 209.275 278.547  17
  -7   7  -9-40.4486 50.6786   4
  -7   7 -10 105.336 165.497   3
   7  -7  10 61.6751 70.1267   1
   7  -7  10 96.5877 129.862  14
   7   7 -10 523.120 319.710  13
   7  -7  10 108.871 154.673   6
  -7  -7  10 33.2458 67.6161   6
  -7   7 -10 291.630 238.057  12
  -7  -7  10-23.8010 73.8152  19
  -7   7 -10 113.033 132.812   5
   7   7 -10 337.975 376.630  18
  -7  -7  10 13.8882 193.492  17
   7  -7  10-142.210 356.169   8
  -7   7 -10 176.411 202.690   4
  -7   7 -11 185.955 267.804   3
   7  -7  11-58.2445 64.0777  14
   7   7 -11-28.6188 91.6610  13
   7  -7  11-64.0297 75.9085   6
  -7   7 -11-92.6532 12.0544  12
   7   7 -11 14.8304 114.581  18
  -7  -7  11 141.727 156.317  19
  -7   7 -11-22.2140 108.184   5
  -7  -7  11-20.1880 301.881  17
  -7   7 -11-53.6367 158.011   4
   7  -7  11-162.463 335.792   8
   7  -7  11 8.85614 79.7296   1
   7  -7  12 111.797 63.0849  14
  -7   7 -12-1.58242 95.6092   3
   7   7 -12-117.999 198.318  13
   7  -7  12 113.453 213.577   6
  -7  -7  12 218.578 177.490  19
  -7   7 -12-79.2938 145.792  12
   7   7 -12-271.187 463.172   1
   7   7 -12 221.660 403.486  18
  -7   7 -12-27.7650 110.117   5
  -7  -7  12 135.235 189.332  17
  -7   7 -12 68.5749 186.555   4
   7  -7  12-35.2030 175.097   8
   7  -7  13-141.942 161.677  14
  -7   7 -13-42.0556 192.659   3
   7   7 -13-86.3233 159.802  13
   7  -7  13 54.1694 216.162   6
  -7   7 -13-71.4714 159.878  12
   7   7 -13 156.012 215.345  18
  -7  -7  13-50.1931 268.607  17
   7   7 -13 52.5230 47.6843   1
  -7   7 -13-40.8089 154.920   4
   7  -7  13-116.485 218.656   8
  -8   0   0-22.3868 57.5683   3
   8   0   0 135.179 103.852  14
   8   0   0 274.609 141.562   6
  -8   0   0 63.0665 69.9297  12
   8   0   0 142.660 110.442  11
   8   0   0 136.682 136.322   1
  -8   0   0 172.627 192.718   5
  -8   0   0 119.011 97.2708  19
  -8   0   0 172.409 138.321   2
   8   0   0 87.3448 27.1294  18
  -8   0   0 33.4490 82.6998  17
  -8   0   0 231.157 205.727   4
   8   0   0 209.506 193.177   8
   8   0   1 25.1843 90.0474  14
   8   0  -1-84.1780 126.114  14
   8   0   1-95.0458 106.404   6
   8   0  -1-9.90989 42.6103   6
  -8   0  -1-58.8663 74.2136   3
   8   0  -1-13.2615 30.7074  13
  -8   0  -1 1.64639 107.293  12
   8   0   1 46.9080 110.357   1
  -8   0   1-107.168 94.4644  12
   8   0   1-161.462 127.987  11
   8   0  -1-138.558 163.117  11
  -8   0  -1-34.1921 133.398   5
  -8   0   1-21.8670 44.1693   5
  -8   0  -1 27.8701 67.3801   2
  -8   0  -1 39.7312 130.652  19
   8   0  -1-19.7585 43.0063   1
  -8   0   1-55.2803 74.4210  19
   8   0   1-28.5841 76.0908  18
  -8   0   1-43.6829 23.4038   2
   8   0  -1-47.5193 115.955  18
  -8   0  -1 114.782 169.746   4
  -8   0  -1-135.159 143.594  17
  -8   0   1-153.941 177.781  17
   8   0   1-48.9617 110.251   8
  -8   0   1 28.9417 143.120   4
   8   0  -1-147.904 107.124   8
  -8   0  -1 188.308 251.669   7
  -8   0  -1 160.894 288.045  15
   8   0   2 573.692 282.659  14
   8   0  -2 738.464 297.805  14
   8   0   2 659.736 266.815   6
   8   0   2 902.042 404.893   1
  -8   0  -2 198.008 90.3458   3
  -8   0  -2 373.034 226.087  12
  -8   0   2 318.330 141.224  12
   8   0   2 829.154 250.269  11
  -8   0  -2 425.754 274.932   5
   8   0  -2 250.074 180.307  11
  -8   0  -2 350.207 156.815  19
  -8   0   2 767.941 377.558   5
  -8   0   2 632.975 349.521  19
   8   0   2 821.795 254.926  18
   8   0  -2 590.936 270.642  18
   8   0  -2 701.924 332.290   1
  -8   0   2 702.986 237.897   2
  -8   0  -2 257.953 233.778   4
  -8   0  -2 277.815 211.748  17
   8   0   2 881.532 429.466   8
  -8   0   2 350.177 263.816  17
  -8   0   2 521.748 292.965   4
   8   0  -2 883.694 347.648   8
  -8   0  -2 407.497 235.746   7
  -8   0  -2 433.821 204.206  15
   8   0  -2 884.764 242.388   6
   8   0   3-69.6428 119.924  14
   8   0  -3-53.1754 74.6604  14
  -8   0  -3-217.370 255.020  19
   8   0   3 35.2121 175.566   6
   8   0  -3-50.9497 69.8698   6
  -8   0  -3 32.3809 135.643   3
   8   0   3-65.8372 202.874  11
  -8   0  -3-195.649 173.304   5
   8   0  -3-250.949 81.8773  11
  -8   0   3-62.3929 40.8270   5
  -8   0   3 255.029 207.627  19
   8   0   3-20.0455 115.015  18
   8   0  -3 4.67770 86.3199  18
  -8   0  -3-74.9776 75.5417   4
  -8   0  -3-19.8364 98.2954  17
   8   0   3-62.4145 65.5812   8
  -8   0   3-113.230 118.596   2
  -8   0   3 48.3769 78.9082  17
   8   0  -3 130.018 227.156   1
  -8   0   3-87.5289 121.978   4
   8   0  -3-69.6415 130.153   8
   8   0   3-14.0879 65.8240  16
  -8   0  -3-91.3987 148.799   7
  -8   0  -3-31.1113 102.176  15
   8   0   3-65.5812 65.2711   1
   8   0   4 451.242 312.768  14
   8   0  -4 434.713 306.980  14
   8   0   4 440.892 309.596   6
   8   0  -4 466.431 167.323   6
   8   0   4 1354.66 311.005  11
  -8   0  -4 15.0401 58.8041   5
   8   0  -4 745.306 381.976  11
  -8   0   4 612.473 362.308   5
  -8   0  -4 346.867 317.903  19
   8   0   4 278.159 218.694  18
   8   0  -4 268.590 270.825  18
  -8   0  -4 1775.00 404.371  17
  -8   0  -4 41.2063 205.614   4
   8   0   4 257.907 266.317   8
  -8   0   4 906.265 367.094  19
  -8   0   4 955.528 470.432  17
  -8   0   4 582.960 256.500   2
   8   0  -4 811.260 432.079   8
  -8   0   4 435.130 319.317   4
   8   0   4 174.370 129.161  16
   8   0   4 217.569 228.218   1
  -8   0  -4 144.940 50.0582   7
  -8   0  -4 108.031 110.261  15
   8   0  -4 492.833 283.105   1
   8   0   5 115.958 71.3728  14
   8   0   5 278.461 221.477   6
   8   0  -5 225.971 204.227  14
   8   0  -5 84.1692 143.816   1
   8   0  -5 122.911 102.594   6
  -8   0  -5 194.561 252.030  19
   8   0  -5 233.199 142.324  11
  -8   0   5 113.124 172.994   5
  -8   0   5 15.9091 102.480  19
   8   0   5 195.394 136.375  18
   8   0  -5 98.8058 78.2178  18
  -8   0  -5-36.4375 138.544   4
  -8   0  -5 80.9900 231.015  17
   8   0   5 258.517 260.158   8
   8   0   5 203.398 226.335   1
  -8   0   5 341.048 297.796  17
  -8   0   5-101.141 132.548   2
   8   0  -5 224.963 239.919   8
  -8   0   5 12.7116 60.7800   4
   8   0   5 37.8052 102.410  16
  -8   0   5 34.5082 56.0309  16
  -8   0  -5-347.158 402.747  15
   8   0   6 396.798 245.367  14
   8   0   6 382.745 239.074   6
   8   0  -6 220.808 192.274  14
   8   0  -6 272.599 214.315   1
   8   0  -6 476.811 146.413   6
   8   0  -6 17.2993 73.7281  11
  -8   0  -6-134.119 195.566  19
  -8   0   6 341.931 248.047   5
  -8   0   6 271.276 195.673  19
   8   0   6 479.954 145.339  18
  -8   0  -6-593.749 359.719   4
   8   0   6 400.204 223.844   1
   8   0  -6 204.628 207.432  18
  -8   0  -6-34.7549 97.0362  17
   8   0   6 405.900 170.195   8
  -8   0   6 275.857 214.911  17
  -8   0   6 302.488 259.899   4
   8   0  -6 82.2336 20.2668   8
  -8   0   6 482.109 237.740   2
   8   0   6 520.704 212.848  16
  -8   0   6 298.684 125.902  16
   8   0   7 0.13461 55.3840   6
   8   0  -7 29.8595 94.7294  14
   8   0  -7 23.9256 31.7782   6
   8   0  -7 109.560 154.575   1
   8   0  -7-130.717 196.942  11
  -8   0  -7-1.07790 107.407  19
  -8   0   7-83.0380 129.361   5
   8   0   7-44.0634 101.776  18
   8   0   7-78.1327 177.705   1
   8   0  -7-36.8571 164.457  18
  -8   0   7 5.81835 56.9247  19
  -8   0  -7 60.9224 129.911  17
   8   0   7-80.9218 264.838   8
  -8   0   7 109.601 171.999  17
  -8   0   7 101.567 143.153   4
   8   0   7 4.35899 113.879  16
  -8   0   7 47.9306 101.084   2
  -8   0   7 105.248 91.1481  16
   8   0   7-3.10232 47.6586  14
   8   0   8-67.6978 164.852   6
   8   0  -8 13.3470 66.7079  14
   8   0   8 20.7136 36.5838   1
   8   0  -8-109.176 180.527  11
  -8   0  -8-39.0283 177.861  19
  -8   0   8 0.79466 9.42813  19
   8   0   8-31.6415 19.8660  18
   8   0  -8-52.0395 147.459  18
  -8   0   8 10.0251 147.082   5
   8   0   8 77.2227 93.0613   8
  -8   0   8 31.3132 100.626  17
   8   0   8-14.2172 53.5302  16
  -8   0   8 82.4507 151.241   4
  -8   0   8-362.754 224.799   2
  -8   0   8-58.0839 77.0801  16
  -8   0  -8 58.2695 79.5084  17
   8   0  -8 74.5702 149.334   1
   8   0   8-73.6442 131.172  14
   8   0   9 52.3025 85.6094   6
   8   0  -9 62.0374 105.092  14
   8   0  -9 130.991 186.409  11
  -8   0  -9 21.6773 65.0967  19
  -8   0   9-4.78657 127.675   5
  -8   0   9-190.842 164.523  19
   8   0   9-34.2326 89.8438  18
   8   0  -9-20.5657 51.1142   1
   8   0  -9 57.8933 120.273  18
   8   0   9 110.973 127.038   8
  -8   0   9 97.3021 199.483  17
   8   0   9-23.9304 72.4296  16
  -8   0   9 35.3827 40.0856   4
  -8   0   9-32.3997 49.2289  16
  -8   0   9-40.4110 107.672   2
   8   0   9-16.2102 92.8673  14
   8   0 -10 89.0752 133.294  14
   0   8 -10-216.752 424.443  13
   8   0 -10-51.2443 209.855  11
  -8   0 -10 73.0123 211.176  19
  -8   0  10 211.154 242.917   5
   8   0 -10-72.4103 120.200  18
   8   0  10 289.275 343.345   8
   8   0 -10 63.0737 86.5837   1
  -8   0  10 139.040 200.606  17
   8   0  10 162.850 170.870  16
  -8   0  10-38.7637 29.6903   4
  -8   0  10 11.2974 65.4988  16
  -8   0  10 16.9049 119.111   2
   8   0  10 131.876 186.696  14
   8   0  10 268.617 234.003   6
   0   8 -11 48.1385 102.124   3
   8   0 -11-22.0300 52.0267  14
   0   8 -11 91.7608 133.306  13
   0  -8  11-19.0924 94.8239   6
   8   0 -11-169.205 320.409  11
  -8   0 -11 82.3478 78.3458  19
  -8   0  11 101.272 210.202   5
   8   0 -11-30.4661 109.212  18
   8   0  11 32.0501 179.126   8
  -8   0  11-108.303 187.737  17
   8   0 -11 6.04027 61.5085   1
   8   0  11-36.5264 170.552  16
  -8   0  11 138.890 171.248  16
  -8   0  11-9.15145 110.554   4
  -8   0  11-13.7556 46.6328   2
   8   0  11-125.435 271.115  14
   8   0  11-0.53292 98.5548   6
   0   8 -12 1124.15 469.589   3
   8   0 -12 330.568 213.449  14
   8   0  12 1470.99 627.061   8
   0   8 -12 1130.97 516.172  13
   0  -8  12 322.885 257.534   6
   8   0 -12-45.6612 315.601  11
  -8   0 -12 290.114 287.243  19
  -8   0  12 1117.44 485.303   5
   0   8 -12 703.971 370.041  18
   8   0 -12 137.558 208.634  18
  -8   0  12 891.582 471.414  17
   8   0  12 990.313 431.759  16
   8   0 -12 317.833 240.671   1
  -8   0  12 473.922 270.593  16
  -8   0  12 601.303 257.965   4
  -8   0  12 985.757 419.854   2
   8   0  12 824.556 377.187   6
   8   0 -13-25.4362 42.6034   1
   0   8 -13 114.078 160.243   3
   8   0 -13-1.25292 29.8674  14
   0   8 -13 19.3908 193.411  13
   0  -8  13 70.6520 112.753   6
   0   8 -13-57.0608 173.344  12
  -8   0  13-12.1220 217.668   5
   0   8 -13 290.681 258.271  18
   8   0 -13-41.3452 111.076  18
   8   0  13 229.943 382.510   8
   0  -8  13 248.030 404.845  17
  -8   0  13 10.8289 61.5215  17
   8   0  13 60.9371 199.354  16
  -8   0  13 83.2498 144.223  16
  -8   0  13-162.661 275.394   4
  -8   0  13-12.1999 98.2136   2
  -8   0 -13 34.9173 122.738  19
   8   0  13-217.724 360.510   6
   8   0 -14 413.865 240.359  14
   8   0 -14 427.056 276.859   1
   0   8 -14 1440.23 630.060  13
   0  -8  14 326.675 251.902   6
   0   8 -14 1433.70 427.654  12
   8   0 -14-162.511 602.282  11
  -8   0 -14 477.962 318.828  19
  -8   0  14 1245.42 531.298   5
   0   8 -14 1169.70 543.442  18
   8   0 -14 65.6843 68.1324  18
   8   0  14 1699.31 738.635   8
   0  -8  14 248.328 274.738  17
  -8   0  14 886.065 413.586  17
   8   0  14 1223.50 504.889  16
  -8   0  14 1050.40 421.282  16
   0   8 -14 1659.36 590.050   3
  -8   0  14 1264.84 521.071   2
   8   0  14 572.992 147.256   6
   8   0 -15 16.0985 93.5635  14
   0   8 -15-76.6441 103.181   3
   0   8 -15-12.5679 177.869  13
   0  -8  15-39.2259 60.6884   6
   8   0 -15 47.1471 186.256   1
   0   8 -15 26.4279 115.963  12
  -8   0 -15-52.2413 184.535  19
  -8   0  15-0.36641 196.186   5
   0   8 -15 34.2547 159.515  18
   8   0  15-94.7946 126.792   8
   0  -8  15-97.0389 101.366  17
  -8   0  15-255.066 437.673  17
   8   0  15 46.5360 110.485  16
  -8   0  15 5.19683 17.0992   2
   8   0 -16 108.259 132.542  14
   0   8 -16 218.901 193.485   3
   0  -8  16 225.634 234.156   6
   0   8 -16 153.105 121.632  13
   8   0 -16 398.953 449.562   1
   0   8 -16 411.619 283.624  12
  -8   0  16 398.022 321.022   5
   0   8 -16 263.082 385.113  18
   8   0  16 909.157 600.422   8
   0  -8  16 216.006 290.175  17
  -8   0  16-362.756 525.967  17
  -8   0 -16 104.461 203.336  19
   8   0  16 120.234 85.1253  16
  -8   0  16 395.586 363.949   2
  -8   0 -17 13.8806 247.955  19
   8   1   0 102.904 136.888  14
   8   1   0 99.5143 115.359   6
   8   1   0 65.9325 43.4769   1
   8  -1   0 119.663 128.366  14
   8  -1   0 105.479 74.3371   6
  -8  -1   0-12.3102 23.8162   3
  -8  -1   0 442.852 204.488  12
  -8   1   0-29.8393 92.1785  12
   8   1   0 537.992 299.249  11
  -8  -1   0 44.6225 109.762   5
  -8   1   0 191.226 195.375   5
  -8  -1   0 87.5674 77.4798   4
  -8  -1   0 26.7005 60.3716  19
  -8   1   0 25.5383 77.0510  19
   8   1   0 107.471 113.745  18
   8  -1   0 14.1381 119.235  18
  -8  -1   0-29.1453 29.3161  17
   8   1   0 207.213 228.122   8
  -8   1   0 24.3370 24.2722   2
  -8   1   0-44.3451 77.3084  17
   8  -1   0 30.9843 163.597   8
  -8   1   0 116.466 158.088   4
   8  -1   0 63.2631 118.337   1
   8   1   0 385.366 105.585   9
   8   1   1 680.635 369.370  14
   8   1  -1 699.800 359.020  14
  -8   1  -1-31.1434 95.8560   3
   8   1   1 343.388 165.513   6
   8  -1  -1 876.390 313.317   1
   8   1  -1 548.109 200.603   6
   8  -1   1 881.854 340.744  14
   8  -1  -1 662.273 279.488  14
   8   1   1 930.381 178.424   9
   8   1  -1 1108.24 435.368   1
   8  -1   1 793.835 260.661   6
   8  -1  -1 771.840 261.193   6
  -8  -1   1 576.842 190.361  12
  -8   1  -1 449.898 201.045  12
  -8   1   1 715.855 353.620   5
  -8   1   1 161.520 112.728  12
   8   1  -1 1224.18 421.767  11
  -8  -1  -1 310.227 230.014   5
  -8  -1   1 573.611 342.823   5
  -8   1  -1 744.110 190.663  20
  -8   1  -1 662.695 339.693   5
  -8  -1   1 398.716 178.554   2
  -8  -1  -1 249.861 150.574  19
  -8  -1   1 467.153 264.852  19
  -8   1  -1 584.527 263.297  19
  -8   1   1 749.099 314.150  19
   8   1  -1 739.191 175.461   9
   8   1   1 1056.96 338.526  18
   8   1  -1 1078.13 341.192  18
   8  -1   1 402.995 175.572  18
  -8   1  -1 689.289 207.476   2
   8  -1  -1 380.301 194.176  18
   8  -1   1 759.428 328.023   1
  -8  -1  -1 129.039 109.385   4
  -8  -1   1 602.403 343.010   4
  -8  -1  -1 238.713 184.542  17
  -8  -1   1 280.319 205.707  17
   8   1   1 964.957 465.599   8
   8   1  -1 1129.75 436.350   8
  -8   1  -1 147.736 105.564  17
  -8   1   1 74.2759 116.347  17
   8  -1   1 637.765 336.361   8
  -8   1  -1 637.679 319.874   4
   8  -1  -1 774.806 344.279   8
  -8   1   1 760.683 237.557   2
  -8   1   1 568.995 290.436   4
  -8  -1   1-127.465 272.935  15
   8   1   1 816.957 379.711   1
   8   1   2 24.3960 144.981  14
   8   1   2-36.3675 65.8078   6
   8   1  -2 510.670 311.778  14
   8  -1   2-59.6643 182.505  14
   8   1  -2 417.378 223.824   6
   8  -1  -2 143.013 155.154  14
  -8   1  -2-92.8919 122.720   3
   8  -1   2-36.5642 7.63843   6
   8   1  -2 148.566 176.766  13
   8  -1  -2 44.3263 93.3484   1
   8  -1  -2 112.689 82.7010   6
  -8   1  -2-70.2257 108.895  12
   8   1  -2 280.113 372.038   1
   8   1  -2 617.396 501.034  11
  -8  -1   2 326.036 414.140   5
  -8   1  -2-56.6888 86.5402  20
  -8   1  -2 101.000 95.9382   5
  -8  -1  -2-173.340 238.523  19
  -8   1   2-11.1895 152.451   5
   8  -1   2-22.8306 94.2507   1
  -8   1  -2 32.4430 93.5013  19
  -8   1   2-80.6196 109.504  19
  -8   1  -2 59.7809 66.8720   2
  -8  -1   2 402.781 304.181   2
   8   1   2 237.489 198.265  18
   8   1  -2 216.006 302.788  18
   8  -1   2 41.0543 51.3764  18
  -8  -1  -2-124.858 269.327   4
   8  -1  -2-61.6926 115.245  18
  -8  -1  -2 230.081 180.266  17
   8   1   2 132.202 175.452   8
  -8  -1   2 121.403 292.547   4
   8   1  -2 519.515 398.744   8
  -8   1  -2-9.17749 36.3717  17
  -8   1  -2 39.8099 90.7687   4
   8  -1   2-47.0512 226.353   8
  -8   1   2-51.2327 102.493  17
   8  -1  -2 5.47639 72.3985   8
   8   1   2 160.262 273.871   1
  -8   1   2-8.47657 97.5308   4
   8   1   2-23.9878 52.2360  16
  -8   1   2 7.51003 48.8703   2
  -8  -1   2 137.302 133.817   7
  -8  -1   2-24.5395 157.637  15
   8   1   3 282.345 270.412   6
   8  -1   3 513.486 339.012  14
   8  -1  -3 383.020 230.290  14
   8  -1   3 645.768 291.068   6
  -8   1  -3 43.0573 122.756   3
   8  -1  -3 457.059 184.726   6
  -8   1  -3 155.851 250.060  12
   8  -1   3 492.338 310.478   1
   8   1   3 710.191 307.138  18
   8  -1  -3 343.416 210.565   1
  -8   1  -3 282.035 236.264   5
  -8   1  -3 102.098 26.0805  20
  -8  -1  -3 10.6336 93.3759  19
  -8   1  -3 360.535 310.200  19
  -8   1   3 340.757 212.156   5
  -8  -1   3 407.776 646.543   4
   8   1  -3 739.172 682.966   8
  -8  -1  -3-435.337 438.597   4
   8  -1   3 351.466 236.816  18
   8  -1  -3 122.844 111.226  18
  -8   1   3 534.143 244.613  19
  -8  -1  -3 240.602 195.954  17
   8   1   3 570.209 406.660   8
   8   1   3 593.355 495.130   1
  -8   1  -3 218.257 272.247   4
   8  -1   3 473.588 363.451   8
  -8   1  -3 878.741 247.255  17
  -8   1   3 31.8572 72.9285  17
   8  -1  -3 274.245 157.646   8
  -8   1   3 456.099 294.599   4
   8   1   3 246.157 107.444  16
  -8  -1   3 215.316 456.381  15
  -8   1   3 284.255 152.794   2
   8   1   3 272.301 393.147  14
   8  -1  -4 180.035 211.694  14
   8  -1   4 843.568 397.351   6
   8  -1   4 903.053 491.123   1
   8  -1  -4 280.307 140.213   6
  -8   1  -4 1480.13 665.577   5
  -8   1  -4 249.908 169.208  20
  -8  -1  -4 586.866 382.642  19
  -8   1  -4 1209.26 451.873  19
  -8   1   4 188.252 185.016   5
  -8   1   4 318.588 240.352  19
   8  -1   4 625.182 294.151  18
   8  -1  -4 518.556 284.703   1
  -8   1  -4 949.131 591.096   4
   8   1   4 743.186 486.412   1
   8  -1  -4 84.4486 38.3670  18
   8   1   4 866.076 356.772  18
  -8  -1  -4 448.447 268.614  17
   8   1   4 581.992 485.582   8
   8  -1   4 705.872 479.864   8
  -8   1   4-89.2005 190.045  17
   8   1  -4 1989.22 608.262   8
   8  -1   4 450.442 307.360  16
   8  -1  -4 245.656 217.884   8
  -8   1   4 170.853 186.764   4
  -8  -1   4 1392.57 399.642   7
   8   1   4 537.556 272.375  16
  -8  -1   4 1306.00 468.392  15
  -8   1  -4 939.869 610.354  15
  -8   1   4 286.511 169.405   2
   8  -1   4 1150.69 480.309  14
   8   1   4 566.019 397.012  14
   8   1   4 369.079 274.017   6
   8  -1   5 129.013 202.360   1
   8  -1   5-25.4920 41.5004  14
   8  -1  -5 9.74009 31.2762  14
   8  -1   5 16.5616 103.515   6
   8   1  -5-27.4275 149.369   6
  -8   1  -5 432.206 446.337  12
   8   1  -5 886.686 553.223   1
   8  -1  -5 133.542 143.029   6
  -8   1  -5 380.252 307.490   3
  -8   1  -5 290.860 385.834   5
  -8   1  -5 164.240 224.796  20
  -8  -1  -5-75.6302 104.857  19
  -8   1  -5 262.654 345.230  19
  -8   1   5 262.374 304.368   5
   8   1   5 66.6988 228.384  18
  -8   1   5 79.2573 168.137  19
  -8  -1   5 1134.80 558.853   4
   8  -1   5 66.1529 166.888  18
   8  -1  -5-24.7842 6.05476  18
  -8  -1  -5-150.652 139.595  17
   8   1   5-67.1070 240.211   8
  -8   1  -5 214.540 280.862   4
   8  -1   5 315.851 296.894   8
  -8   1  -5 591.187 208.717  17
   8  -1  -5 44.2702 129.565   1
  -8   1   5 146.349 258.691  17
   8  -1   5 159.272 178.176  16
   8  -1  -5-44.2521 161.647   8
  -8   1   5 77.5993 158.384   4
   8   1   5 4.61084 111.535  16
  -8   1  -5 286.750 406.264   7
  -8   1  -5 251.101 390.248  15
  -8   1   5 36.5686 132.582   2
   8   1   5 95.5131 189.488  14
   8   1   5-4.59213 53.5469   6
  -8   1   6 220.234 171.270   2
   8  -1   6 111.131 16.1489  14
   8   1  -6 190.423 140.737  14
   8  -1  -6 111.109 126.606  14
   8  -1   6 149.644 52.5363   6
   8   1  -6 74.4806 38.4011   6
  -8   1  -6 160.422 226.018   3
  -8   1  -6-100.188 237.002   5
   8   1  -6 74.3867 157.474  11
  -8   1  -6-195.794 234.171  20
   8   1   6 7.88257 48.8386   1
  -8  -1   6 49.8376 4.58743   5
  -8  -1  -6-104.228 151.840  19
  -8   1  -6-14.3744 27.3123  19
  -8  -1   6 140.783 169.302  19
  -8   1   6 146.135 185.643   5
  -8   1   6 82.4370 60.5820  19
   8   1   6-5.45475 133.698  18
   8  -1   6 85.1051 44.0972  18
   8   1  -6 91.2971 106.285  18
   8  -1  -6 42.0946 93.0050  18
   8   1  -6 338.645 239.642   1
  -8   1  -6 69.2443 150.040   4
   8   1   6 55.7323 323.725   8
  -8  -1   6 38.6409 72.6345   2
   8  -1   6 292.936 171.886   8
  -8  -1   6-69.6393 151.107  17
  -8   1  -6-94.9480 109.002  17
  -8  -1   6 169.830 239.772   4
  -8   1   6 147.628 218.730  17
   8   1  -6 278.098 237.219   8
   8  -1   6 93.7138 116.536  16
  -8  -1   6 112.633 66.4637  16
   8  -1   6 153.992 169.466   1
   8   1  -6-70.4563 202.260   9
   8   1   6 104.701 70.8172  16
  -8   1   6 72.5443 108.028   4
  -8   1  -6-15.3105 144.655   7
  -8   1  -6 144.578 76.3208  15
   8  -1  -6 44.4209 94.4105   1
   8   1   6 32.7882 30.1094  14
   8   1   6-50.8588 124.804   6
   8  -1   7 275.836 243.882  14
  -8   1   7 289.741 209.419   2
   8   1  -7 355.378 181.059  14
   8  -1   7 377.443 258.101   6
  -8  -1   7 216.185 151.955  19
   8  -1  -7 113.383 163.844  14
  -8   1  -7-30.5582 40.3546  13
   8   1  -7 355.941 103.721   6
   8  -1  -7 193.245 212.436   1
   8   1  -7 250.984 160.773  11
  -8   1  -7-257.883 311.990  20
  -8  -1   7 154.740 148.263   5
  -8  -1  -7-55.2452 77.4245  19
  -8   1  -7 173.618 268.862  19
  -8   1   7 363.809 257.133   5
  -8   1   7 177.931 160.520  19
   8   1  -7-174.667 193.478   9
   8  -1   7 291.711 110.369  18
   8   1  -7 243.612 167.017  18
   8  -1  -7-269.956 218.836  18
  -8   1  -7 261.117 196.033   4
   8   1   7 603.714 448.415   8
   8  -1   7 649.166 396.568   8
   8  -1   7 495.693 284.836   1
  -8  -1   7 298.333 247.412   2
  -8   1  -7 22.9288 64.4596  17
  -8  -1   7 299.909 235.597  17
   8   1  -7 155.608 184.515   1
  -8   1   7 35.8413 26.1934  17
  -8  -1   7 335.585 198.814   4
   8   1  -7 160.822 149.548   8
   8  -1   7 494.267 243.353  16
  -8  -1   7 352.275 142.794  16
  -8   1  -7 179.216 26.4574   7
   8   1   7 237.954 189.874  16
  -8   1   7 50.1589 84.4156   4
  -8   1  -7 324.798 300.849  15
   8   1   7 192.514 202.870  14
   8   1   7 43.1153 51.5172   6
   8  -1   8 734.558 372.167  14
   8   1  -8 480.210 232.399  14
  -8   1   8 340.371 224.294   2
   8  -1   8 576.104 293.756   6
   8  -1  -8 202.786 211.571  14
  -8   1  -8 180.582 133.251  13
   8   1  -8 218.586 175.503  11
   8  -1   8 296.776 210.160   1
   8  -1  -8 195.761 218.318   1
  -8  -1  -8 54.4664 178.967  19
  -8  -1   8 492.924 319.192   5
  -8   1  -8 224.082 255.091  19
  -8  -1   8 452.354 218.396  19
  -8   1   8 320.774 242.389   5
   8   1  -8-191.407 245.881   9
   8  -1   8 424.609 124.885  18
   8   1  -8 415.774 257.030  18
  -8   1  -8-96.6589 292.566   4
   8  -1  -8-189.880 188.774  18
   8   1   8 444.261 385.821   8
   8  -1   8 828.524 496.164   8
  -8   1  -8 57.1297 42.4139  17
  -8  -1   8 174.760 205.195  17
  -8  -1   8 538.124 237.037   2
  -8   1   8 177.745 189.375  17
  -8  -1   8 350.391 264.331   4
   8  -1   8 802.616 338.831  16
   8   1  -8 74.5415 110.567   8
  -8  -1   8 394.381 161.710  16
   8   1  -8 380.563 271.615   1
  -8   1  -8 39.3906 366.105   7
   8   1   8 277.835 186.584  16
  -8   1   8 92.0650 114.768   4
  -8   1  -8 119.059 197.873  15
   8   1  -8 442.539 109.791   6
   8   1   8 157.482 35.1740  14
   8   1   8-5.87401 171.262   6
   8  -1   9 118.317 198.178  14
   8   1  -9-16.8822 45.4549  14
   8  -1   9 200.065 256.744   6
  -8   1   9 37.9623 49.7183   2
   8  -1  -9 18.3303 59.8944  14
   8   1  -9 28.0493 1.11170   6
   8   1  -9-101.776 215.749  11
  -8  -1  -9-58.4455 274.286  19
   8  -1   9-14.5751 148.705   1
  -8  -1   9 96.3312 166.107   5
  -8  -1   9 41.3745 49.0014  19
  -8   1   9 198.773 212.133   5
   8   1  -9-495.987 357.673   9
   8  -1   9 40.3757 19.1025  18
   8  -1  -9 6.96796 74.0165   1
  -8   1  -9 226.644 238.574  19
   8   1  -9 176.094 198.275  18
   8   1   9-86.6003 172.361   8
   8  -1   9 235.774 206.114   8
  -8  -1   9 314.483 317.092  17
  -8   1   9-76.5477 209.266  17
  -8  -1   9 16.4089 77.6468   2
  -8  -1   9 154.874 191.135   4
   8  -1   9 144.242 171.697  16
  -8  -1   9 66.4391 68.9797  16
   8   1   9 90.1934 145.676  16
  -8   1  -9-722.234 468.311  15
   8   1   9-327.397 354.057   6
   8   1  -9 123.761 181.403   1
   8  -1  10 497.329 292.427   6
   8   1 -10 201.268 164.901  14
   8   1 -10 252.671 249.893   1
  -8   1  10 363.787 303.946   2
   8  -1 -10 165.893 168.081  14
   1   8 -10 146.194 142.556  13
   8   1 -10 159.155 200.031  11
  -8  -1  10 432.178 372.207   5
  -8   1 -10 32.7888 79.5450  19
  -8  -1  10 323.650 167.999  19
  -8   1  10 23.8560 115.380   5
  -8  -1 -10 18.7535 87.0357  19
   8   1 -10 102.506 161.331  18
   8   1  10 404.364 288.502   8
   8  -1  10 550.785 353.514   8
  -8  -1  10 194.061 289.550  17
   8  -1 -10 16.5124 70.0111   1
  -8   1  10-21.5690 197.113  17
  -8  -1  10 259.325 147.535   2
  -8  -1  10 250.009 223.528   4
   8  -1  10 559.837 317.374  16
  -8  -1  10 247.975 159.349  16
   8   1  10 203.912 151.388  16
   8  -1  10 532.486 339.439  14
   1   8 -11 580.402 275.416   3
   8  -1  11 723.661 358.737   6
  -1   8 -11 672.701 362.353   3
   8   1 -11 316.143 219.264  14
  -8   1  11 484.551 306.847   2
   8  -1 -11 298.770 196.446  14
  -1   8 -11 221.215 87.2504  13
   1   8 -11 618.504 354.623  13
   8   1 -11 435.003 312.267   1
   1  -8  11 31.9657 144.069   6
  -1  -8  11-29.0975 101.876   6
   8   1 -11 154.257 191.757  11
  -8  -1 -11-236.961 326.989  19
  -8   1 -11 87.5924 159.960  19
   1   8 -11 173.630 60.0435  18
  -8   1  11 304.066 178.080   5
   8   1 -11-435.242 466.193   9
  -8  -1  11 586.603 327.378   5
   8   1 -11 379.946 304.084  18
   8   1  11 816.674 459.152   8
   8  -1  11 1157.90 522.887   8
  -8  -1  11 543.984 356.629  17
  -8   1  11-88.5456 348.044  17
  -8  -1  11 559.774 349.210   2
  -8  -1  11 519.763 270.491   4
   8  -1  11 899.663 402.957  16
  -8  -1  11 650.873 260.129  16
   8   1  11 408.432 281.279  16
   8  -1 -11 222.122 209.414   1
   8  -1  11 676.613 356.032  14
   8  -1  12 378.468 294.816   6
   1   8 -12 407.744 287.689   3
   8  -1 -12 91.8204 200.286   1
   8   1 -12 151.650 177.578  14
  -1   8 -12 418.341 263.211   3
  -1   8 -12 366.427 330.890  13
   1   8 -12 538.245 408.402  13
   8   1 -12 85.9619 83.5822   1
   1  -8  12 62.0435 142.657   6
  -1  -8  12 231.018 270.168   6
   8   1 -12 138.291 123.991  11
  -8  -1 -12-392.937 361.186  19
  -8   1 -12-138.644 163.224  19
  -8  -1  12 335.336 247.836   5
  -1   8 -12 156.008 248.820  18
   1   8 -12 234.168 315.933  18
   8   1 -12-702.101 567.142   9
   8   1 -12 144.549 212.268  18
   8   1  12 354.359 350.628   8
   8  -1  12 212.977 192.282   8
  -8  -1  12 441.144 296.356  17
  -8  -1  12 318.922 223.124   2
  -8  -1  12 340.693 245.957   4
   8  -1  12 304.369 213.947  16
  -8  -1  12 304.796 205.419  16
   8   1  12 193.272 153.084  16
   8  -1  12 346.389 224.065  14
   8  -1  13 1537.80 583.163   6
   8   1 -13 568.863 275.357  14
  -1   8 -13 1414.96 558.411  13
   1   8 -13 1527.67 655.314  13
   1  -8  13 266.201 234.730   6
  -1  -8  13 89.1951 129.405   6
  -1   8 -13 1173.69 373.389  12
   8   1 -13 1018.63 453.543   1
   8  -1  13 1297.05 244.689   2
   8   1 -13 241.730 245.414  11
  -8  -1 -13-787.631 461.573  19
  -8   1 -13-164.935 263.467  19
  -8  -1  13 1497.08 546.025   5
  -1   8 -13 1266.72 485.286  18
   1   8 -13 1152.08 586.133  18
  -8  -1  13 1245.06 432.267   4
   8   1 -13 421.093 248.911  18
   8   1  13 1393.98 750.803   8
   1  -8  13 214.214 298.315  17
  -1  -8  13 37.4348 271.334  17
   8  -1  13 1777.61 691.259   8
  -8  -1  13 1398.96 595.174  17
  -8  -1  13 1439.50 516.228   2
   8  -1  13 1548.71 574.605  16
  -8  -1  13 979.293 380.440  16
   8   1  13 1007.66 496.619  16
   1   8 -13 1590.73 555.634   3
  -1   8 -13 1906.99 631.908   3
   8  -1  13 1218.68 507.753  14
   8  -1  14 218.070 252.523   6
   8   1 -14 42.3674 30.2100  14
   1   8 -14 228.709 237.011   3
  -1   8 -14 158.226 201.369   3
  -1   8 -14 270.980 266.525  13
   1   8 -14 311.788 292.545  13
  -1  -8  14 30.8693 169.148   6
   1  -8  14 244.511 258.486   6
  -1   8 -14 122.949 70.0051  12
   8   1 -14 60.2052 137.022   1
   8   1 -14-48.1401 374.300  11
  -8  -1 -14-1123.65 628.689  19
  -8   1 -14-42.9081 74.8754  19
  -8  -1  14 106.943 119.575   5
  -1   8 -14 133.455 177.784  18
   1   8 -14 76.1786 289.977  18
   8   1 -14 33.2988 84.2135  18
   8   1  14-21.5056 75.5449   8
   1  -8  14 79.4726 181.723  17
  -1  -8  14-150.743 242.654  17
   8  -1  14 540.774 559.095   8
  -8  -1  14 59.3955 213.491  17
  -8  -1  14 173.691 197.665   2
   8  -1  14 27.5941 201.968  16
  -8  -1  14 149.151 108.168   4
  -8  -1  14 140.308 165.729  16
  -1   8 -14 93.7892 45.4783   4
   8   1  14 128.580 355.212  16
   8   1 -15 259.363 187.492  14
   1   8 -15 1466.34 548.290   3
   1  -8  15 232.443 121.225  14
  -1   8 -15 1040.61 463.882   3
  -1   8 -15 1021.97 551.696  13
   1   8 -15 1286.65 651.254  13
  -1  -8  15 352.446 210.837   6
   1  -8  15 606.409 390.809   6
  -1   8 -15 1058.83 373.916  12
   1   8 -15 981.587 330.222  12
   8   1 -15 389.212 276.704   1
   8   1 -15 187.060 272.194  11
  -8  -1 -15-640.321 605.449  19
  -8   1 -15 245.785 285.336  19
  -8  -1  15 1168.10 511.111   5
  -1   8 -15 1294.71 479.918  18
   1   8 -15 781.135 508.532  18
   8   1  15 1528.08 748.475   8
   8   1 -15 287.301 289.064  18
   1  -8  15 647.669 396.697  17
   8  -1  15 2243.72 919.352   8
  -1  -8  15 409.434 346.237  17
  -8  -1  15 1187.49 612.766  17
  -8  -1  15 1285.52 523.435   2
   8  -1  15 1188.84 533.457  16
  -8  -1  15 1082.02 394.290   4
  -8  -1  15 1218.85 460.588  16
   8  -1  15 1279.40 584.936   6
  -8  -1  16 129.304 249.981   5
   8   1 -16 10.5890 61.6490  14
   1   8 -16 74.3815 60.6580   3
  -1   8 -16 39.7383 218.990   3
  -1  -8  16 60.5374 33.8705   6
  -1   8 -16-2.32923 206.308  13
   1  -8  16-213.483 244.004   6
   1   8 -16 221.652 180.350  13
  -1   8 -16 128.516 164.841  12
   1   8 -16 38.3190 120.364  12
   8   1 -16-63.0575 270.732  11
   8   1 -16 217.945 294.112   1
  -8   1 -16-4.11117 171.805  19
  -1   8 -16 166.238 256.053  18
   1   8 -16 63.9407 278.135  18
   8   1 -16-138.492 248.059  18
   8  -1  16 189.984 322.756   8
   1  -8  16 225.485 229.383  17
  -1  -8  16 190.079 254.442  17
  -8  -1  16 39.6858 68.6836  17
  -8  -1  16 108.375 215.958   2
   8  -1  16 18.8949 70.2659  16
  -8  -1  16 138.947 101.704  16
  -8  -1  16 36.3743 47.4989   4
   8  -1  16-61.1989 292.204   6
   8   2   0 4284.27 869.020   1
  -8   2   0 1089.69 313.523  12
   8  -2   0 3002.48 622.730   1
  -8   2   0 2856.89 689.958   5
  -8  -2   0 1455.23 536.783  19
  -8   2   0 2351.92 397.072   2
  -8   2   0 2606.08 591.532  19
   8   2   0 3907.01 699.088  18
   8   2   0 3754.54 821.763   8
  -8   2   0 3015.18 683.622   4
   8  -2   0 2550.12 681.388   8
  -8  -2   0 1353.66 512.022  17
   8   2   0 2850.84 752.546  14
   8  -2   0 3316.25 563.335   6
   8  -2   0 3049.71 617.926  14
  -8   2   1 362.845 163.728   2
   8  -2   1 576.830 290.607  14
   8  -2  -1 395.037 229.716  14
   8   2  -1 1496.77 597.122   1
   8  -2   1 441.254 203.551   6
   8  -2   1 437.275 240.796   1
   8  -2  -1 391.204 203.206   6
  -8   2  -1 224.135 165.876  12
  -8  -2   1 2020.46 703.270  19
  -8  -2  -1 596.592 423.762  19
  -8   2  -1 490.351 282.463   5
  -8   2   1 385.325 246.123   5
  -8   2  -1 361.488 216.515  19
  -8   2   1 402.410 222.585  19
   8   2   1 926.370 356.813  18
   8   2  -1 667.378 369.310  18
  -8  -2   1 1674.21 696.028  17
  -8  -2  -1 196.702 185.307  17
   8   2   1 956.246 509.694   8
   8   2   1 914.143 535.759   1
   8   2  -1 1091.64 515.445   8
   8  -2  -1 361.007 245.763   1
   8  -2   1 418.476 262.276   8
   8  -2  -1 244.797 185.401   8
  -8   2  -1 464.424 275.027   4
  -8   2   1 347.686 233.671   4
  -8   2  -1 363.338 148.568   2
   8   2   1 930.529 592.070  14
   8   2  -1 640.191 462.511  14
  -8   2  -2 35.9116 87.0575   3
   8  -2  -2 791.604 343.345   1
   8  -2  -2 807.593 321.504  14
  -8   2   2 781.974 247.629   2
  -8  -2   2-15.1322 84.8532  12
   8  -2  -2 764.843 267.984   6
  -8   2  -2 646.813 264.647  12
   8  -2   2 1381.45 429.280   1
  -8   2  -2 1019.09 217.986   2
  -8   2   2 1101.11 373.654  19
  -8  -2  -2 202.595 352.507  19
  -8   2  -2 1257.90 435.102   5
  -8   2  -2 836.133 314.258  19
  -8   2   2 851.873 377.624   5
   8   2   2 1901.36 518.173  18
  -8  -2   2-157.328 95.9679   4
  -8  -2  -2 590.662 355.548  17
   8   2   2 1565.36 715.537   8
   8  -2   2 869.448 419.400   8
  -8   2  -2 1117.84 449.253   4
   8  -2  -2 571.028 281.468   8
  -8   2   2 809.532 346.889   4
   8   2   2 1223.55 558.042  14
   8  -2   2 1284.22 365.214   6
   8  -2   2 1170.22 417.450  14
   8  -2   3 27.4918 128.765  14
   8  -2  -3 684.026 312.978  14
  -8   2  -3 605.024 304.650   3
  -8   2   3-76.9709 116.908   2
   8  -2   3 164.644 159.352   6
  -8   2   3 55.2576 85.4507   5
  -8   2  -3 730.047 361.488  12
   8  -2  -3 83.6970 92.3734   6
  -8  -2   3 13177.6 1771.50   5
   8  -2  -3 464.236 260.946   1
  -8   2  -3 546.901 423.261   5
  -8  -2  -3 403.275 362.812  19
  -8   2  -3 835.294 414.396  19
   8   2   3 318.847 339.043   1
  -8   2   3 88.8439 142.586  19
   8   2  -3 13201.7 1408.68  18
   8   2   3 308.957 200.789  18
  -8   2  -3 232.863 116.832   2
  -8  -2  -3 117.614 181.391  17
   8   2   3 360.266 294.134   8
   8  -2   3 101.808 88.2404   1
   8  -2   3 207.635 242.069   8
  -8   2  -3 271.550 293.056   4
   8  -2  -3-46.0169 170.181   8
  -8   2   3 31.0590 83.3636   4
   8   2   3 531.674 371.544  14
   8  -2   4 141.388 120.655  14
   8  -2  -4 106.095 164.144  14
  -8   2   4 75.0684 70.9001   2
  -8   2  -4 330.499 258.195   3
  -8   2   4 169.531 171.843  19
   8  -2   4 258.966 148.587   6
  -8   2  -4 500.649 302.733  12
  -8  -2   4 1234.82 976.597   5
  -8  -2   4 537.579 666.488   2
  -8   2  -4 613.324 376.777   5
   8   2   4 592.061 419.647   1
  -8  -2  -4-84.6682 129.327  19
  -8   2  -4 238.900 101.792   2
  -8   2  -4 408.444 295.643  19
  -8   2   4 330.661 209.655   5
   8   2   4 183.466 222.825  18
   8  -2   4 369.444 211.781   1
   8   2   4 589.125 454.107   8
   8  -2  -4 119.331 131.773   1
  -8   2  -4 425.091 280.375   4
   8  -2   4 467.282 359.843   8
  -8   2   4 104.293 140.980   4
   8   2   4 138.743 153.805  14
   8   2  -5 329.640 260.503  14
   8  -2   5 515.107 266.690  14
   8   2  -5 678.492 317.643  10
   8  -2  -5 365.405 202.137  14
  -8   2   5 60.4569 138.566   2
   8  -2   5 540.930 260.943   6
   8   2  -5 708.580 271.657  13
  -8   2  -5 245.384 175.948   3
   8   2  -5 542.120 373.296   1
  -8   2  -5 223.367 182.703  12
   8   2  -5 734.999 552.720  11
   8  -2   5 439.760 216.771   1
  -8  -2   5 384.329 300.224  19
  -8  -2   5 407.816 347.899   5
  -8   2  -5 402.513 201.783  20
  -8   2  -5 234.731 216.424   5
  -8   2  -5 394.397 133.069  10
  -8  -2  -5-277.432 330.596  19
  -8   2   5 272.308 192.447  19
  -8   2  -5 333.528 187.529  19
  -8   2   5 244.039 177.009   5
  -8  -2   5 287.350 274.014   2
   8   2  -5 498.190 406.228  18
   8   2   5 300.462 381.680   8
  -8  -2   5 203.069 71.5628   4
  -8  -2   5 116.300 226.595  17
  -8   2  -5 307.318 200.755   4
   8   2  -5 755.714 422.257   8
   8  -2   5 288.558 261.165   8
  -8   2   5 54.6906 156.334   4
   8  -2  -5 202.110 147.588   1
   8   2  -6 93.5813 146.189  14
   8  -2   6 128.415 128.821  14
   8  -2  -6 57.6720 102.696  14
   8  -2   6 139.527 131.001   6
  -8   2   6-269.564 186.589   2
   8  -2   6 169.463 184.594   1
   8   2  -6 218.117 157.253  13
  -8   2  -6 5.04744 47.1472   3
  -8   2  -6 63.2325 115.057  12
   8  -2  -6 162.355 151.523   1
   8   2  -6 85.0855 113.438   1
   8   2  -6 105.176 103.648  11
  -8   2  -6 65.1982 159.939   5
  -8  -2   6 60.7545 92.9630   5
  -8   2  -6 131.556 123.224  20
  -8  -2  -6-282.155 358.141  19
  -8   2  -6 170.994 126.175  10
   8   2  -6-42.4568 89.2962  10
  -8   2  -6 81.0980 125.301  19
  -8  -2   6 135.525 141.770  19
   8   2  -6 135.816 169.828   9
  -8   2   6-95.8718 173.706   5
  -8   2  -6-25.2468 69.0011   9
  -8  -2   6 89.7351 125.227   2
   8   2  -6 81.8227 152.787  18
   8   2   6 126.627 215.527   8
  -8  -2   6 17.1702 21.8139   4
  -8  -2   6 72.2393 86.8527  17
  -8   2  -6 256.653 247.091   4
   8  -2   6 172.205 279.461   8
   8   2  -6 109.869 105.817   8
   8  -2   6 13.2797 140.725  16
   8   2  -7 535.156 284.538  14
   8  -2   7 963.804 394.617  14
   8   2  -7 133.068 50.2270  10
   8  -2  -7 224.716 208.054  14
   8  -2   7 1050.16 380.947   6
  -8   2  -7 338.711 233.225  12
  -8   2  -7 336.923 166.077   3
   8   2  -7 1064.09 434.857  11
  -8   2  -7 520.004 320.668   5
   8   2  -7 746.045 397.629   1
  -8  -2   7 717.620 398.473   5
  -8   2  -7 499.479 206.850  20
  -8   2  -7 357.630 135.623  10
  -8  -2   7 523.885 224.721  19
   8  -2  -7 231.376 174.665   1
   8   2  -7 583.582 257.787   9
  -8   2   7 413.241 226.569   5
  -8   2  -7-59.1642 138.534   9
   8   2  -7 924.710 380.219  18
   8   2   7 679.230 405.708   8
  -8   2  -7 377.688 333.312   4
  -8  -2   7 541.988 304.812   4
  -8  -2   7 483.301 267.921  17
   8  -2   7 755.732 415.729   8
   8   2  -7 785.077 305.888   8
  -8  -2   7 329.089 127.956  16
  -8  -2  -7-276.781 435.626  19
   8  -2   7 622.661 291.789  16
  -8   2  -7 610.035 297.541  19
  -8   2  -7 1088.92 598.847  15
  -8  -2   7 840.280 363.002   2
   8  -2   7 1052.21 363.679   1
   8   2  -8 11.3181 89.3586  14
   8  -2   8-16.6869 71.0942  14
   8  -2   8-40.8773 116.490   6
   8   2  -8-6.90163 22.2255   3
  -8   2  -8-44.8481 51.6295  13
  -8   2  -8 70.9833 179.625  12
  -8   2  -8 111.046 179.531   3
  -8   2  -8 36.7301 106.722   5
   8   2  -8 76.3354 88.1669  10
   8   2  -8-152.854 228.981  11
  -8   2  -8 32.8206 90.4110  20
   8   2  -8-103.632 168.165   1
  -8   2  -8-42.7834 136.684  10
  -8   2  -8-40.5979 80.3380  19
  -8  -2   8 100.514 121.018  19
   8   2  -8 16.0358 98.3077   9
   8   2  -8-87.9351 177.185  18
   8   2   8-76.9725 168.870   8
  -8  -2   8-25.8156 76.0852   2
  -8   2  -8 57.2995 177.920   4
  -8  -2   8 3.25553 139.109   5
  -8  -2   8 72.8298 127.317   4
  -8  -2   8-54.8250 168.997  17
   8  -2   8-102.988 212.543   8
   8   2  -8-63.3310 130.874   8
  -8  -2   8 7.81646 41.2139  16
   8  -2   8-59.2116 64.8964  16
   8  -2   8-62.3203 88.7900   1
  -8   2  -8 402.981 487.393   7
  -8   2  -8 224.114 312.544  15
   8   2  -9 495.532 276.740  14
   8  -2   9 1186.31 451.355  14
   8  -2   9 1337.84 473.075   6
  -8   2  -9 34.4186 84.3778  13
  -8   2  -9 547.060 346.426  12
  -8   2  -9 405.952 270.429   3
   8   2  -9 853.768 415.082  11
  -8   2  -9 535.668 227.926  20
  -8  -2   9 826.839 432.923   5
  -8   2  -9 132.111 47.5780  10
   8   2  -9 833.854 381.685   1
   8   2  -9-79.6657 176.738  10
  -8  -2   9 759.844 276.847  19
   8   2  -9 378.305 212.354   9
   8   2  -9 1018.68 440.523  18
   8   2   9 702.266 479.039   8
  -8   2  -9 363.503 260.774   4
   8  -2   9 806.886 309.053   1
  -8  -2   9 954.230 425.726   2
  -8  -2   9 632.144 314.580  17
   8  -2   9 1365.78 516.693   8
  -8  -2   9 777.225 369.757   4
  -8   2  -9 397.220 269.773  19
   8  -2   9 1141.81 425.490  16
  -8  -2   9 862.580 258.852  16
   8   2  -9 362.491 185.535   8
  -8   2  -9 844.692 552.559   7
  -8   2  -9 600.341 444.881  15
   8   2  -9 787.373 174.631   3
   8   2 -10 575.678 180.375   3
   8  -2  10 509.092 297.911  14
  -2   8 -10 558.723 291.290   3
   8   2 -10 277.141 215.145  14
   8  -2  10 604.360 319.694   6
   2   8 -10 374.541 269.542  13
  -8   2 -10 143.901 137.415  13
   2  -8  10 135.375 260.590   6
   8   2 -10 588.984 350.880  11
  -8   2 -10 178.798 140.347  20
  -8  -2  10 590.936 423.728   5
  -8   2 -10 258.624 236.371  19
  -8   2 -10-6.96109 155.988  10
   8   2 -10-451.345 346.317  10
   8  -2  10 281.398 140.662   1
   2   8 -10-452.290 450.091  18
   8   2 -10-169.210 271.672   9
   8   2 -10 373.058 267.373   1
   8   2 -10 524.945 315.675  18
   8   2  10 109.196 232.410   8
  -8   2 -10-189.960 208.174   4
  -8  -2  10 506.587 219.093  19
  -8  -2  10 488.124 287.810   2
   8  -2  10 945.296 467.313   8
  -8  -2  10 557.660 413.828  17
  -8  -2  10 332.375 224.984   4
   8  -2  10 629.408 322.101  16
  -8  -2  10 430.146 197.634  16
  -8   2 -10 216.925 298.108   7
  -8   2 -10 317.351 347.694  15
   8  -2  11 965.935 422.969  14
   8   2 -11 375.088 230.076  14
  -2   8 -11 1013.85 440.855   3
   8  -2  11 1188.77 464.466   6
  -2   8 -11 124.608 347.047  13
   2   8 -11 726.819 443.568  13
  -8   2 -11 39.5168 137.124  13
   2  -8  11 163.845 217.426   6
  -2  -8  11 78.2690 125.604   6
   8  -2  11 149.651 148.225   1
   8   2 -11 608.200 310.595  11
  -8   2 -11 206.180 178.589  20
  -8  -2  11 872.928 447.530   5
  -8   2 -11 195.488 211.663  19
  -8   2 -11-92.1564 285.283  10
   8   2 -11-614.272 503.831  10
  -8  -2  11 502.914 224.849  19
   2   8 -11 196.147 276.175  18
   8   2 -11-69.2906 225.610   9
   8   2 -11 588.188 369.081  18
   8   2 -11 702.468 384.634   1
   8   2  11-12.9662 394.030   8
  -8  -2  11 740.823 395.461   2
   8  -2  11 1145.33 533.682   8
  -8  -2  11 602.907 329.125  17
  -8  -2  11 654.744 307.855   4
   8  -2  11 962.418 427.889  16
  -8  -2  11 750.135 280.233  16
  -8   2 -11 90.1692 232.759   7
  -8   2 -11-57.7261 341.111  15
   8   2 -12 614.741 292.698  14
   2   8 -12 1974.46 712.650  13
  -2   8 -12 1050.42 488.417  13
  -2   8 -12 1334.32 418.894  12
   2  -8  12 326.207 256.611   6
  -2  -8  12 120.575 72.8151   6
   8   2 -12 1023.11 491.785  11
  -8   2 -12-96.9704 369.830  20
  -8  -2  12 1522.27 592.449   5
  -8   2 -12 405.687 307.554  19
  -8   2 -12-284.274 368.537  10
  -8  -2  12 584.133 205.019  19
  -2   8 -12 906.261 250.532  18
   2   8 -12 954.046 572.027  18
   8   2 -12 912.872 427.508  18
  -2  -8  12 19.7794 292.302  17
   8   2 -12 1293.17 507.712   1
   8  -2  12 2352.59 764.755   8
  -8  -2  12 1760.47 565.607   2
  -8  -2  12 1330.14 601.035  17
  -8  -2  12 1304.05 419.348   4
   8  -2  12 2333.30 678.265  16
  -8  -2  12 1610.58 437.296  16
  -8   2 -12 14.0852 534.297   7
   8   2 -12 307.866 196.198   9
  -8   2 -12-57.8659 489.509  15
   2   8 -12 1941.79 595.770   3
   8  -2  12 2301.10 667.928   6
  -2   8 -12 2040.88 657.046   3
   8  -2  12 1911.98 591.776  14
   8   2 -13 93.5200 123.273  14
   8  -2  13 416.690 296.905   6
   2   8 -13 277.061 239.366   3
  -2   8 -13 386.554 292.269   3
  -2   8 -13 443.531 349.432  13
   2   8 -13 536.724 387.693  13
   2  -8  13 137.450 213.129   6
  -2  -8  13 126.737 149.868   6
  -2   8 -13 423.165 240.963  12
   8   2 -13-37.1601 187.014  11
  -8   2 -13-789.691 423.489  20
  -8  -2  13 421.369 320.002   5
  -2   8 -13 564.436 384.610  18
   2   8 -13 189.619 274.608  18
   8   2 -13 43.9095 148.655   9
   8   2 -13 171.530 215.383  18
   2  -8  13 143.156 337.041  17
  -2  -8  13-85.8579 278.344  17
  -8   2 -13 49.1852 11.9439  19
   8  -2  13 603.895 400.097   8
   8   2 -13 168.990 147.182   1
  -8  -2  13 591.285 390.697   2
  -8  -2  13 298.897 187.088  17
  -8  -2  13 349.380 199.242   4
   8  -2  13 398.338 307.011  16
  -8  -2  13 528.842 295.480  16
  -8   2 -13-812.051 770.941  15
   8  -2  13 418.536 259.571  14
   8   2 -14 430.928 253.241  14
   2   8 -14 937.030 646.932  18
  -2   8 -14 1307.07 577.111  13
   2   8 -14 2200.43 757.081  13
  -2  -8  14 284.003 223.347   6
   2  -8  14 436.120 309.097   6
  -2   8 -14 1967.81 550.826  12
   8   2 -14 785.557 369.482  11
  -8  -2  14 1867.01 668.965   5
  -8   2 -14 203.848 268.848  19
  -2   8 -14 1835.81 522.632  18
   8   2 -14 5.83515 187.286   9
  -8  -2  14 1669.16 506.862   4
   8  -2  14 3884.98 1035.91   8
  -2   8 -14 1585.22 393.467   4
   8   2 -14 960.028 494.750  18
   2  -8  14 271.764 194.397  17
  -2  -8  14-92.7577 312.721  17
  -8  -2  14 1390.38 541.685   2
  -8  -2  14 1813.80 719.343  17
   8  -2  14 2238.40 749.519  16
  -8  -2  14 2258.64 562.525  16
   8   2 -14 921.984 388.638   1
   8  -2  14 2361.66 719.298   6
   2   8 -14 2361.43 682.001   3
   8  -2  14 2017.63 667.519  14
  -2   8 -14 2285.99 725.538   3
   8  -2  15 851.799 464.590   6
   8   2 -15 92.1040 151.924  14
   2   8 -15 808.288 386.325   3
   2  -8  15 155.230 139.492  14
  -2   8 -15 437.170 336.673   3
  -2   8 -15 355.664 316.224  13
   2   8 -15 380.669 328.997  13
  -2  -8  15 129.230 169.583   6
   2  -8  15 338.628 335.422   6
  -2   8 -15 475.875 338.430  12
   8   2 -15 158.179 240.022  11
  -8  -2  15 374.898 325.360   5
  -8   2 -15 76.9437 13.4298  19
  -2   8 -15 509.120 279.133  18
   2   8 -15 295.844 331.443  18
   8   2 -15 87.4695 51.3067   9
   8   2 -15 87.4976 108.032  18
   2  -8  15 310.356 268.583  17
  -2  -8  15 58.2165 99.6281  17
   8  -2  15 1251.75 641.946   8
  -8  -2  15 379.928 391.757  17
  -8  -2  15 621.525 352.118   2
  -8  -2  15 383.672 269.054   4
   8   2 -15 130.904 189.046   1
   8  -2  15 750.877 476.303  16
  -8  -2  15 482.386 256.718  16
   8  -2  15 650.889 443.918  14
   8  -2  16 1191.45 510.854   6
   8   2 -16 123.293 145.974  14
   2   8 -16 1224.65 460.492   3
  -2   8 -16 1287.45 537.699   3
  -2  -8  16 86.6567 132.923   6
  -2   8 -16 896.267 506.826  13
   2  -8  16 357.955 175.757   6
   2   8 -16 1226.30 580.316  13
   8   2 -16 525.885 458.412  11
  -2   8 -16 1110.23 428.614  12
   2   8 -16 735.365 264.827  12
  -8  -2  16 1339.39 575.757   5
  -2   8 -16 1032.51 403.984  18
   2   8 -16 574.949 452.864  18
   8   2 -16-833.846 506.005   9
  -8   2 -16 192.754 166.963  19
   8   2 -16 622.174 450.526  18
   2  -8  16 705.401 411.534  17
  -2  -8  16 682.273 454.740  17
   8  -2  16 1626.96 706.759   8
  -8  -2  16 884.159 594.675  17
  -8  -2  16 1239.92 581.868   2
  -8  -2  16 939.817 349.483   4
   8  -2  16 1615.80 624.655  16
  -8  -2  16 1337.89 488.754  16
   8   2 -16 595.572 372.983   1
   8  -2  16 619.567 237.887  14
   8  -3   0 208.623 176.485  14
   8  -3   0 195.234 135.229   6
  -8  -3   0-50.4835 149.063  19
   8  -3   0 228.001 197.776   1
  -8   3   0 196.808 150.976  19
  -8   3   0 217.206 201.169   5
   8   3   0 676.448 343.555  18
   8   3   0 579.547 458.991   1
   8   3   0 632.728 526.469   8
  -8  -3   0-295.806 254.425  17
   8  -3   0 36.7207 63.7380   8
  -8   3   0 218.286 166.007   4
   8   3   1 3751.43 942.695   1
   8   3  -1 3641.62 894.712   1
  -8   3  -1 1689.85 425.715  12
  -8   3  -1 3122.84 696.672   5
   8  -3   1 2837.13 593.419   1
  -8   3   1 2789.52 671.064   5
   8  -3  -1 2020.83 518.379   1
  -8  -3  -1-115.557 252.936  19
  -8   3   1 3712.47 699.687  19
  -8  -3   1 222.314 347.422  19
   8   3   1 3718.65 806.191  18
   8   3  -1 4801.63 822.707  18
   8   3   1 3636.56 945.161   8
   8   3  -1 4957.88 933.097   8
  -8   3  -1 3699.54 709.559  19
  -8   3  -1 3148.18 691.365   4
  -8   3   1 2564.02 608.284   4
   8  -3   1 2134.96 643.046   8
  -8  -3   1 533.244 452.202  17
   8  -3  -1 1239.96 464.043   8
   8  -3   1 3129.04 584.991   6
   8  -3   1 3119.54 640.991  14
   8  -3  -1 2034.09 514.906  14
   8  -3  -1 1741.64 420.242   6
   8   3  -1 965.507 470.240  14
   8  -3   2-51.3186 132.645  14
   8  -3  -2 9.25080 89.1588  14
   8  -3   2-21.3532 24.8806   6
  -8   3  -2 20.3433 67.3788  12
   8   3   2-81.3802 178.635   1
   8  -3  -2-25.5576 123.452   1
  -8  -3   2 662.765 624.339  19
  -8   3   2-30.2076 172.432  19
  -8   3  -2-31.1725 70.3441   5
  -8   3  -2-160.430 212.709  19
   8   3   2-467.779 410.220  18
  -8   3   2-80.5098 162.388   5
   8   3  -2 131.492 317.899  18
   8   3   2-77.1457 234.273   8
   8   3  -2 429.974 471.934   8
  -8  -3   2 3.76443 407.417  17
   8   3  -2 315.480 417.650   1
   8  -3   2-18.2267 32.5882   1
   8  -3   2-117.742 299.231   8
  -8   3  -2-86.5546 121.717   4
  -8   3   2-269.493 277.548   4
   8   3  -2-141.323 163.694  14
  -8   3  -3 94.3248 84.5445   3
   8  -3  -3 559.495 288.092  14
   8   3  -3 460.239 191.252  13
  -8   3  -3 1149.17 426.365   5
   8   3  -3 1985.07 594.800   1
  -8   3  -3 925.357 307.024  12
   8  -3   3 1375.42 391.181   1
  -8   3  -3 735.047 161.405   2
  -8   3  -3 1238.05 412.030  19
  -8   3   3 1369.01 417.235  19
  -8  -3  -3-247.230 541.698  19
  -8  -3   3 376.519 432.978  19
   8   3  -3 1967.83 562.141  18
  -8   3   3 804.289 329.315   5
  -8   3  -3 1402.29 476.327   4
   8   3  -3 2370.80 624.506   8
   8   3   3 870.268 508.701   8
  -8  -3   3 688.145 509.920  17
   8  -3   3 1302.90 445.538   8
   8  -3  -3 556.332 266.441   1
   8  -3   3 1553.25 440.395   6
   8  -3   3 1533.65 439.819  14
   8   3  -3 259.727 284.696  14
   8  -3   4 100.198 103.861  14
  -8   3  -4 106.219 155.337   3
   8  -3  -4 98.8566 166.779  14
   8  -3   4 184.947 132.496   1
   8   3  -4 106.804 57.1660  13
   8  -3   4 253.285 193.807   6
  -8  -3   4 144.410 73.4944  12
  -8   3  -4 145.324 93.9981  12
  -8   3  -4 177.970 157.262   5
  -8  -3   4 23.6061 38.2007  19
  -8   3  -4 146.763 163.779  19
   8   3  -4 120.950 186.957  18
   8   3   4-111.540 448.827   8
  -8  -3   4 284.335 210.402  17
   8   3  -4 431.043 243.588   8
   8  -3   4 243.715 191.461   8
  -8   3   4-171.741 281.865   5
  -8   3  -4 175.125 136.621   4
   8   3  -4 37.8978 124.626   1
   8   3  -4-6.72900 92.9001  14
  -8   3  -4 103.470 55.0943   2
   8  -3   5 150.813 156.169  14
  -8   3  -5-9.23821 60.5703   3
   8   3  -5 15.1571 9.59200  13
   8  -3   5 34.5680 72.5369   6
  -8   3  -5 314.413 282.418  12
   8   3  -5 174.557 183.929  20
  -8  -3   5 17.6070 91.5484   2
  -8  -3   5 6.54814 79.6241  19
  -8   3  -5 82.9113 224.221  19
   8   3  -5 71.0760 32.6542  18
   8   3   5-172.583 436.618   8
  -8  -3   5 106.788 145.469  17
   8   3  -5 139.357 200.592   8
   8  -3   5 39.3326 64.2384   8
  -8   3  -5 305.005 270.619   4
   8  -3   5-6.64830 63.7959   1
   8   3  -5-36.1426 106.632   1
   8   3  -5-22.1433 129.178  14
  -8   3  -5 251.543 260.692   5
   8  -3   6 210.808 199.691  14
  -8   3  -6 144.931 153.629   3
   8  -3   6 269.766 204.404   6
   8   3  -6 209.493 125.689  13
  -8   3  -6 89.9535 184.256  12
   8   3  -6 910.638 469.227  11
  -8  -3   6 35.5700 156.442   5
   8   3  -6 125.227 87.6042  20
  -8   3  -6 150.172 121.031   5
  -8  -3   6 130.626 153.024  19
  -8  -3   6 268.924 236.911   2
  -8   3  -6 152.258 172.705  19
   8  -3   6 248.715 149.102   1
   8   3  -6 318.602 272.410  18
  -8  -3   6-233.826 335.857   4
   8   3   6-367.795 640.176   8
  -8  -3   6 65.0743 96.1724  17
   8   3  -6 203.618 170.261   8
  -8   3  -6 262.335 220.830   4
   8  -3   6 340.973 211.837   8
   8   3  -6 295.508 254.694   1
   8   3  -6 10.6285 50.9637  14
  -8   3  -7 46.2689 125.958  19
   8  -3   7 6.16216 20.2608  14
   8   3  -7 55.0037 108.015   1
   8  -3   7 24.4907 16.5316   6
   8   3  -7 194.656 194.590  13
  -8   3  -7 43.3080 144.308   3
  -8   3  -7 63.5544 46.6609  12
   8   3  -7 358.979 329.536  11
  -8  -3   7 21.1033 190.443   5
   8  -3   7 79.1000 95.9619   1
  -8   3  -7 93.7312 191.379   5
   8   3  -7 219.776 173.119  20
  -8  -3   7 91.9005 181.622  19
  -8  -3   7-46.5097 142.454   2
   8   3  -7 104.798 90.9091  18
   8   3   7-572.305 821.110   8
  -8  -3   7-171.196 328.874   4
  -8  -3   7-0.74447 76.4803  17
  -8   3  -7 44.3089 134.405   4
   8   3  -7 20.5020 106.331   8
   8  -3   7 0.35015 66.3825   8
   8   3  -7 371.672 264.090  10
   8   3  -7 6.79544 53.9264  14
   8   3  -8 1002.27 456.630   1
   8  -3   8 1343.17 444.465   6
   8   3  -8 1319.37 410.196  13
  -8   3  -8 387.511 241.376   3
   8  -3   8 1369.79 392.808   1
  -8   3  -8 693.456 328.358  12
   8   3  -8 1441.88 556.902  11
  -8  -3   8 427.417 330.054   5
  -8   3  -8 968.058 418.520   5
  -8   3  -8 1375.95 482.463  20
   8   3  -8 367.550 248.963  20
  -8   3  -8 1305.34 384.148  10
  -8  -3   8 893.427 339.537  19
  -8   3  -8 863.433 356.529  19
  -8  -3   8 836.496 383.567   2
   8   3  -8 1169.27 493.674  18
  -8  -3   8 235.829 98.8366   4
   8   3  -8 1127.72 379.238  10
  -8  -3   8 750.178 442.000  17
  -8   3  -8 770.690 395.042   4
   8  -3   8 1486.47 548.562   8
   8   3  -8 1142.52 369.123   8
   8  -3   8 395.578 189.399  16
   8  -3   8 1268.63 432.248  14
   8   3  -8 404.477 252.481  14
   8   3  -9 86.5190 61.4236   3
   8  -3   9 220.477 205.682  14
   8  -3   9 203.458 191.308   6
  -8   3  -9-79.0949 141.444  13
   8   3  -9 140.996 150.504   1
   8   3  -9 425.980 230.417  13
  -8   3  -9 90.3686 174.015   3
  -8   3  -9-17.6352 111.387  12
   8   3  -9 282.738 306.720  11
  -8   3  -9 204.746 252.930   5
  -8  -3   9 55.9545 80.4057   5
  -8   3  -9 260.429 227.873  20
   8   3  -9-168.024 275.024  20
  -8   3  -9 105.666 54.4959  10
   8   3  -9 300.989 223.041  10
  -8   3  -9 101.251 145.175  19
  -8  -3   9 40.2656 22.6353  19
   8   3  -9 797.346 487.762   9
  -8   3  -9 366.474 221.731   9
  -8  -3   9 107.778 190.066   2
   8   3  -9 233.829 202.620  18
  -8  -3   9 102.154 156.375   4
  -8   3  -9 177.357 226.916   4
  -8  -3   9-63.0813 122.438  17
   8  -3   9 333.770 291.850   8
  -8  -3   9-47.0104 162.216  16
   8   3  -9 45.8066 89.0663   8
   8  -3   9 136.378 144.834  16
   8  -3   9 309.648 216.458   1
   8   3  -9 83.6819 111.617  14
  -3   8 -10 461.452 300.808   3
   8  -3  10 380.944 282.981  14
   8  -3  10 488.716 287.729   6
   8   3 -10 369.569 141.432   3
   3   8 -10 306.198 207.847  13
  -8   3 -10 140.872 146.957  13
   8   3 -10 604.953 335.231  13
   8   3 -10 282.426 237.410   1
  -8   3 -10 166.177 224.624  12
   3  -8  10 33.1839 153.126   6
  -8   3 -10 132.427 110.882   3
  -8   3 -10 64.5646 52.6122   5
   8   3 -10 249.324 124.874  11
  -8  -3  10 509.920 376.185   5
  -8   3 -10 263.509 228.189  20
   8   3 -10-301.584 468.948  20
  -8   3 -10 169.760 189.419  10
   8   3 -10 44.6715 76.7203  10
  -8   3 -10 258.809 233.112  19
  -8  -3  10 299.776 175.595  19
   8   3 -10 199.540 128.311   9
  -8   3 -10 230.325 136.908   9
   3   8 -10-104.578 279.477  18
  -8  -3  10 352.536 291.052   2
   8   3 -10 246.238 218.465  18
  -8  -3  10 278.501 214.004   4
  -8   3 -10 244.576 215.574   4
  -8  -3  10 493.992 389.808  17
   8  -3  10 387.926 226.330   1
   8  -3  10 387.318 315.047   8
  -8  -3  10 172.220 119.210  16
   8  -3  10 399.449 268.612  16
   8   3 -10 160.426 148.648   8
  -8   3 -10 877.916 605.745   7
  -8   3 -10 818.001 587.702  15
   8   3 -10 71.6085 8.72025  14
  -8   3 -11 1029.43 355.918  10
   3   8 -11 2034.22 747.309  13
  -8   3 -11 42.8637 130.094  13
  -3   8 -11 1401.56 439.733  12
  -8   3 -11 978.628 413.977  12
   3  -8  11 470.180 316.296   6
  -3  -8  11 5.53931 78.8478   6
   8   3 -11 1590.44 536.581   1
  -8   3 -11 632.049 382.684   3
   8   3 -11 1883.79 675.380  11
  -8  -3  11 1268.20 544.642   5
  -8  -3  11 1207.22 347.167  19
   8   3 -11 487.008 218.011  10
  -8   3 -11 931.794 392.878  19
  -8   3 -11 1403.77 496.603  20
   8   3 -11 1202.65 484.091   9
  -8   3 -11 643.278 194.134   9
   3   8 -11 744.605 625.636  18
   8  -3  11 827.857 332.996   1
   8   3 -11 1537.52 580.324  18
  -8  -3  11 1852.55 651.230   2
  -8   3 -11 682.571 371.617   4
  -8  -3  11 1023.12 407.314   4
  -8  -3  11 1339.72 590.459  17
   8  -3  11 2711.54 751.573   8
  -8  -3  11 1561.38 409.166  16
   8  -3  11 2011.67 637.783  16
  -8   3 -11 1681.71 792.501   7
  -3   8 -11 2120.53 660.665   3
   8  -3  11 1772.00 579.328   6
  -8   3 -11 1753.86 784.733  15
   8  -3  11 2367.02 659.385  14
   8   3 -11 1695.06 321.877   3
   8   3 -11 209.581 180.119  14
   3   8 -12 217.021 394.595  18
   8  -3  12 445.497 308.397  14
  -3   8 -12 328.699 285.188   3
  -8   3 -12 280.692 197.567   9
   8  -3  12 431.460 328.565   6
  -3   8 -12-224.947 449.297  13
   3   8 -12 125.737 37.4387  13
  -8   3 -12 81.5125 129.815  13
   8   3 -12 284.970 152.103   3
   3  -8  12 100.778 160.332   6
  -8   3 -12 436.347 377.749  12
  -3  -8  12 8.05577 92.5919   6
  -8   3 -12 439.453 381.307   3
  -3   8 -12 333.293 212.508  12
   8   3 -12 192.597 187.997   1
   8   3 -12 91.3040 128.699  11
   8  -3  12 32.3692 81.8254   1
  -8  -3  12 112.794 168.294   5
  -8   3 -12 305.868 299.521  20
  -8   3 -12 320.663 218.913  10
  -8   3 -12 213.568 217.882  19
  -8  -3  12 142.666 50.0044  19
   8   3 -12 208.943 67.1332   9
   8   3 -12 409.934 328.082  18
  -8   3 -12 18.3330 104.809   4
  -8  -3  12 364.448 338.593   2
  -3  -8  12 568.448 513.081  17
  -8  -3  12 193.913 175.419   4
  -8  -3  12 34.2689 212.834  17
   8  -3  12 635.635 492.778   8
  -8  -3  12 352.999 249.482  16
   8  -3  12 374.747 289.718  16
  -8   3 -12 452.996 380.877   7
  -8   3 -12 304.655 388.737  15
   8   3 -12 110.408 142.444  10
   8   3 -12 91.1629 127.173  14
   3   8 -13 3772.00 980.254  13
  -3   8 -13 1181.42 536.630  13
  -8   3 -13 8.82812 152.082  13
  -3  -8  13 267.021 180.143   6
   3  -8  13 805.067 409.853   6
  -3   8 -13 2666.66 633.470  12
  -8   3 -13 1452.78 592.225  12
   8   3 -13 2178.67 663.216   1
  -8   3 -13 1038.69 465.729   3
   8   3 -13 2725.98 826.032  11
  -8  -3  13 1966.14 697.662   5
  -8   3 -13 1289.66 468.324  20
  -8  -3  13 1107.81 307.510  19
  -8   3 -13 538.515 235.952  10
  -8   3 -13 957.672 422.012  19
   8   3 -13 789.679 384.488  10
  -3   8 -13 1917.28 539.089  18
   3   8 -13 2149.76 867.811  18
   8   3 -13 1642.66 585.353   9
   8   3 -13 2796.79 826.877  18
  -8   3 -13 362.412 143.936   9
  -8  -3  13 1740.26 503.654   4
   8  -3  13 4188.99 972.263   8
  -3   8 -13 2552.96 521.138   4
  -8  -3  13 2616.43 745.873   2
  -3  -8  13 247.430 331.503  17
  -8  -3  13 2396.77 761.454  17
   8  -3  13 3390.14 865.902  16
  -8  -3  13 2822.22 604.547  16
  -8   3 -13 1321.46 646.306   7
  -8   3 -13 1597.40 731.805  15
   3   8 -13 3179.02 748.044   3
   8  -3  13 3770.22 876.893   6
  -3   8 -13 3450.18 901.328   3
   8  -3  13 4068.50 867.390  14
   8   3 -13 368.198 235.582  14
   8   3 -13 3176.34 500.462   3
   3   8 -14 225.216 200.206   3
   8  -3  14 46.8743 123.268   6
   3  -8  14 118.891 120.388  14
  -3   8 -14 542.234 406.093   3
  -3   8 -14 237.320 340.162  13
   3   8 -14 242.059 260.280  13
  -3  -8  14 10.6788 95.0744   6
  -8   3 -14-98.1823 125.680  13
   3  -8  14 49.6094 129.470   6
   8   3 -14 36.5526 128.081  10
   8   3 -14 324.250 202.839   3
  -3   8 -14 189.977 239.557  12
  -8   3 -14-82.1680 78.4658   3
   8   3 -14 146.953 282.207  11
  -8  -3  14 242.915 364.676   5
   8   3 -14 296.487 248.122   1
  -8   3 -14-185.223 181.860  20
  -8   3 -14 197.444 229.210  19
  -8   3 -14 155.951 197.862  10
   8   3 -14-595.737 457.646   9
  -3   8 -14 210.310 216.927  18
   3   8 -14 275.772 357.891  18
  -8   3 -14-48.4484 169.234   9
   8   3 -14 170.248 208.676  18
  -8  -3  14 222.002 273.163   2
   3  -8  14-111.058 166.844  17
  -3  -8  14-79.1094 115.514  17
  -8  -3  14 206.014 197.650   4
   8  -3  14 352.768 383.373   8
  -8  -3  14-51.6798 64.5224  17
   8  -3  14 238.571 210.421  16
  -8  -3  14 47.8074 33.4497  16
  -3   8 -14 198.884 168.403   4
  -8   3 -14-548.185 613.639   7
  -8   3 -14-181.616 454.603  15
   8   3 -14-38.7139 143.336  14
   8  -3  14 128.000 112.155  14
  -3   8 -15 1957.53 710.927  13
  -3  -8  15 314.885 224.341   6
   3   8 -15 2404.29 782.067  13
   3  -8  15 1193.44 552.481   6
  -8   3 -15 61.6850 207.034  13
  -3   8 -15 2089.36 620.816  12
   8   3 -15 69.5216 347.997  10
   8   3 -15 1790.86 749.732  11
  -8  -3  15 1974.47 699.612   5
  -8   3 -15 453.789 369.750  20
   8   3 -15 1409.53 573.044   1
  -8   3 -15 363.174 188.134  19
  -8   3 -15 121.342 83.8722  10
  -3   8 -15 2092.44 557.826  18
   3   8 -15 1732.91 818.205  18
   8   3 -15 238.164 128.969   9
  -8   3 -15-134.100 297.671   9
  -3   8 -15 2383.42 547.920   4
   8   3 -15 1461.52 612.738  18
  -8  -3  15 1874.10 678.868   2
   3  -8  15 1158.52 432.280  17
  -3  -8  15 627.427 391.849  17
  -8  -3  15 1617.45 486.065   4
   8  -3  15 2511.86 785.363   8
  -8  -3  15 1981.37 766.796  17
   8  -3  15 2180.95 706.358  16
  -8  -3  15 1951.70 532.249  16
  -8   3 -15-584.529 813.956   7
  -8   3 -15-1473.11 785.652  15
   8  -3  15 2583.96 776.287   6
   3   8 -15 2815.50 734.726   3
   8  -3  15 2411.86 716.449  14
  -3   8 -15 1957.41 705.758   3
   3  -8  15 1105.56 322.097  14
   8   3 -15 158.523 165.970  14
   8  -3  16 365.849 307.024   6
   8   3 -16 76.0616 73.4595   1
   3  -8  16 256.416 188.343  14
   3   8 -16 245.113 261.740   3
  -3   8 -16 376.321 383.985   3
  -3  -8  16 86.1201 233.715   6
  -3   8 -16 357.810 349.609  13
   3  -8  16 107.280 147.802   6
   3   8 -16 354.163 318.632  13
  -8   3 -16 469.886 361.604  13
  -3   8 -16 279.432 223.653  12
   8   3 -16 72.0295 171.641  11
  -8  -3  16 173.830 237.589   5
  -8   3 -16-221.210 326.316  20
  -8   3 -16 14.1490 147.586  19
  -8   3 -16-58.5701 249.972  10
   8   3 -16-435.354 569.880  10
   8   3 -16-123.208 338.015   9
  -3   8 -16 237.425 199.267  18
   3   8 -16 39.1504 187.096  18
   8   3 -16 120.823 60.9104  18
  -8  -3  16 349.113 315.446   2
   3  -8  16 200.087 307.306  17
  -3  -8  16 178.865 323.079  17
  -8  -3  16 159.632 134.443   4
   8  -3  16 351.751 350.042   8
  -8  -3  16 92.1814 277.147  17
   8  -3  16 271.523 317.226  16
  -8  -3  16 207.741 169.346  16
   8  -3  16 240.503 189.348  14
   8   4   0 2889.91 805.136   1
  -8   4   0 2498.01 595.979   5
   8  -4   0 1255.47 387.802   1
  -8   4   0 3344.61 688.809  19
   8   4   0 3359.59 745.509  18
   8   4   0 2724.80 771.755   8
   8  -4   0 1633.75 464.513  14
   8  -4   1 17.0558 33.1175  14
   8  -4   1 17.7269 65.6038   6
  -8  -4   1-770.272 408.477  19
   8   4  -1 461.188 417.914   1
  -8   4  -1-67.2900 129.214  19
  -8   4   1-137.086 233.463  19
  -8   4  -1-323.197 219.849   5
   8   4  -1 673.057 449.873  18
   8  -4   1-4.20984 78.5861   1
   8   4   1-281.837 451.299   8
   8   4  -1 210.420 338.127   8
   8  -4   1-114.214 253.521   8
  -8   4  -1-160.367 232.282   4
  -8   4  -2 1565.42 426.202  12
  -8   4  -2 2288.90 596.789   5
   8  -4   2 1481.88 426.813   1
  -8   4  -2 3026.42 644.405  19
   8   4  -2 2615.00 728.857  18
   8   4  -2 3531.75 785.191   8
  -8   4  -2 2151.22 589.680   4
   8  -4   2 1419.12 547.273   8
   8   4   2 427.145 309.141   8
  -8  -4   2 191.613 254.621  17
   8  -4   2 1678.26 473.806   6
   8  -4   2 1780.22 495.882  14
   8  -4   3 18.4289 68.2394  14
   8  -4   3-63.8888 122.612   6
  -8   4  -3-28.4325 96.2880  12
  -8  -4   3 47.6469 171.946  19
   8  -4   3-100.021 147.430   1
  -8   4  -3-82.8924 145.956  19
  -8   4  -3 55.2391 42.8559   5
   8   4  -3 1184.25 639.879  18
   8   4  -3 1031.18 564.067   1
   8   4  -3 1134.62 628.646   8
  -8  -4   3-66.1852 193.977  17
   8  -4   3 23.8122 39.9243   8
  -8   4  -3-4.67746 107.282   4
   8  -4   4 305.950 203.678  14
   8   4  -4 66.3000 133.237  13
   8  -4   4 443.538 272.258   6
  -8   4  -4 401.276 218.278  12
  -8  -4   4 130.652 202.542  19
  -8   4  -4 421.164 230.416  19
   8   4  -4 770.983 420.388  18
   8   4  -4 506.562 334.037   1
   8   4  -4 1087.52 455.462   8
  -8  -4   4-74.6963 86.7879  17
   8  -4   4 360.990 280.498   8
  -8   4  -4 380.972 241.402   4
  -8   4  -4 375.931 240.474   5
   8  -4   4 253.607 153.424   1
  -8   4  -5-16.6048 145.852   3
   8  -4   5-14.0933 83.5143  14
   8   4  -5-53.6155 80.2365  13
   8  -4   5 3.98566 37.9668   6
  -8   4  -5-88.4751 167.829  19
  -8   4  -5-161.091 145.642  12
  -8  -4   5 191.734 226.930  19
  -8   4  -5-2.57393 23.6546   5
   8  -4   5-32.4715 76.9038   1
   8   4  -5 143.436 209.031  18
   8   4  -5-70.3674 164.804   1
  -8  -4   5 198.789 256.613  17
   8   4  -5 52.5271 18.4736   8
   8  -4   5-72.9032 240.331   8
  -8   4  -5 79.8947 162.165   4
   8  -4   6-1.29015 32.8509  14
  -8   4  -6 70.6315 119.470   3
   8   4  -6 72.5285 135.062  13
   8  -4   6 35.8394 132.714   6
   8  -4   6-46.1068 96.7145   1
  -8   4  -6 48.6970 109.643  12
  -8  -4   6 155.638 192.484  19
  -8   4  -6 131.352 147.403  19
   8   4  -6 116.864 164.331  18
  -8   4  -6 18.3795 104.658   5
  -8  -4   6-166.759 279.235  17
   8   4  -6 66.8540 65.2025   8
   8   4  -6 18.3050 70.8928   1
   8  -4   6 17.9119 86.5748   8
  -8   4  -6 51.5254 128.712   4
   8  -4   7 176.033 158.316  14
  -8   4  -7-7.65048 120.730   3
   8   4  -7 129.295 149.745  13
   8  -4   7 333.520 239.545   6
  -8   4  -7 189.141 166.703  12
  -8   4  -7 102.717 133.143   5
  -8  -4   7 60.9448 136.481  19
  -8   4  -7 179.530 166.107  19
   8   4  -7 147.204 107.137  18
  -8  -4   7-97.0859 176.646  17
   8   4  -7 233.662 235.155   8
   8   4  -7 177.265 245.505   1
  -8   4  -7 179.907 129.284   4
   8  -4   7 165.670 213.615   8
   8  -4   7 376.917 196.963   1
   8  -4   8 75.3021 101.948  14
  -8   4  -8 31.7437 199.688   3
   8  -4   8 7.88273 59.7501   6
   8   4  -8 80.0313 106.426  13
  -8   4  -8-6.45068 125.800  12
   8   4  -8 127.215 235.687  20
  -8   4  -8 71.3827 175.257   5
  -8  -4   8 161.930 174.123  19
  -8   4  -8 101.767 160.824  19
   8  -4   8 64.6581 74.0049   1
   8   4  -8 70.5886 148.086  18
  -8  -4   8 17.1165 133.245   2
  -8  -4   8 24.8765 156.548  17
   8   4  -8 36.1916 85.9747   8
  -8   4  -8-70.5979 145.365   4
   8  -4   8 43.1972 127.125   8
   8   4  -8 88.5582 207.675   1
   8  -4   9 103.273 118.026  14
   8  -4   9 226.769 210.566   6
  -8   4  -9-7.72134 59.5353   3
   8   4  -9 127.352 158.076  13
  -8   4  -9 92.6516 98.8442  12
   8  -4   9 67.5505 136.332   1
   8   4  -9 219.554 374.519  11
   8   4  -9 125.845 102.925  20
  -8   4  -9 65.6370 178.848   5
  -8  -4   9 2.03159 110.924  19
  -8  -4   9 63.7585 204.971   2
  -8   4  -9 115.880 168.513  19
   4   8  -9-357.695 496.852  18
   8   4  -9 16.3050 126.349  18
  -8  -4   9 252.920 276.177  17
  -8   4  -9 21.2062 148.532   4
   8   4  -9 70.9470 65.6252   8
   8  -4   9 10.8700 48.5991   8
   8   4  -9-14.3775 133.197   1
  -4   8 -10 815.611 411.976   3
   8  -4  10 1094.78 395.469  14
   8  -4  10 1006.41 345.027   1
  -8   4 -10-243.007 290.775  13
   4   8 -10 966.904 462.297  13
   8  -4  10 866.329 386.386   6
   8   4 -10 1013.71 386.820  13
  -8   4 -10 618.153 349.638   3
   4  -8  10 202.131 201.548   6
  -8   4 -10 417.665 294.529  12
  -4   8 -10 561.315 281.343  12
   8   4 -10 1055.81 537.747  11
  -8   4 -10 469.335 282.689   5
   8   4 -10 588.295 376.123  20
   8   4 -10 1115.12 442.174  10
  -8  -4  10 546.235 274.879  19
  -8   4 -10 441.423 274.732  19
   4   8 -10 500.096 428.872  18
   8   4 -10 765.160 430.795  18
  -8  -4  10 772.398 441.677   2
  -8  -4  10 446.043 401.587  17
  -8   4 -10 792.601 434.611   4
   8  -4  10 1198.46 535.585   8
   8   4 -10 766.225 289.257   8
   8  -4  10 161.688 279.787  16
   8   4 -10 788.357 449.651   1
   8  -4  11 133.832 132.680  14
  -4   8 -11 64.4550 111.487   3
   8   4 -11 48.3169 37.5699   3
   8  -4  11 115.832 151.758   6
   4   8 -11-10.5838 179.849  13
  -8   4 -11 109.283 167.415  13
   8   4 -11 77.2711 104.247  13
  -8   4 -11-26.7604 84.4665   3
   4  -8  11-22.4973 90.1256   6
  -8   4 -11 174.338 147.171  12
  -4  -8  11 117.988 131.616   6
  -4   8 -11 36.7097 88.7053  12
  -8  -4  11-83.1601 268.316   5
   8   4 -11 240.164 259.263  11
  -8   4 -11-29.6892 5.48417   5
  -8   4 -11 257.635 334.256  20
   8   4 -11 56.4586 187.826  20
  -8   4 -11 475.166 356.896  10
   8   4 -11 119.288 237.824  10
  -8  -4  11-94.2944 116.469  19
  -8  -4  11 115.143 245.548   2
   4   8 -11-14.5541 170.307  18
   8   4 -11 88.8354 48.5278  18
  -4  -8  11 110.007 355.226  17
  -8   4 -11-32.5395 189.130   4
  -8  -4  11-23.0306 193.087  17
   8  -4  11-69.6856 176.990   8
  -8  -4  11-237.382 253.542  16
   8  -4  11 79.6281 70.0918  16
   8   4 -11 29.0144 34.5928   8
   8  -4  11 120.373 135.522   1
  -8   4 -11 121.645 188.527  19
   8   4 -11 35.9768 166.365   1
   8   4 -12 1732.09 630.012   1
   4   8 -12 2980.94 872.441  13
   8   4 -12 2910.73 713.016  13
  -8   4 -12 443.013 273.370  13
   4  -8  12 443.631 342.043   6
  -4   8 -12 2380.77 613.362  12
  -4  -8  12 187.489 151.237   6
  -8   4 -12 1098.53 469.442   3
  -8   4 -12 1391.92 500.100  12
  -8  -4  12 1070.08 541.899   5
   8   4 -12 3194.65 922.199  11
  -8   4 -12 1787.01 560.165  20
   8   4 -12 1035.53 443.719  20
  -8  -4  12 1352.75 342.795  19
  -8   4 -12 2123.54 516.415  10
   8   4 -12 1870.27 598.163  10
  -8   4 -12 1221.04 454.256  19
   8   4 -12 4071.07 1001.42   9
  -8   4 -12 2446.49 534.447   9
   4   8 -12 1301.42 837.510  18
   8   4 -12 2529.32 784.626  18
  -8  -4  12 2024.83 657.090   2
   8  -4  12 3030.93 807.537   8
  -4   8 -12 1616.28 430.951   4
   8  -4  12 1218.47 391.222   1
  -4  -8  12-151.682 355.345  17
  -8   4 -12 1478.07 558.905   4
  -8  -4  12 1657.88 669.574  17
  -8  -4  12 1411.16 422.706  16
   8  -4  12 2062.21 690.642  16
  -8   4 -12 2601.73 1076.70  15
   8  -4  12 2768.19 735.386   6
  -4   8 -12 2860.02 823.881   3
   8  -4  12 3623.64 798.533  14
   8   4 -12 2085.55 409.581   3
   8  -4  13-130.690 194.407  14
   8   4 -13 63.4722 90.5513   1
  -4   8 -13-89.0768 252.799   3
   8  -4  13 3.49089 20.3984   6
   4  -8  13 44.2527 92.8397  14
  -4   8 -13-276.017 399.045  13
   4   8 -13 138.192 209.549  13
   8   4 -13-67.5421 73.4686   3
  -8   4 -13-113.311 56.4076  13
   8   4 -13-165.904 194.656  13
  -4  -8  13 80.2002 176.883   6
   4  -8  13-192.778 193.158   6
  -8   4 -13-18.3615 206.761  12
  -8   4 -13 7.46813 194.930   3
  -4   8 -13-10.1434 77.5624  12
  -8  -4  13-150.938 255.698   5
   8   4 -13-253.300 380.583  11
  -8   4 -13-94.6279 82.3138  20
   8  -4  13-118.844 154.656   1
   8   4 -13-222.613 398.500  20
  -8   4 -13 89.8311 194.794  10
   8   4 -13-132.733 193.099  10
  -8   4 -13 95.9571 218.649  19
  -8  -4  13 10.4919 51.8136  19
  -8   4 -13-102.238 75.0981   9
  -4   8 -13 61.1244 164.119  18
   4   8 -13-58.3974 134.703  18
  -8  -4  13 81.3829 113.229   2
   8   4 -13-73.0946 158.184  18
  -8   4 -13-20.6629 145.978   4
  -4  -8  13 39.9995 416.095  17
  -8  -4  13-254.601 275.301  17
   8  -4  13-5.24425 105.041   8
  -8  -4  13-102.348 144.656  16
   8  -4  13 6.03403 109.875  16
  -4   8 -13 20.8400 68.0318   4
   8   4 -13 332.931 381.871   9
  -8   4 -13 338.343 567.484   7
  -8   4 -13 342.503 528.608  15
   4   8 -14 3966.53 1033.40  13
   8   4 -14 3520.42 804.441  13
  -4   8 -14 1196.39 540.446  13
  -8   4 -14 610.242 407.800  13
  -4  -8  14 243.856 182.359   6
   4  -8  14 994.996 530.756   6
  -8   4 -14 2414.57 772.531  12
  -4   8 -14 2917.33 701.827  12
   8   4 -14 2692.70 794.371   1
  -8   4 -14 1902.34 707.695   3
   8   4 -14 3270.17 1028.21  11
  -8  -4  14 2182.58 779.105   5
  -8  -4  14 3026.89 896.511   2
  -8   4 -14 2877.58 845.888  20
   8   4 -14 262.583 262.253  20
  -8   4 -14 2679.98 714.294  19
  -8   4 -14 2222.63 577.565  10
   8   4 -14 2319.98 669.701  10
  -8  -4  14 865.925 285.718  19
   8   4 -14 3449.96 901.593   9
  -4   8 -14 2665.24 557.502  18
  -8   4 -14 1687.63 455.321   9
   8   4 -14 2770.09 829.912  18
  -4   8 -14 2808.61 642.735   4
   8  -4  14 3994.34 1023.34   8
  -8   4 -14 737.926 463.226   4
  -8  -4  14 3589.91 1105.29  17
   4  -8  14 1052.39 377.518  17
  -8  -4  14 2285.79 593.380  16
   8  -4  14 3149.06 938.828  16
   4   8 -14 1411.83 857.490  18
  -8   4 -14 2589.80 1053.21   7
   4   8 -14 3624.69 805.126   3
  -8   4 -14 3096.04 1173.32  15
   8  -4  14 3641.87 908.281   6
   8  -4  14 3587.37 838.037  14
  -4   8 -14 2828.46 829.734   3
   4  -8  14 1300.10 361.096  14
   8   4 -14 3401.74 560.453   3
   8  -4  15 155.656 194.324  14
   4   8 -15-30.3649 129.614   3
   8  -4  15 7.04286 101.887   6
   4  -8  15 82.0735 99.4861  14
  -4   8 -15-109.717 273.359   3
  -4   8 -15 163.497 317.659  13
  -4  -8  15 85.0183 83.4833   6
   8   4 -15 72.6271 252.441   1
   4   8 -15 115.449 52.7904  13
   4  -8  15 14.3632 19.7181   6
  -8   4 -15-65.3232 79.2061  13
   8   4 -15 469.212 366.817  13
   8   4 -15 123.060 117.743   3
  -8   4 -15 38.9576 151.573  12
  -8   4 -15-138.352 263.921   3
  -4   8 -15 170.618 180.968  12
  -8  -4  15-4.29800 107.619   5
   8   4 -15-97.5909 357.345  11
  -8   4 -15 47.3412 82.0017  20
   8   4 -15-617.279 746.339  20
  -8   4 -15 99.9788 193.755  10
   8   4 -15-178.155 381.777  10
  -8   4 -15-79.6472 112.958  19
   8   4 -15-240.308 243.515   9
  -8   4 -15-256.834 307.210   9
  -4   8 -15 137.836 181.136  18
   4   8 -15 126.048 327.407  18
  -8  -4  15 381.889 406.679   2
   8   4 -15-1.44312 136.284  18
   4  -8  15 226.712 250.727  17
  -4  -8  15-52.9979 102.629  17
  -8  -4  15 58.9169 217.157  17
   8  -4  15 36.5658 54.5700   8
  -4   8 -15 104.054 205.432   4
  -8  -4  15 176.411 145.523  16
   8  -4  15 174.958 337.180  16
  -8   4 -15 270.973 405.891   7
  -8   4 -15 357.897 502.253  15
   8   5  -1 1064.00 355.901  18
  -8   5  -2 256.866 23.5291  19
   8   5  -2 221.137 143.626  18
   8   5  -2-169.039 434.788   8
   8  -5   3 156.774 139.845  14
   8  -5   3 198.542 164.275   1
   8  -5   3 156.025 139.286   6
   8   5  -3 517.911 328.164   1
  -8   5  -3 279.616 142.859  19
   8   5  -3 519.488 361.961  18
  -8   5  -3 72.9642 74.4309   5
   8   5  -3 248.349 38.8381   8
  -8  -5   3 38.7380 230.392  17
   8  -5   3-60.0483 273.137   8
  -8   5  -3 80.1866 84.4718   4
   8  -5   4 237.975 209.870  14
   8  -5   4 74.5045 153.307   6
  -8   5  -4 120.975 47.3397  12
  -8   5  -4 154.169 62.9334  19
  -8  -5   4-31.6595 155.773  19
   8   5  -4 220.264 291.848   1
   8  -5   4 153.219 132.399   1
  -8   5  -4 106.877 98.2104   5
   8   5  -4 185.764 140.205  18
   8   5  -4 137.118 152.084   8
  -8  -5   4-91.6720 237.382  17
   8  -5   4-3.01048 137.078   8
  -8   5  -4 69.3046 37.4200   4
   8  -5   5-39.8518 23.9601  14
   8  -5   5 49.3334 116.044   6
  -8   5  -5-46.3596 69.5628  12
  -8  -5   5-137.755 151.840  19
   8   5  -5-200.729 221.917   1
  -8   5  -5-31.3834 75.6121  19
  -8   5  -5 1.02457 20.0049   5
   8   5  -5 67.0669 203.523  18
   8   5  -5 150.059 283.506   8
  -8  -5   5-9.28518 123.459  17
   8  -5   5-43.0783 74.3820   1
   8  -5   5-106.946 97.6173   8
  -8   5  -5 43.2914 113.811   4
  -8   5  -6 94.1471 156.850   3
   8  -5   6 74.8975 77.8846  14
   8   5  -6 81.1257 109.299  13
   8  -5   6 98.0462 119.706   1
   8  -5   6-14.3472 64.3621   6
  -8   5  -6 166.558 143.851  12
  -8  -5   6 45.7066 139.004  19
  -8   5  -6 143.139 172.819   5
  -8   5  -6 172.779 163.402  19
   8   5  -6 133.704 157.192   1
   8   5  -6 299.465 252.542  18
   8   5  -6 212.699 252.916   8
  -8  -5   6-29.7481 203.425  17
   8  -5   6 65.2974 131.926   8
  -8   5  -6 153.744 172.388   4
  -8   5  -7 129.748 199.948   3
   8  -5   7 198.141 182.907  14
   8   5  -7 122.573 115.240  13
   8  -5   7 48.2170 111.792   6
  -8   5  -7 49.6546 112.464  12
  -8  -5   7 36.3887 161.734  19
  -8   5  -7 38.2198 26.4400   5
  -8   5  -7 59.3797 9.08318  19
   8   5  -7-110.446 137.282  18
   8   5  -7-85.0428 184.503   1
   8  -5   7 48.0198 95.4298   1
   8   5  -7 183.418 146.774   8
  -8  -5   7 49.4587 270.606  17
   8  -5   7 4.47854 222.344   8
  -8   5  -7 240.187 210.247   4
   8  -5   8 106.206 129.739  14
  -8   5  -8-32.7447 71.5094   3
   8   5  -8 21.5019 86.6851  13
   8  -5   8 83.1208 179.993   6
   8  -5   8-17.3176 68.9993   1
  -8   5  -8-24.6274 88.3498  12
  -8  -5   8 14.7187 82.2247  19
  -8   5  -8 165.885 151.902   5
  -8   5  -8 3.29926 100.468  19
   8   5  -8-4.69142 42.9725  18
   8   5  -8-47.4522 107.986   1
  -8  -5   8 235.574 397.403  17
   8   5  -8 95.2453 240.775   8
  -8   5  -8 28.7778 124.427   4
   8  -5   8 18.5176 53.9759   8
   8  -5   9-46.7416 103.058  14
  -8   5  -9-37.4855 135.829   3
   8   5  -9-8.64374 80.4777  13
   8  -5   9 21.4243 74.1235   6
  -8   5  -9 30.6478 71.4536  12
  -8   5  -9 16.0389 177.313   5
  -8  -5   9-10.7296 55.1331  19
  -8   5  -9 149.347 184.398  19
   5   8  -9-111.549 168.823  18
   8   5  -9-85.9773 144.674  18
   8   5  -9-137.909 219.629   1
  -8  -5   9 253.382 302.443  17
   8   5  -9 12.5170 101.309   8
  -8   5  -9 29.0659 165.995   4
   8  -5   9 13.6285 75.8076   1
   8  -5   9-86.0253 238.639   8
  -5   8 -10 44.2489 39.1186   3
   8  -5  10 95.1159 112.384  14
   5   8 -10 45.5031 117.214  13
  -8   5 -10 18.5384 82.0760   3
   8  -5  10 9.60746 119.329   6
   8   5 -10 133.346 175.663  13
   5  -8  10 30.0751 190.131   6
  -8   5 -10 108.707 178.760  12
  -5   8 -10-22.4193 142.647  12
   8   5 -10 220.011 381.490  20
  -8   5 -10 98.8929 200.817   5
  -8  -5  10 221.358 318.566   2
   8  -5  10 142.946 150.682   1
  -8  -5  10 25.9347 44.9778  19
  -8   5 -10-11.4008 50.3895  19
   5   8 -10 117.608 242.525  18
   8   5 -10 243.402 216.984  18
  -5  -8  10 238.879 457.259  17
  -8  -5  10-143.915 44.7378  17
   8   5 -10-83.8228 146.436   1
   8   5 -10 113.967 85.2625   8
  -8   5 -10 112.545 204.100   4
   8  -5  10 233.032 295.694   8
  -5   8 -11 1039.66 478.906   3
   8  -5  11 1254.85 446.740  14
   5   8 -11 1491.39 601.256  13
   8  -5  11 1267.83 504.683   6
  -8   5 -11 610.869 382.143   3
   8   5 -11 1264.28 487.404  13
   8  -5  11 1048.11 317.564   1
   5  -8  11 446.082 311.771   6
  -5  -8  11 25.5863 45.3074   6
  -8   5 -11 819.745 424.662  12
  -5   8 -11 1126.69 431.015  12
   8   5 -11 1700.42 758.570  11
  -8   5 -11 976.105 400.266   5
   8   5 -11 1495.38 640.775  20
  -8  -5  11 820.108 493.332   2
  -8  -5  11 469.336 223.531  19
  -8   5 -11 746.005 319.920  19
   5   8 -11 976.037 540.170  18
   8   5 -11 1166.29 497.572  18
  -5  -8  11 537.486 562.858  17
  -8  -5  11 480.205 359.641  17
  -8   5 -11 855.709 420.111   4
   8   5 -11 1171.36 566.187   1
   8   5 -11 1151.11 341.868   8
   8  -5  11 1299.82 564.291   8
  -5   8 -11 579.652 264.392   4
   8   5 -12-14.8996 62.0100   3
   8  -5  12 194.950 196.678  14
  -5   8 -12 119.739 185.280   3
   5  -8  12 49.2610 137.023  14
  -8   5 -12-291.797 340.411  13
   8  -5  12-22.2324 75.5752   6
   5   8 -12-11.4810 23.2803  13
   8   5 -12 145.009 244.961  13
  -8   5 -12-49.5608 117.433   3
   5  -8  12 60.7158 98.4213   6
  -5  -8  12-48.0461 21.2498   6
  -8   5 -12 30.7942 126.828  12
  -5   8 -12 149.030 191.615  12
   8   5 -12 148.883 259.177  11
  -8   5 -12-121.901 196.888   5
   8   5 -12-55.5144 78.0546  20
   8   5 -12 169.169 418.069  10
  -8  -5  12-177.667 196.220   2
  -8  -5  12 13.2799 39.0141  19
   5   8 -12 201.294 344.159  18
   8   5 -12 26.4628 61.1855  18
  -5  -8  12-36.7006 296.121  17
  -8  -5  12 275.473 362.609  17
  -8   5 -12 42.0218 83.4755   4
  -8   5 -12 11.7084 76.2387  19
   8   5 -12-129.293 95.4042   1
   8  -5  12 4.55570 91.8388   8
   8  -5  12-348.958 509.053  16
  -5   8 -12 76.6204 165.095   4
   8  -5  12-33.8478 86.2015   1
  -5   8 -13 1328.35 540.318   3
   5  -8  13 394.780 221.688  14
   8   5 -13 2997.00 835.977  13
   8  -5  13 1545.48 577.696   6
  -8   5 -13-172.196 213.041  13
   5   8 -13 1879.73 675.407  13
  -5  -8  13 259.281 201.769   6
  -8   5 -13 510.848 343.248   3
   5  -8  13 416.697 292.373   6
  -8   5 -13 972.714 422.402  12
  -5   8 -13 1341.84 493.368  12
  -8   5 -13 521.184 228.195   5
   8   5 -13 2469.52 926.033  11
  -8   5 -13 1384.10 514.329  20
   8   5 -13 1584.64 608.389  20
  -8   5 -13 1592.23 540.760  10
  -8  -5  13 1616.34 478.872  19
   8   5 -13 2282.48 668.137  10
  -8  -5  13 2112.11 812.335   2
  -8   5 -13 761.634 354.790  19
   5   8 -13 832.606 685.468  18
   8   5 -13 1587.01 618.871  18
   8  -5  13 612.261 236.843   1
  -8  -5  13 4799.45 1305.56  17
  -5  -8  13 74.1891 46.2535  17
  -8   5 -13 1008.60 483.842   4
   8  -5  13 1264.43 588.990   8
  -8  -5  13 964.615 403.785  16
   8  -5  13 372.341 53.1240  16
   8   5 -13 1116.13 482.473   1
  -5   8 -13 1200.84 442.977   4
   8   5 -13 1375.88 403.431   3
   8  -5  13 1666.66 543.420  14
   8  -5  14 116.758 175.559  14
   5  -8  14-71.3815 136.733  14
   8   5 -14-106.962 136.363   3
  -5   8 -14-75.0417 67.5189   3
   8  -5  14-5.26805 120.595   6
  -5   8 -14-340.566 422.794  13
  -8   5 -14 67.9298 179.333  13
  -5  -8  14-68.1139 162.296   6
   5   8 -14-3.23312 146.451  13
   5  -8  14 129.981 200.744   6
   8   5 -14 3.26667 40.7004  13
  -8   5 -14-177.299 251.669   3
  -8   5 -14-256.237 312.162  12
  -5   8 -14-23.5662 86.4273  12
   8   5 -14 63.6824 178.124  11
  -8   5 -14-89.6660 113.995  20
   8   5 -14-111.219 244.077  20
  -8   5 -14 162.362 252.684  10
  -8   5 -14-130.708 174.835  19
  -8   5 -14 876.509 506.381   9
  -8  -5  14 125.514 219.409   2
   5   8 -14 93.6056 114.506  18
   8   5 -14 68.1621 204.047  18
  -8   5 -14-57.5734 252.626   4
  -5  -8  14-363.685 466.935  17
  -8  -5  14-21.6382 32.7985  19
  -8  -5  14-8.61950 273.046  17
   8   5 -14 70.9663 111.556  10
   8  -5  14-61.1919 209.564   8
  -8  -5  14-373.793 324.349  16
   8  -5  14 65.8690 176.947  16
  -5   8 -14 141.691 222.083   4
   8   5 -14 72.1877 188.115   1
  -8   5 -14 327.280 652.342  15
   8   6  -3 485.841 263.939  18
   8   6  -4 204.255 329.692  18
   8   6  -4-575.189 601.099   8
   8  -6   5 122.929 134.817  14
   8  -6   5 94.7679 168.056   6
  -8   6  -5 128.022 104.890  12
  -8  -6   5-638.720 526.632  19
   8   6  -5 417.747 419.542  18
  -8   6  -5 39.3799 189.956   5
   8   6  -5 61.2714 285.098   8
  -8  -6   5 49.8704 237.942  17
  -8   6  -5 83.3505 186.541   4
   8  -6   6 157.167 143.045  14
   8  -6   6 145.352 147.983   6
  -8   6  -6 342.139 183.788  12
   8   6  -6 187.207 125.272   1
  -8  -6   6-72.8311 245.172  19
  -8   6  -6 190.995 72.8709  19
  -8   6  -6 344.438 216.154   5
   8   6  -6 671.428 429.220  18
   8   6  -6 236.114 103.198   8
   8  -6   6 213.350 150.878   1
  -8  -6   6-163.478 80.5556  17
   8  -6   6-299.888 260.475   8
  -8   6  -6 288.888 173.081   4
  -8   6  -7 30.0130 169.404   3
   8  -6   7 95.4737 139.430  14
   8   6  -7 15.2179 148.667  13
   8  -6   7 29.1501 150.534   6
  -8   6  -7 90.7361 113.183  12
   8   6  -7 132.775 136.725   1
  -8  -6   7-336.791 267.740  19
  -8   6  -7 77.0559 106.424   5
  -8   6  -7 30.0832 100.356  19
   8   6  -7 193.989 280.343  18
   8   6  -7 185.553 162.752   8
  -8  -6   7-636.515 463.759  17
   8  -6   7-27.2853 143.774   8
   8  -6   7 125.003 143.123   1
  -8   6  -7 69.8474 141.817   4
  -8   6  -8 359.768 291.688   3
   8  -6   8 312.855 235.512  14
   8  -6   8 288.433 144.250   1
   8   6  -8 593.059 300.306  13
   8  -6   8 492.103 292.699   6
  -8   6  -8 683.165 325.565  12
   8   6  -8 238.590 61.7363   1
  -8  -6   8 4.70278 155.250  19
  -8   6  -8 705.627 322.402   5
  -8   6  -8 249.309 162.955  19
   6   8  -8 484.325 420.813  18
   8   6  -8 456.803 297.532  18
   8   6  -8 784.120 401.310   8
  -8  -6   8 58.0535 280.325  17
   8  -6   8 237.752 215.684   8
  -8   6  -8 465.154 281.776   4
  -8   6  -9 105.958 175.161   3
   8  -6   9 197.047 177.038  14
   8   6  -9 402.015 246.188  13
   8  -6   9 216.085 216.097   6
  -8   6  -9 113.418 123.864  12
  -8  -6   9 136.201 177.153  19
  -8   6  -9 138.063 91.8583   5
   8   6  -9-87.3253 286.965   1
   8  -6   9 227.458 162.896   1
  -8   6  -9 124.346 58.3663  19
   6   8  -9 390.168 408.526  18
   8   6  -9 179.305 214.608  18
  -6  -8   9 169.984 338.912  17
  -8  -6   9 148.390 347.816  17
   8   6  -9 317.785 232.081   8
  -8   6  -9 144.783 192.055   4
   8  -6   9 217.770 218.755   8
   6   8 -10 28.6095 79.4297  18
  -6   8 -10-159.323 261.762   3
   8  -6  10 45.4939 49.5919   1
   8  -6  10-36.1189 66.1679  14
  -8   6 -10-130.183 241.185   3
   6   8 -10-315.043 324.608  13
   8   6 -10 204.150 150.710  13
   8  -6  10 50.0147 61.1656   6
   6  -8  10 162.402 242.683   6
  -8   6 -10 42.6498 119.766  12
  -6   8 -10-66.0571 191.704  12
  -8   6 -10 132.359 167.660   5
  -8  -6  10 58.8553 223.831  19
  -8   6 -10 72.2410 102.654  19
   8   6 -10 265.182 299.147   1
   8   6 -10-136.885 264.103  18
  -6  -8  10-153.863 258.728  17
  -8  -6  10 177.142 346.552  17
   8   6 -10 97.3024 176.510   8
  -8   6 -10 6.54722 121.611   4
   8  -6  10 36.4900 95.5998   8
  -6   8 -10-218.487 255.943   4
  -6   8 -11 92.9638 210.699   3
   8  -6  11 31.2135 120.198  14
  -8   6 -11-149.982 233.992   3
   6   8 -11-64.2367 209.288  13
   8   6 -11 619.540 417.216  13
   8  -6  11 90.2686 191.412   6
   6  -8  11 160.037 208.755   6
  -6  -8  11 58.0676 170.587   6
  -8   6 -11 141.311 178.277  12
  -6   8 -11 98.4046 92.5248  12
  -8   6 -11 109.614 141.676   5
  -8  -6  11 151.477 143.917  19
  -8   6 -11 63.5036 138.956  19
   6   8 -11 298.687 362.893  18
   8   6 -11 527.306 490.698   1
   8   6 -11 10.0973 18.9494  18
   8  -6  11 51.5741 61.6284   1
  -6  -8  11-24.9224 97.8850  17
  -8  -6  11-324.474 407.532  17
  -8   6 -11-30.1466 76.7657   4
   8  -6  11 63.3354 49.6907   8
  -6   8 -11-38.8093 134.062   4
   8  -6  12 286.843 203.995  14
  -6   8 -12 94.5483 99.7185   3
   6  -8  12 133.243 132.296  14
  -8   6 -12 126.696 205.696   3
   6   8 -12 654.889 460.690  13
   8  -6  12-53.9127 165.476   6
   8   6 -12 325.776 329.291  13
  -6  -8  12-16.0916 76.8011   6
   6  -8  12 131.099 155.337   6
  -8   6 -12 171.094 267.379  12
   8  -6  12 155.518 121.836   1
  -6   8 -12 133.951 66.3542  12
  -8   6 -12 184.462 200.977   5
  -8  -6  12 52.4456 95.0350  19
  -8   6 -12 422.433 289.606  19
  -6   8 -12 142.603 109.603   5
   6   8 -12 173.438 190.016  18
   8   6 -12 260.026 308.972  18
   8   6 -12-51.8266 197.761   1
  -6  -8  12 22.4039 178.547  17
  -8  -6  12 375.716 490.100  17
  -8   6 -12 245.961 306.052   4
   8  -6  12 147.379 142.961   8
  -6   8 -12 195.141 182.321   4
   8  -6  13 438.093 270.798  14
  -6   8 -13 312.065 314.520   3
   6  -8  13 227.851 183.506  14
   8  -6  13 211.982 162.959   6
   6   8 -13 801.191 436.527  13
  -8   6 -13 425.403 357.936   3
   8   6 -13 185.425 174.570  13
   6  -8  13 435.280 436.598   6
  -8   6 -13 231.345 302.051  12
  -6   8 -13 382.899 274.823  12
   8   6 -13 867.766 793.236  11
  -8   6 -13 232.475 269.959   5
   8   6 -13 392.968 445.222  20
  -8  -6  13 145.098 146.514  19
  -8   6 -13 189.356 138.483  19
   6   8 -13 278.105 176.912  18
   8   6 -13 170.718 100.841  18
   8   6 -13 209.592 334.344   1
  -6  -8  13 124.835 405.960  17
  -8  -6  13 166.963 284.899  17
  -8   6 -13 258.732 328.346   4
   8  -6  13 375.182 135.354   8
  -6   8 -13 424.888 280.626   4
   8   7  -5 1549.61 719.615  18
   8   7  -6 137.530 234.433  18
  -8  -7   6 424.020 523.067  17
   8  -7   7 580.505 386.787   6
  -8   7  -7 1461.66 473.295  12
  -8  -7   7-568.885 569.267  19
   8   7  -7 1842.49 757.290  18
   8   7  -7 949.698 261.957   8
  -8  -7   7 166.176 338.153  17
  -8   7  -7 1196.63 409.528   4
   8  -7   8 263.029 248.071  14
   8  -7   8 25.3101 167.465   6
  -8   7  -8-3.69300 21.5901  12
  -8  -7   8 23.4089 128.899  19
  -8   7  -8 23.1722 91.6745   5
   7   8  -8 112.196 286.663  18
   8   7  -8 44.6536 353.521  18
   8   7  -8 93.8167 106.213   8
  -7  -8   8 436.744 424.814  17
  -8  -7   8 70.4450 322.541  17
   8  -7   8-445.838 476.396   8
  -8   7  -8-44.6474 42.1204   4
  -8   7  -9 747.882 419.608   3
   8  -7   9 792.939 347.813  14
   8   7  -9 1985.89 613.343  13
   8  -7   9 457.981 314.928   6
  -7   8  -9 1441.18 503.110  12
   7  -8   9 447.613 360.642   6
  -8   7  -9 1078.86 466.958  12
  -8   7  -9 1423.87 460.481   5
  -8  -7   9 245.607 269.835  19
   7   8  -9 1383.27 705.519  18
   8   7  -9 1617.83 698.225  18
   8   7  -9 1524.14 541.404   8
  -7  -8   9 616.693 585.649  17
  -8  -7   9 137.270 208.933  17
   8  -7   9 619.068 244.055   1
   8  -7   9-41.7804 376.720   8
  -8   7  -9 1191.91 516.695   4
  -8   7 -10-120.873 171.354   3
   8  -7  10 27.0908 154.479  14
   7   8 -10-65.9623 174.094  13
   8   7 -10 179.225 241.441  13
   8  -7  10 12.9663 3.36447   6
   7  -8  10 147.571 263.848   6
  -8   7 -10 206.128 249.081  12
  -7   8 -10-9.39143 66.6961  12
  -8  -7  10 105.364 176.108  19
  -8   7 -10 114.378 110.512   5
   7   8 -10 74.2954 217.997  18
   8   7 -10 88.7481 85.6289  18
  -7  -8  10-585.722 557.896  17
  -8  -7  10-221.591 289.154  17
  -8   7 -10 135.309 187.532   4
   8  -7  10-94.6148 307.208   8
  -7   8 -10-44.9708 129.876   4
   8  -7  10 126.814 136.811   1
  -7   8 -11 216.952 226.879   3
  -8   7 -11 80.7180 183.604   3
   8  -7  11 128.475 191.102  14
   7  -8  11 33.7000 143.663  14
   7   8 -11 455.176 321.201  13
   8   7 -11 448.536 330.322  13
   8  -7  11 100.308 144.630   6
   7  -8  11 6.20368 150.019   6
  -8   7 -11 5.63212 136.629  12
  -7   8 -11 136.359 90.0533  12
   8  -7  11 118.466 96.6872   1
   8   7 -11 169.492 267.563   1
  -7  -8  11-58.5849 176.895  19
  -8  -7  11 215.566 216.206  19
  -8   7 -11 104.336 81.2656   5
  -8   7 -11 4.60662 185.332  19
  -7   8 -11 197.220 172.036   5
   7   8 -11 317.796 330.223  18
   8   7 -11 425.771 220.473  18
  -7  -8  11 24.9580 401.969  17
  -8  -7  11-78.9757 222.558  17
  -8   7 -11 184.648 232.006   4
   8  -7  11 8.62207 170.596   8
  -7   8 -11 237.865 275.145   4
   8   8  -7 218.924 415.019  18
  -8  -8   7 434.660 563.244  17
   8   8  -8 2113.50 876.383  18
  -8  -8   8-312.231 194.799  17
   8  -8   9 163.324 315.056   6
  -8   8  -9-504.873 310.236  12
  -8  -8   9-466.161 526.641  19
   8   8  -9 335.297 420.863  18
  -8  -8   9-593.026 497.350  17
   9   0   0 35.6028 131.109  14
   9   0   0 39.9809 140.879   6
  -9   0   0 27.3893 77.2358  12
   9   0   0-93.0938 132.538   1
   9   0   0-34.9467 132.373  11
  -9   0   0-35.4018 42.2757   5
  -9   0   0-22.0154 106.110  19
  -9   0   0 95.2914 87.9000   2
   9   0   0-23.2838 93.3757  18
  -9   0   0-94.1401 176.575   4
  -9   0   0-45.0601 108.346  17
   9   0   0 47.4178 60.8055   8
  -9   0   0 352.463 327.970   7
  -9   0   0 268.251 282.053  15
   9   0   1 403.499 263.463  14
   9   0  -1 280.076 231.907  14
  -9   0  -1 9.20833 25.7952   3
   9   0   1 330.222 186.942   6
   9   0  -1 329.957 177.834   6
   9   0  -1 198.194 89.3888  13
   9   0   1 587.508 340.526   1
  -9   0  -1 8.31450 96.4744  12
  -9   0   1 60.1106 48.9174  12
   9   0   1 108.796 32.7592  11
  -9   0  -1 223.357 240.288   5
   9   0  -1-91.4248 187.695  11
  -9   0   1 343.494 343.726   5
   9   0  -1 439.440 270.030   1
  -9   0  -1 225.215 191.683  19
  -9   0   1 113.095 205.273  19
  -9   0   1 350.902 188.120   2
   9   0   1 286.447 191.503  18
   9   0  -1 334.267 221.035  18
  -9   0  -1 200.827 230.820   4
  -9   0  -1 62.0899 37.4437  17
  -9   0   1 169.710 172.338  17
  -9   0   1 230.422 238.448   4
   9   0   1 364.251 248.719   8
   9   0  -1 245.730 162.180   8
  -9   0  -1 400.406 291.709   7
  -9   0  -1 303.598 246.798  15
   9   0   2 11.5221 52.7891  14
   9   0  -2-17.3191 98.2559  14
   9   0   2-2.31326 60.8940   6
   9   0   2 7.02534 102.973   1
   9   0  -2-37.3405 121.701   6
  -9   0  -2 10.5032 52.4647   3
   9   0  -2-11.9028 39.8689  13
  -9   0  -2 23.6271 125.824  12
  -9   0   2-7.06950 41.5802  12
  -9   0  -2-44.9383 108.096   5
   9   0   2-132.923 129.591  11
   9   0  -2-85.0238 158.169  11
  -9   0   2 167.297 204.063   5
  -9   0  -2 13.8715 69.9569  19
  -9   0   2 13.6721 44.1887  19
   9   0  -2-52.4647 114.810   1
   9   0   2-31.7642 45.7184  18
   9   0  -2-11.1155 41.3643  18
  -9   0   2 133.734 155.556   2
  -9   0  -2-116.918 217.625   4
  -9   0  -2 8.50982 47.9217  17
   9   0   2-68.9942 184.582   8
  -9   0   2-2.38285 96.7361  17
  -9   0   2 64.4539 149.697   4
   9   0  -2 200.607 233.469   8
  -9   0  -2-23.0149 113.516   7
  -9   0  -2 27.0903 84.7031  15
   9   0   3-47.1296 131.311  14
   9   0  -3-4.20409 31.6088  14
   9   0   3 57.8327 87.7837   6
   9   0  -3 48.1664 55.4995   6
  -9   0  -3 57.5901 189.265  12
  -9   0  -3 46.0520 74.9407   3
  -9   0  -3-1.34558 136.699   5
   9   0   3 6.66748 91.1595  11
   9   0  -3-37.2390 104.433  11
  -9   0   3-80.8236 88.5940   5
  -9   0  -3 94.1455 221.916  19
  -9   0   3 32.8289 102.136  19
   9   0   3-4.91769 39.0634  18
   9   0  -3 15.3083 62.1344  18
   9   0  -3 62.6019 98.1523   1
  -9   0  -3 104.091 189.340   4
  -9   0   3 1.30792 58.2587   2
  -9   0  -3 30.7033 59.4370  17
   9   0   3-7.43411 129.987   8
  -9   0   3-73.3172 137.087  17
  -9   0   3-5.53728 59.2803   4
   9   0  -3 8.29738 141.419   8
  -9   0  -3-88.8026 317.357   7
  -9   0  -3-19.7480 129.224  15
   9   0   3-52.6600 181.287   1
   9   0   4 29.5329 92.1846  14
   9   0  -4-19.7965 84.1983  14
   9   0   4-8.22511 81.2754   6
   9   0  -4 100.157 85.2152   6
  -9   0  -4 53.9747 97.9117   3
  -9   0  -4-12.7884 154.038   5
   9   0   4 97.2243 42.0365  11
   9   0  -4 56.1125 48.5903  11
  -9   0   4 258.841 265.552   5
  -9   0  -4 33.4232 83.6707  19
  -9   0   4-169.684 153.579  19
   9   0   4 12.2207 40.4439  18
   9   0  -4-149.722 151.145  18
  -9   0  -4-32.1573 70.6998   4
  -9   0  -4 156.156 140.994  17
  -9   0   4-19.1050 31.9584   2
   9   0   4 5.28154 124.838   8
   9   0  -4-101.311 98.8224   1
  -9   0   4-84.8711 181.545  17
  -9   0   4-48.0081 160.678   4
   9   0  -4-45.4695 75.1735   8
   9   0   4-0.17606 28.6888  16
   9   0   4-118.002 174.732   1
  -9   0  -4-420.609 486.442   7
  -9   0  -4-241.823 378.614  15
   9   0   5 647.234 378.445  14
   9   0   5 391.395 258.669   6
   9   0  -5 352.372 206.408  14
   9   0  -5 442.255 168.090   6
   9   0   5 486.206 146.323  11
   9   0  -5 160.003 136.793  11
  -9   0   5 433.751 333.601   5
  -9   0  -5 138.291 234.968  19
  -9   0   5 286.691 205.343  19
   9   0   5 415.228 184.305  18
   9   0  -5 236.522 160.317  18
  -9   0  -5-22.8084 134.672   4
  -9   0  -5 32.7509 77.8417  17
   9   0   5 594.512 410.253   8
   9   0   5 522.029 313.953   1
  -9   0   5 64.5838 169.395  17
  -9   0   5 427.575 211.073   2
  -9   0   5 203.397 212.551   4
   9   0  -5 240.627 125.504   8
   9   0   5 417.799 200.496  16
   9   0  -5 225.113 220.138   1
   9   0   6 0.51010 167.751  14
   9   0  -6 54.7782 60.5556   1
   9   0   6-28.5915 62.4488   6
   9   0  -6-5.64951 58.7204  14
   9   0  -6-10.6308 14.3843   6
   9   0   6 176.763 100.405  11
   9   0  -6 49.0165 45.4664  11
  -9   0  -6 89.5597 207.363  19
  -9   0   6 9.55017 64.6359  19
   9   0   6 30.3187 125.150  18
  -9   0   6 182.344 228.668   5
  -9   0  -6-410.655 411.454   4
   9   0  -6-53.8968 124.484  18
   9   0   6-20.1641 56.8604   1
  -9   0  -6 96.3564 98.2484  17
   9   0   6 92.7042 283.593   8
  -9   0   6 21.6840 99.6453  17
  -9   0   6-65.0692 83.5391   2
  -9   0   6-16.4368 45.3522   4
   9   0  -6 71.1188 99.8833   8
   9   0   6 13.4505 109.908  16
  -9   0   6-7.81582 26.4555  16
   9   0   7 325.982 252.610   6
   9   0  -7 341.633 220.963  14
   9   0  -7 401.904 219.412   1
   9   0  -7 409.170 139.793   6
   9   0  -7 60.9229 89.5133  11
  -9   0  -7 31.9770 147.568  19
  -9   0   7 398.830 303.923   5
  -9   0   7 210.532 174.013  19
   9   0   7 483.820 295.615   1
   9   0   7 469.221 192.591  18
   9   0  -7 227.373 160.361  18
  -9   0  -7 86.1232 62.8707  17
   9   0   7 680.674 442.108   8
  -9   0   7 213.976 238.607  17
  -9   0   7 478.477 268.242   2
  -9   0   7 223.762 224.865   4
   9   0   7 569.115 259.217  16
   9   0  -7-24.8436 183.210   8
  -9   0   7 259.870 122.230  16
   9   0   7 395.879 307.164  14
   9   0   8-45.7662 75.8874   6
   9   0  -8 17.4610 30.6308  14
   9   0  -8-107.952 115.119   1
   9   0  -8 40.9434 28.4721   6
   9   0  -8-38.5520 184.142  11
   9   0   8-26.6888 141.367   1
  -9   0  -8 25.5159 36.0128  19
  -9   0   8 52.1819 103.991   5
  -9   0   8-5.71148 21.1365  19
   9   0   8 54.6964 86.3286  18
   9   0  -8 58.7244 76.9281  18
  -9   0  -8 161.649 139.466  17
   9   0   8 24.8388 193.442   8
  -9   0   8-41.0822 138.082  17
  -9   0   8 115.212 203.403   4
  -9   0   8 72.6620 122.987   2
   9   0   8 111.573 172.489  16
  -9   0   8 6.74236 22.4409  16
   9   0   8 11.5066 75.1648  14
   9   0   9 134.433 158.215   6
   9   0  -9-16.6755 36.8386  14
   9   0  -9 7.70286 72.2407   6
   9   0  -9 399.328 238.902   1
   9   0  -9-58.6484 237.972  11
  -9   0  -9 82.7419 221.469  19
  -9   0   9-11.8964 134.568   5
  -9   0   9 131.351 120.519  19
   9   0   9 180.493 100.156  18
   9   0  -9 80.7376 69.4874  18
  -9   0  -9 64.4174 54.4995  17
   9   0   9 34.1045 210.024   8
  -9   0   9 72.5977 51.5916  17
  -9   0   9 203.711 189.006   4
  -9   0   9 104.985 203.345   2
   9   0   9 284.248 197.001  16
  -9   0   9 211.555 146.014  16
   9   0   9 265.949 244.354  14
   9   0 -10 28.8702 168.312  14
   9   0 -10 22.3008 70.9419   1
   9   0 -10-15.1100 180.179  11
  -9   0 -10 18.6875 76.3286  19
  -9   0  10-113.632 202.502   5
   9   0  10 43.8093 104.127  18
   9   0 -10 1.41793 69.2776  18
  -9   0 -10 39.4716 81.0390  17
   9   0  10 228.154 297.414   8
  -9   0  10-140.833 243.413  17
  -9   0  10 32.7986 150.266   4
   9   0  10-57.3229 64.3346  16
  -9   0  10 11.1781 45.3230   2
  -9   0  10 76.6631 136.287  16
   9   0  10 17.7859 101.914  14
   9   0  10 64.4514 148.424   6
   9   0 -11-19.7983 91.6800  14
   9   0 -11-160.335 389.287  11
   9   0 -11 95.7937 146.707   1
  -9   0  11 178.201 209.944   5
   9   0  11 103.951 56.0233  18
   9   0 -11-49.7548 95.3375  18
   9   0  11 337.161 393.847   8
  -9   0  11 89.9816 94.9881  17
   9   0  11 170.974 207.979  16
  -9   0  11-45.0931 147.280   4
  -9   0  11 192.942 199.132   2
  -9   0  11 122.766 111.864  16
  -9   0 -11 171.313 273.130  19
   9   0  11 52.2828 56.9993  14
   9   0  11 77.0306 114.536   6
   9   0 -12-35.3223 98.1255  14
   0   9 -12-207.677 458.184  13
   0  -9  12 181.146 242.751   6
   9   0 -12-159.186 444.438  11
  -9   0 -12 267.445 312.920  19
  -9   0  12 63.5375 184.791   5
   9   0 -12 34.2625 127.931   1
   9   0 -12 31.8931 91.0607  18
   9   0  12-26.7169 41.6879   8
  -9   0  12 68.4581 177.141  17
   9   0  12-2.87046 196.582  16
  -9   0  12 56.8563 137.085   4
  -9   0  12-9.62645 48.5779  16
  -9   0  12-5.81677 36.3096   2
   9   0  12-328.494 270.423   6
   0   9 -13 871.380 437.788   3
   9   0 -13 290.046 251.230  14
   0   9 -13 740.983 413.341  13
   0  -9  13 168.928 224.087   6
   9   0 -13-302.964 572.526  11
  -9   0 -13-423.295 398.926  19
  -9   0  13 745.905 443.443   5
   0   9 -13 488.159 407.354  18
   9   0 -13 389.102 349.031   1
   9   0 -13-11.0650 187.461  18
   9   0  13 1150.53 520.537   8
  -9   0  13 847.652 475.677  17
   9   0  13 843.969 439.240  16
  -9   0  13 764.354 341.078   4
  -9   0  13 523.240 259.537  16
  -9   0  13 810.253 418.766   2
   9   0  13 259.328 180.836   6
   0   9 -14 50.6345 149.544   3
   9   0 -14-5.52262 105.948  14
   0   9 -14 152.421 243.148  13
   0  -9  14 68.5963 85.7420   6
  -9   0 -14-117.792 240.964  19
  -9   0  14-49.5925 156.276   5
   0   9 -14 58.2856 153.669  18
   9   0 -14-154.736 330.610  18
   0  -9  14 230.758 485.448  17
   9   0  14 124.697 239.138   8
   9   0 -14 41.6464 117.710   1
  -9   0  14-131.350 223.651  17
   9   0  14 222.137 346.784  16
  -9   0  14 49.8127 74.0830  16
  -9   0  14-150.188 208.547   4
  -9   0  14-32.3020 69.6066   2
   0   9 -15 402.119 323.555   3
   9   0 -15 36.9809 120.749  14
   0   9 -15 449.759 446.996  13
   0  -9  15 71.5498 134.988   6
  -9   0 -15-25.7551 177.178  19
  -9   0  15 546.078 403.047   5
   0   9 -15 183.965 133.564  18
   9   0 -15-172.568 351.412  18
   9   0  15 691.313 558.791   8
   0  -9  15 152.123 326.047  17
   9   0 -15 37.4869 163.578   1
  -9   0  15 16.6141 227.765  17
   9   0  15 421.453 337.782  16
  -9   0  15 364.425 298.325  16
  -9   0  15 130.741 37.7755   4
  -9   0  15 356.307 380.105   2
   9   1   0 959.980 425.897  14
   9   1   0 910.034 419.630   1
   9   1   0 476.510 217.340   6
   9  -1   0 900.243 388.369  14
   9  -1   0 803.545 292.056   6
  -9  -1   0 461.489 207.451  12
  -9   1   0 219.501 130.530  12
   9   1   0 1385.38 389.806  11
  -9  -1   0 522.320 305.489   5
  -9   1   0 532.098 146.740  20
  -9   1   0 691.655 384.239   5
  -9  -1   0 191.237 222.622  19
  -9   1   0 759.925 361.586  19
   9   1   0-78.1438 93.1204   9
   9   1   0 931.298 348.440  18
   9  -1   0 311.784 182.685  18
  -9   1   0 794.652 268.008   2
   9  -1   0 745.238 324.124   1
  -9  -1   0 136.650 250.655   4
  -9  -1   0 311.301 267.127  17
   9   1   0 1293.29 511.388   8
  -9   1   0 358.806 237.131  17
  -9   1   0 765.038 386.036   4
   9  -1   0 891.221 413.269   8
   9   1   1-138.903 206.063  14
   9   1  -1-155.255 166.771  14
   9   1   1-59.5639 114.249   6
   9   1  -1 21.7723 35.7766   6
   9  -1   1 31.7220 79.7106  14
   9  -1  -1-24.5512 107.918  14
   9   1  -1-7.51104 90.6461   1
   9  -1   1-65.6391 89.4020   6
   9  -1  -1-29.4752 57.0551   6
  -9  -1  -1 458.548 268.898  12
  -9  -1  -1 26.3401 51.0791   3
  -9  -1   1-72.7777 83.2771  12
  -9   1  -1-52.0061 89.8346  12
  -9   1   1-41.3502 84.8989  12
   9   1   1 333.998 219.788  11
  -9  -1  -1 30.8809 135.666   5
   9   1  -1-96.3618 101.347  11
  -9  -1   1-89.8811 200.820   5
  -9   1  -1 14.6398 52.1263  20
  -9   1  -1-4.95271 81.6492   5
  -9  -1   1 130.267 156.590   2
  -9   1   1-50.6322 151.096   5
  -9  -1  -1-145.288 134.493  19
  -9  -1   1 2.34965 47.5240  19
  -9   1  -1 55.1055 105.319  19
  -9   1   1-7.06324 54.2531  19
   9  -1   1 31.5894 83.5824   1
   9   1  -1-316.678 174.146   9
  -9   1  -1-0.02074 57.2191   2
   9   1   1 0.44886 23.3173  18
   9   1  -1 48.7578 66.0137  18
   9  -1   1-50.6605 130.769  18
   9  -1  -1-42.2838 151.971  18
  -9  -1  -1-171.727 260.363   4
  -9  -1   1 6.45271 88.5344   4
  -9  -1  -1-65.4007 46.3600  17
  -9  -1   1 12.3302 19.2464  17
   9   1   1-162.277 263.513   8
  -9   1   1 26.7422 58.3516   2
   9   1  -1-52.8909 121.062   8
  -9   1  -1 10.6419 98.4422  17
  -9   1  -1 41.4636 105.055   4
  -9   1   1-19.5143 60.6228  17
   9  -1   1-28.3325 112.516   8
  -9   1   1-86.9228 107.562   4
   9  -1  -1-30.2652 56.1417   8
   9  -1  -1-72.7778 89.7829   1
   9   1   1 33.1144 142.361   1
   9  -1  -2 302.949 214.711   1
   9   1   2 231.999 144.857  14
   9   1   2 176.172 146.400   6
   9   1  -2 213.298 249.707  14
   9  -1   2 187.731 175.557  14
   9   1  -2 165.805 108.937   6
   9  -1  -2 144.045 180.376  14
  -9   1  -2 188.847 128.540   2
  -9   1  -2 63.4163 94.6116   3
   9  -1   2 274.902 181.359   6
   9   1  -2 180.870 94.5319  13
   9  -1  -2 198.917 129.907   6
   9   1  -2 242.572 245.895   1
  -9   1  -2 236.003 201.300  12
  -9  -1   2 151.827 102.592  12
   9   1  -2 275.174 185.201  11
  -9  -1   2 488.444 290.269   5
   9  -1   2 151.455 171.108   1
  -9   1  -2 277.726 228.094   5
  -9   1  -2 145.268 95.7288  20
  -9   1   2 122.524 178.487   5
  -9  -1  -2 183.624 201.691  19
  -9  -1   2 170.137 215.293  19
  -9   1  -2 101.527 133.443  19
  -9  -1   2 228.076 147.720   2
  -9   1   2 129.435 145.853  19
   9   1  -2-304.886 200.302   9
   9   1   2 401.533 210.745  18
   9   1  -2 314.637 230.464  18
   9  -1   2 104.930 44.7497  18
  -9  -1  -2-138.392 300.743   4
   9  -1  -2 90.4361 81.9952  18
  -9  -1   2 64.2169 105.778   4
  -9  -1  -2-72.5708 104.357  17
   9   1   2 544.710 420.817   8
  -9  -1   2 158.765 183.710  17
  -9   1  -2 191.239 234.033   4
   9   1  -2 423.432 327.564   8
  -9   1  -2-43.5810 106.325  17
   9  -1   2 179.528 208.670   8
  -9   1   2-18.5773 150.437  17
  -9   1   2 331.942 198.231   2
   9  -1  -2 201.539 171.609   8
  -9   1   2 259.702 245.113   4
   9   1   2 153.525 83.4227  16
   9   1   2 243.894 222.293   1
  -9  -1   2-101.692 237.915  15
   9   1   3-21.9473 118.036   6
   9   1  -3 17.7294 90.3487  14
   9  -1   3 61.8314 101.247  14
   9   1  -3-82.8144 93.1601   6
   9  -1  -3 38.4899 122.781  14
   9  -1   3-34.4234 58.8856   6
   9  -1  -3 61.8181 87.9454   1
  -9   1  -3 79.2228 81.2567   3
   9   1  -3-13.5255 43.8847  13
   9  -1  -3 62.3894 84.0165   6
  -9   1  -3 33.7681 104.861  12
   9  -1   3 19.0438 100.453   1
  -9  -1   3-34.4536 48.7398  12
   9   1  -3 22.8692 77.2942   1
   9   1  -3-107.242 150.804  11
  -9   1  -3 23.7092 90.3936   5
  -9  -1   3 56.0396 180.005   5
  -9   1  -3-53.3530 115.058  20
  -9  -1  -3-61.5316 42.4866  19
  -9   1   3 155.046 170.215   5
  -9  -1   3 79.1753 65.5745  19
  -9   1   3 77.9643 142.462  19
  -9  -1   3-9.96385 53.3771   2
   9   1  -3-298.318 229.862   9
   9   1   3 59.7799 143.447  18
   9   1  -3 118.153 122.553  18
  -9  -1  -3-187.703 267.138   4
   9  -1   3-41.7468 81.2340  18
   9  -1  -3 21.7627 79.1117  18
  -9  -1  -3 73.6665 112.356  17
   9   1   3 124.032 203.020   8
  -9  -1   3-17.9849 94.6154   4
  -9   1  -3-44.4479 15.7779   4
  -9  -1   3-80.8051 205.717  17
   9   1   3 61.8465 66.6696   1
  -9   1  -3-60.4890 76.4472  17
   9  -1   3-2.11075 141.257   8
   9   1  -3-91.7891 107.574   8
  -9   1   3 94.3597 206.727  17
   9  -1  -3-70.6347 183.276   8
  -9   1   3 201.600 191.194   4
  -9   1   3 130.781 140.731   2
   9   1   3 66.9083 75.0363  16
  -9  -1   3-234.773 272.544   7
  -9   1  -3-86.3398 151.784  19
  -9  -1   3-154.499 215.373  15
   9   1   3 58.3769 58.1943  14
   9   1  -4 13.2807 98.9166  14
   9  -1   4 74.3866 92.4827  14
   9  -1  -4 25.8205 75.9645  14
   9   1  -4 0.84627 49.9060   6
   9  -1   4 31.2872 124.371   6
   9  -1   4 46.8082 166.146   1
   9   1  -4-11.0016 38.0956  13
  -9   1  -4-34.6821 83.3471   3
   9  -1  -4 79.6702 96.2688   6
  -9   1  -4-19.7564 45.6172  12
   9  -1  -4 43.5258 92.4382   1
   9   1  -4-37.0438 119.739  11
  -9   1  -4 84.1836 177.710   5
   9   1  -4 70.8525 159.697   1
  -9  -1   4 64.8346 136.163   5
  -9   1  -4-208.942 201.660  20
  -9  -1  -4 47.3386 104.128  19
  -9   1   4 0.44440 82.0628   5
  -9   1  -4 13.2775 28.4699  19
  -9  -1   4 27.6349 39.8118  19
  -9   1   4-69.4451 142.135  19
   9   1   4 18.3354 105.109  18
   9   1  -4-343.913 248.175   9
  -9  -1   4 129.351 121.058   2
   9   1  -4-57.7210 134.749  18
   9  -1   4-38.3039 94.8840  18
   9  -1  -4-61.4053 132.750  18
   9   1   4 46.0160 58.5624   1
  -9  -1  -4 139.294 127.353  17
   9   1   4-57.6418 90.3565   8
  -9   1  -4 20.9425 82.6839   4
  -9  -1   4-1.10746 42.9127   4
  -9  -1   4 17.8623 93.1119  17
   9  -1   4 108.167 274.277   8
  -9   1  -4 140.162 116.985  17
  -9   1   4-52.3630 123.205  17
   9   1  -4-103.733 131.351   8
   9  -1  -4-10.2181 73.2282   8
  -9   1   4 11.2551 69.6297   4
   9   1   4 73.6675 109.822  16
  -9   1   4-75.1221 97.4323   2
  -9  -1   4-149.733 162.320   7
  -9   1  -4 649.018 479.773   7
  -9  -1   4 7.03841 45.5199  15
  -9   1  -4 406.494 401.621  15
   9   1   4 13.0227 61.8275  14
   9   1   4 28.4976 85.9129   6
   9  -1   5-22.7827 45.0588  14
   9   1  -5 18.9205 126.444  14
   9  -1  -5 5.91091 29.5460  14
   9   1  -5-19.8853 44.9285   6
   9  -1   5 27.5986 137.157   6
  -9   1  -5 144.877 213.196  12
  -9   1  -5 146.263 152.995   3
   9  -1  -5 3.55359 4.98018   6
  -9   1  -5 195.561 236.179   5
   9   1  -5-73.4809 78.0942  11
  -9  -1   5 12.2895 46.2818   5
  -9   1  -5-289.029 311.930  20
   9  -1  -5 6.49696 106.612   1
  -9  -1  -5 81.1203 180.929  19
   9   1  -5 102.259 122.041   1
  -9   1  -5-85.2764 64.0780  19
  -9   1   5-1.98257 71.9318   5
  -9  -1   5-227.205 178.311  19
  -9   1   5-21.5514 109.529  19
   9   1   5-98.0718 239.073   1
   9   1   5 159.143 153.994  18
   9   1  -5-256.541 231.468   9
   9   1  -5 127.959 184.177  18
   9  -1   5-17.7848 90.5048  18
  -9  -1   5 87.5090 134.292   2
   9  -1  -5 8.36172 99.0927  18
  -9  -1  -5 3.38570 25.7804  17
  -9   1  -5 42.4894 166.580   4
   9   1   5-177.823 296.282   8
  -9  -1   5 119.790 196.536  17
   9  -1   5 0.56995 172.685   8
  -9  -1   5-7.98024 53.3638   4
  -9   1  -5 86.3777 53.3650  17
  -9   1   5-45.2894 115.760  17
   9   1  -5 106.889 171.368   8
   9  -1   5-120.093 184.338  16
   9  -1  -5-81.4753 134.985   8
  -9   1   5-16.0215 42.1766   4
   9   1   5 8.78434 69.8188  16
  -9  -1   5 189.063 170.186   7
  -9   1  -5 335.768 348.174   7
  -9   1   5 39.6521 67.6909   2
  -9  -1   5 33.3786 101.624  15
  -9   1  -5 27.5643 118.475  15
   9  -1   5-123.250 127.321   1
   9   1   5-41.0251 88.2102  14
   9   1   5-49.3006 148.018   6
   9  -1   6 211.669 191.900  14
   9   1  -6 184.314 231.610  14
   9  -1  -6 43.8125 71.8214  14
   9  -1   6 346.324 254.947   6
   9   1  -6 227.145 102.359   6
  -9   1  -6 142.931 219.730  12
   9  -1  -6 145.571 98.9719   6
  -9   1  -6 109.511 148.253   3
  -9   1  -6 97.2377 125.023   5
   9   1  -6 54.6725 131.486  11
  -9  -1   6 155.590 180.311   5
  -9  -1  -6-53.4563 52.2513  19
   9   1   6 133.369 98.8318   1
  -9   1  -6 126.415 206.808  19
  -9   1   6 500.794 334.775   5
  -9  -1   6 218.454 189.504  19
  -9   1   6 342.509 216.375  19
   9  -1  -6 156.110 79.7511   1
   9   1  -6 154.209 207.661   1
   9   1   6 333.086 205.856  18
   9   1  -6 145.476 120.938  18
   9  -1   6 137.552 57.2198  18
   9  -1  -6 45.0336 42.4480  18
  -9   1  -6 59.0335 115.009   4
  -9  -1   6 188.231 192.349   2
  -9  -1  -6-56.8757 111.424  17
   9   1   6 283.669 286.067   8
   9  -1   6 307.172 289.085   8
  -9  -1   6 193.906 264.163  17
  -9   1  -6 110.547 88.5098  17
  -9  -1   6 201.568 252.148   4
  -9   1   6 30.9382 37.9418  17
  -9  -1   6 92.4944 54.7530  16
   9   1  -6 155.134 93.5384   8
   9  -1   6 238.850 179.024  16
  -9   1   6 225.113 245.457   4
   9  -1   6 268.155 214.237   1
   9   1   6 155.384 69.4345  16
  -9   1  -6-103.011 281.288   7
  -9   1  -6-44.1037 205.788  15
  -9   1   6 195.312 176.177   2
   9   1   6 201.625 220.133  14
   9   1   6 96.3555 113.237   6
   9  -1   7-143.337 184.145  14
   9   1  -7-9.65355 36.6943  14
   9  -1   7 9.58654 81.2901   6
   9  -1  -7 18.0091 38.0949  14
   9   1  -7 108.158 68.6119   6
  -9   1  -7 143.169 214.837   3
   9   1   7-79.7579 264.593   1
   9   1  -7-204.709 246.039  11
  -9  -1   7-61.1894 148.434   5
  -9  -1  -7 103.229 294.413  19
  -9   1  -7 76.1416 145.471  19
  -9   1   7 29.0427 75.6151   5
  -9  -1   7 188.473 180.752  19
  -9   1   7 111.856 129.592  19
   9   1   7 55.6585 152.533  18
   9   1  -7-589.922 385.289   9
   9  -1   7 77.5360 60.1800  18
   9   1  -7-45.6216 150.207  18
   9   1  -7 53.3195 117.771   1
   9  -1  -7-220.069 206.955  18
  -9   1  -7-97.5027 254.014   4
  -9  -1  -7 299.413 217.110  17
   9   1   7 70.7464 229.431   8
  -9  -1   7 62.8520 113.947   2
   9  -1  -7 133.918 167.719   1
   9  -1   7 135.452 186.595   8
   9  -1   7 66.2691 141.494   1
  -9  -1   7 58.3547 147.725  17
  -9   1  -7-45.8755 71.2367  17
  -9  -1   7-0.33756 62.6111   4
  -9   1   7-52.0056 132.592  17
   9   1  -7 60.5364 72.9456   8
   9  -1   7 219.220 193.394  16
  -9  -1   7 32.2778 54.4476  16
  -9   1   7-61.1787 140.216   4
   9   1   7 36.0312 55.5834  16
  -9   1  -7-162.674 347.581   7
  -9   1  -7-5.47525 200.556  15
  -9   1   7 2.36734 45.3860   2
   9   1   7 110.643 143.327  14
   9   1   7-81.1826 194.651   6
   9  -1   8 369.550 217.735  14
   9   1  -8 91.0476 160.578  14
   9  -1   8 244.888 235.177   6
   9  -1  -8 16.5010 22.9395  14
   9   1  -8 209.846 78.6490   6
  -9   1  -8-49.8016 52.4134  13
   9   1  -8-3.01069 106.662  11
  -9  -1   8 201.335 173.506   5
  -9  -1  -8 126.108 320.965  19
  -9   1  -8 195.697 219.886  19
  -9  -1   8 198.828 171.862  19
  -9   1   8 189.547 207.136   5
  -9   1   8 6.94378 140.596  19
   9   1   8 220.702 22.3791  18
   9  -1   8 213.397 89.9047  18
   9  -1   8 325.966 251.299   1
   9   1  -8 210.272 224.971  18
  -9   1  -8-211.023 396.771   4
   9  -1  -8-68.3370 207.013  18
   9   1   8 396.842 198.991   8
   9   1  -8 81.7439 136.735   1
   9  -1   8 479.632 314.780   8
  -9  -1   8 58.8388 111.423   2
  -9   1  -8-46.3810 53.2337  17
  -9  -1   8 185.562 86.2845  17
  -9   1   8 2.93267 116.706  17
  -9  -1   8 109.342 200.168   4
   9  -1   8 236.056 135.732  16
  -9  -1   8 236.637 129.236  16
   9   1  -8 5.57236 113.691   8
   9  -1  -8 54.3235 111.069   1
  -9   1  -8-867.919 498.709   7
   9   1   8 196.538 159.608  16
  -9   1   8 100.064 159.392   4
  -9   1  -8-85.3885 241.618  15
   9   1   8-51.6457 255.325   6
   9   1   8 139.673 166.905  14
  -9   1   8 102.239 123.347   2
   9  -1   9-34.0377 57.2831  14
   9  -1  -9 19.0155 132.596   1
   9   1  -9 55.5796 101.799  14
   9  -1   9 178.376 193.225   6
   9  -1  -9-52.0693 66.5176  14
  -9   1  -9 42.2723 59.1782  13
   9   1  -9 5.08865 25.4162   6
   9   1  -9-157.231 286.238  11
  -9  -1  -9 87.3739 202.907  19
  -9   1  -9-78.8769 134.356  19
   9  -1   9-159.517 212.490   1
  -9  -1   9 23.6269 72.8993  19
  -9   1   9 270.076 243.044   5
   9  -1   9 2.30234 50.4201  18
   9   1  -9-82.7112 173.540  18
   9  -1  -9-132.768 264.872  18
   9   1   9 248.222 335.480   8
   9  -1   9-99.7437 201.249   8
  -9   1  -9-65.8758 68.1557  17
  -9  -1   9-47.8447 116.306   2
  -9  -1   9-107.187 212.675  17
  -9   1   9-353.769 299.866  17
  -9  -1   9-58.0831 134.070   4
   9   1  -9-178.349 179.476   1
  -9  -1   9 227.818 254.919   5
   9  -1   9 0.04297 76.9831  16
  -9  -1   9 58.3259 46.3493  16
   9   1   9 131.467 218.015  16
  -9   1   9-289.559 210.722   4
  -9   1  -9-266.904 572.151  15
   9   1   9-357.652 399.023   6
  -9   1   9 42.9222 103.590   2
   9  -1  10-9.33795 114.167   6
   9   1 -10 49.9971 104.018  14
   9  -1 -10-17.5709 92.4443  14
   9  -1 -10 134.184 229.928   1
   9  -1  10-51.0409 179.589   1
   9   1 -10-105.178 311.549  11
  -9  -1 -10 129.009 249.605  19
  -9  -1  10-153.134 219.382   5
  -9   1 -10 178.237 207.651  19
  -9  -1  10-42.7972 87.9329  19
  -9   1  10 4.28352 42.2256   5
   9  -1  10 11.1068 29.3682  18
   9   1 -10 3.10919 44.0671  18
   9   1  10 16.1652 136.877   8
   9  -1  10 160.271 243.405   8
  -9  -1  10-140.383 260.512  17
  -9  -1  10-167.874 241.271   2
  -9   1  10-180.478 386.477  17
  -9  -1  10-25.1292 12.6398   4
   9  -1  10-105.446 68.5771  16
  -9  -1  10 113.962 83.6075  16
   9   1  10 15.1037 88.2483  16
   9   1 -10 27.2682 142.610   1
  -9   1  10-183.438 196.264   4
   9  -1  10-19.3567 169.840  14
  -9   1  10 28.5550 81.2199   2
  -9   1  11 145.181 225.450   2
   9  -1  11 89.3054 177.077   6
   9   1 -11 122.813 158.909  14
   9  -1 -11 19.9746 94.9251  14
   9  -1 -11 135.308 162.700   1
   9   1 -11 176.312 196.524  11
  -9  -1 -11-173.661 310.651  19
  -9  -1  11 73.1438 127.237   5
  -9   1 -11 165.373 248.274  19
  -9  -1  11-52.2387 148.379  19
  -9   1  11 110.757 149.677   5
   9   1 -11-15.2707 187.447  18
   9   1  11 429.822 458.564   8
   9  -1  11 275.900 284.103   8
  -9  -1  11 78.5746 212.373  17
  -9  -1  11 73.5856 160.222   2
  -9  -1  11 93.0828 117.985   4
   9  -1  11 41.6334 106.786  16
  -9  -1  11 69.0501 63.7716  16
   9   1  11 61.3060 141.108  16
  -9   1  11-295.233 308.857   4
   9   1 -11 180.865 215.894   1
   9  -1  11 46.4757 78.4533  14
  -9   1  12 536.209 377.413   2
   9  -1  12 624.093 350.447   6
   9   1 -12 308.707 269.940   1
   9   1 -12 376.520 228.350  14
   9  -1 -12 160.308 149.585  14
   1   9 -12 464.301 288.276  13
   1  -9  12 160.943 217.644   6
  -1  -9  12 99.5989 195.679   6
   9  -1 -12 220.462 286.415   1
   9   1 -12 234.557 254.906  11
  -9  -1 -12-145.437 206.388  19
  -9  -1  12 790.840 442.003   5
  -9   1 -12 82.7030 297.936  19
  -9   1  12 591.147 379.606   5
   1   9 -12-38.3913 205.418  18
   9   1 -12 133.659 122.858  18
   9   1  12 636.075 444.029   8
   9  -1  12 1057.02 560.938   8
  -9  -1  12 511.536 352.906  17
  -9  -1  12 402.577 282.905   2
  -9  -1  12 532.411 250.965   4
   9  -1  12 891.435 468.557  16
  -9  -1  12 536.600 241.895  16
   9   1  12 472.446 310.084  16
   9  -1  12 565.047 384.317  14
   9  -1  13-28.4491 165.871   6
  -1   9 -13 169.551 174.076   3
   9   1 -13 36.3150 119.889  14
   9   1 -13 373.379 289.682   1
  -1   9 -13-202.456 458.884  13
   1   9 -13-196.443 317.799  13
   1  -9  13-93.8680 131.937   6
  -1  -9  13-42.6981 11.2550   6
   9   1 -13 19.6223 165.140  11
  -9  -1 -13 15.5502 59.2673  19
  -9   1 -13-295.549 281.157  19
  -9  -1  13 69.2950 40.6176   5
  -1   9 -13 34.2171 84.8280  18
   1   9 -13 55.4561 361.473  18
   9   1 -13 40.0262 130.667  18
   9   1  13 123.455 110.506   8
  -1  -9  13-164.763 247.353  17
   9  -1  13-144.598 273.698   8
  -9  -1  13 517.070 422.932  17
  -9  -1  13-39.8695 129.686   2
  -9  -1  13 135.755 168.656   4
   9  -1  13-60.1608 165.594  16
  -9  -1  13 107.642 119.987  16
   9   1  13-89.2151 221.892  16
   9  -1  13 275.645 255.655  14
   9  -1  14 1137.52 556.953   6
   1   9 -14 1124.67 486.583   3
   9   1 -14 242.561 165.247  14
  -1   9 -14 1012.21 479.806   3
  -1   9 -14 460.224 313.945  13
   1   9 -14 949.344 544.671  13
   9   1 -14 531.292 318.646   1
   1  -9  14 41.5307 154.628   6
  -1  -9  14 87.0370 200.368   6
   9   1 -14 255.035 337.711  11
  -9  -1 -14-528.839 478.804  19
  -9   1 -14 2.36264 76.6182  19
  -9  -1  14 724.423 424.957   5
  -1   9 -14 757.324 376.033  18
   1   9 -14 869.071 536.799  18
   9   1 -14 429.269 299.195  18
   9   1  14 1580.89 719.779   8
   1  -9  14 159.175 225.876  17
   9  -1  14 1775.45 721.446   8
  -9  -1  14 1067.35 559.200  17
  -9  -1  14 817.027 406.243   2
  -9  -1  14 929.032 405.810   4
   9  -1  14 1344.40 560.929  16
  -9  -1  14 686.090 306.262  16
   9   1  14 1126.02 534.794  16
   9  -1  14 764.119 365.530  14
   9   1 -15-38.8444 87.4709  14
   1   9 -15-28.5159 146.825   3
  -1   9 -15 103.843 202.332   3
  -1   9 -15 31.8025 195.725  13
   1   9 -15 129.014 299.209  13
   9   1 -15-10.5327 62.3754   1
  -1  -9  15 37.1213 147.958   6
   1  -9  15 67.7091 216.894   6
  -1   9 -15-90.7395 226.845  12
   9   1 -15-215.431 348.229  11
  -9  -1 -15 198.587 298.743  19
  -9   1 -15-101.039 236.387  19
  -9  -1  15-76.9578 127.252   5
  -1   9 -15-111.784 213.372  18
   1   9 -15 10.1263 122.889  18
   9   1 -15-106.197 165.143  18
   9   1  15 513.998 535.479   8
   1  -9  15 260.192 256.875  17
  -1  -9  15 30.5943 109.945  17
   9  -1  15-114.963 168.485   8
  -9  -1  15-485.969 394.096  17
  -9  -1  15 88.4824 149.620   2
  -9  -1  15 52.4675 137.149   4
   9  -1  15-59.9314 176.336  16
  -9  -1  15 141.983 199.081  16
   9   1  15 47.1663 44.0340  16
   9  -1  15-168.208 206.204   6
   9  -2   0-28.3606 87.8720  14
   9  -2   0 50.2832 102.618   1
   9  -2   0 118.350 102.566   6
  -9   2   0 7.05955 122.292  12
  -9  -2   0 21.3406 100.491  19
  -9   2   0 25.2160 160.336   5
  -9   2   0-72.7895 188.099  19
   9   2   0-6.09153 72.5220  18
  -9  -2   0 104.483 206.081  17
   9   2   0 102.896 182.334   8
   9   2   0 23.5628 73.8372   1
   9  -2   0-41.1586 172.509   8
  -9   2   0 50.6585 24.7328   4
  -9   2   0 11.7197 26.8701   2
   9   2   0-131.017 160.399  14
   9   2   1 2707.53 734.684   1
   9   2  -1 2974.70 726.786   1
   9  -2   1 1981.66 531.513   1
  -9   2  -1 895.974 309.489  12
   9  -2  -1 1672.87 496.583   1
  -9   2  -1 1867.44 606.078   5
  -9   2   1 1854.56 582.567   5
  -9   2  -1 1924.55 366.030   2
  -9   2   1 1595.44 363.489   2
  -9   2  -1 1868.98 545.479  19
  -9   2   1 2005.50 546.228  19
  -9  -2  -1 95.8209 112.339  19
  -9  -2   1 601.003 304.352  19
   9   2   1 2436.21 589.796  18
   9   2  -1 2674.78 628.316  18
  -9   2  -1 1953.33 615.082   4
  -9   2   1 1909.40 586.984   4
   9   2  -1 2545.90 689.746   8
   9  -2   1 2017.90 648.313   8
  -9  -2   1 177.078 150.043   4
  -9  -2  -1 241.500 226.063  17
   9   2   1 2354.24 690.273   8
  -9  -2   1 428.661 264.017  17
   9  -2  -1 1730.54 554.555   8
   9   2   1 1713.18 598.100  14
   9   2  -1 1726.05 576.423  14
   9  -2   1 2422.05 516.567   6
   9  -2  -1 1966.98 449.520   6
   9  -2   1 2010.06 553.038  14
   9  -2  -1 1929.54 531.854  14
   9  -2   2 71.4698 104.135  14
   9  -2  -2 75.8862 142.962  14
   9  -2   2-20.5720 93.8027   6
  -9  -2   2 5.22295 15.2017  12
   9  -2  -2-29.6230 36.0149   6
  -9   2  -2-33.0452 125.226  12
   9   2  -2 694.299 398.935  11
  -9  -2   2-1.10348 28.6833   5
  -9   2  -2 37.6341 97.5539   5
   9   2  -2 81.3492 55.4962  10
  -9  -2  -2 103.450 112.297  19
  -9  -2   2 89.0329 158.661  19
  -9   2   2-195.197 197.076   5
  -9   2  -2-90.1423 139.432  19
  -9   2   2 166.738 149.919  19
   9  -2  -2-3.59446 24.8716   1
   9   2   2 38.0374 123.655  18
   9   2  -2-8.15911 40.3939  18
   9   2   2 25.8182 103.673   1
  -9  -2   2-564.979 342.326   4
  -9  -2  -2-77.6421 81.1619  17
   9   2   2 5.35463 14.2044   8
  -9   2  -2 60.1467 79.9327   2
  -9  -2   2-102.097 193.926  17
   9   2  -2 172.206 174.291   8
   9  -2   2-123.224 191.233   1
   9  -2   2-158.003 247.656   8
  -9   2  -2 29.8160 120.584   4
   9  -2  -2-43.6559 93.3266   8
  -9   2   2 115.974 141.334   4
   9   2   2 50.8323 62.0482  16
   9   2  -2 8.18767 71.4181   1
   9   2   2-130.236 187.688  14
  -9   2   2-14.3027 45.2925   2
   9   2  -2-109.308 146.525  14
   9   2  -3 410.597 253.778  14
   9   2  -3 518.717 359.070   1
  -9   2   3 296.933 155.767   2
   9  -2   3 345.840 214.058  14
  -9   2  -3 111.077 106.546   3
   9  -2  -3 232.742 239.748  14
   9   2  -3 257.775 130.453  13
   9  -2   3 269.510 144.022   6
   9  -2  -3 278.177 142.348   6
  -9  -2   3 150.122 92.8140  12
  -9   2  -3 202.378 165.638  12
   9   2  -3 711.750 366.913  11
  -9  -2   3 130.458 160.220   5
  -9   2  -3 391.172 259.697   5
  -9  -2   3 217.347 174.230   2
  -9  -2  -3-73.9099 76.4390  19
   9   2  -3 117.494 48.6180  10
  -9  -2   3 79.1008 183.877  19
  -9   2  -3 215.917 180.926  19
  -9   2   3 294.660 223.950   5
   9   2  -3 1485.41 439.721   9
  -9   2   3 496.830 265.219  19
   9   2   3 400.205 319.559   1
   9   2   3 435.729 232.663  18
  -9   2  -3 371.746 150.281   2
   9   2  -3 602.018 306.442  18
   9  -2   3 470.469 276.395   1
  -9  -2   3 44.5834 55.1001   4
  -9  -2  -3-192.865 198.415  17
   9   2   3 381.395 305.120   8
  -9  -2   3 153.327 131.883  17
   9   2  -3 816.915 342.999   8
   9  -2  -3 284.890 221.090   1
  -9   2  -3 245.851 202.869   4
   9  -2   3 515.541 322.633   8
   9  -2  -3 147.707 86.7828   8
  -9   2   3 284.663 192.999   4
   9   2   3 236.908 115.081  16
   9   2   3 257.232 207.055  14
   9   2  -4 10.6197 88.9085  14
   9  -2  -4 32.0687 107.533   1
   9  -2   4 18.1334 81.9725  14
  -9   2   4 15.9507 67.0844   2
   9  -2  -4 28.1968 80.7217  14
   9   2  -4-22.4556 172.261   1
  -9   2  -4-9.22598 50.3598   3
   9  -2   4 88.6981 150.513   6
   9   2  -4 26.6456 40.5059  13
  -9   2  -4-53.6358 98.3573  12
   9  -2  -4-40.1786 77.6067   6
  -9  -2   4-44.7475 68.7032  12
   9   2  -4-94.6817 200.645  11
  -9  -2   4 163.728 237.257   5
  -9   2  -4 180.718 189.339  20
  -9   2  -4 17.1416 74.8795   5
   9  -2   4-53.2273 80.9491   1
  -9   2  -4 107.491 74.7187  10
  -9  -2  -4-63.2032 147.958  19
   9   2   4-28.9553 133.967   1
   9   2  -4-85.3138 130.813  10
  -9  -2   4 74.3656 175.477  19
  -9  -2   4 10.5805 58.5027   2
  -9   2  -4 59.6733 115.661  19
  -9   2   4 129.191 209.294   5
   9   2  -4 492.412 289.691   9
  -9   2   4-42.0917 128.433  19
   9   2   4 13.4362 160.674  18
   9   2  -4 105.526 155.136  18
  -9  -2   4 9.89476 45.3560   4
  -9  -2  -4-12.1876 161.620  17
   9   2   4-149.013 132.334   8
  -9  -2   4 25.4184 71.5551  17
   9   2  -4 353.628 252.200   8
  -9   2  -4 70.2458 154.061   4
   9  -2   4 7.01223 159.819   8
   9  -2  -4-407.451 276.311   8
  -9   2   4 157.186 185.938   4
   9   2   4 29.1192 64.0033  16
   9   2   4-52.5217 228.437  14
   9   2  -5-75.9073 101.493  14
   9  -2   5 170.293 151.471  14
  -9   2   5-24.0799 99.2912   2
   9  -2  -5 65.5647 133.831  14
   9  -2   5-11.9712 112.476   6
  -9   2  -5 12.3133 134.935   3
   9   2  -5 38.8231 127.699   1
   9   2  -5 79.6797 92.9839  13
   9  -2  -5 36.7538 96.1826   1
  -9   2  -5-80.0637 78.9737  12
   9  -2   5 31.9290 72.6804   1
   9   2  -5 191.242 199.462  11
  -9  -2   5 191.875 219.722   5
   9   2   5-46.7162 174.334   1
  -9   2  -5 52.4808 159.741   5
  -9   2  -5 12.8930 104.271  20
   9   2  -5 249.825 204.056   9
  -9  -2  -5 58.1920 65.6988  19
  -9   2  -5-6.93639 44.8106  10
   9   2  -5-19.7703 88.9739  10
  -9  -2   5 97.9885 130.709  19
  -9   2  -5-8.84506 156.801  19
  -9   2   5-43.0125 93.2117   5
  -9  -2   5 15.6423 95.8297   2
  -9   2   5 47.0592 117.071  19
   9   2   5 99.7972 178.185  18
   9   2  -5 47.8374 62.7090  18
   9   2   5 146.906 244.928   8
  -9  -2   5 1.43941 91.1835   4
  -9  -2   5 87.5436 130.618  17
  -9   2  -5 192.576 224.473   4
   9   2  -5 198.444 227.413   8
   9  -2   5 9.59929 93.5426   8
  -9   2   5-56.6025 181.910   4
   9   2   5 37.8819 73.0363  16
   9   2  -6 125.571 180.796  14
   9  -2   6 98.0063 134.819  14
   9  -2  -6 91.1674 172.709  14
  -9   2   6-12.7189 81.9752   2
   9  -2   6 113.520 151.305   6
   9  -2   6 140.238 141.717   1
   9   2  -6 101.854 73.3529  13
  -9   2  -6 26.4158 59.7494   3
   9   2  -6 200.415 192.899   1
  -9   2  -6 51.7965 41.8780  12
   9   2  -6 258.707 222.486  11
  -9   2  -6 184.948 240.493   5
  -9  -2   6 256.928 279.273   5
  -9   2  -6 19.6120 51.0191  20
  -9  -2  -6-273.872 339.801  19
  -9   2  -6 63.1608 49.9180  10
   9   2  -6-206.740 192.818  10
  -9   2  -6 41.6450 102.520  19
  -9  -2   6 13.4268 34.6616  19
   9  -2  -6 31.3236 19.4765   1
  -9   2   6-150.580 145.749  19
  -9   2   6 117.151 132.712   5
   9   2  -6-81.8665 119.444   9
   9   2   6-128.359 298.050  18
  -9  -2   6 198.610 204.937   2
   9   2  -6 58.2073 89.5286  18
   9   2   6 192.014 201.418   8
  -9  -2   6 78.1588 113.005   4
  -9   2  -6-6.31902 65.2655   4
  -9  -2   6 120.329 218.954  17
   9  -2   6 177.869 172.150   8
   9   2  -6 117.918 130.931   8
   9   2   6 0.16783 41.8435  16
  -9   2   6-8.46973 140.143   4
   9   2  -7-8.07398 85.0458  14
   9  -2   7 83.5930 125.305  14
   9  -2  -7 94.0947 138.793  14
   9  -2   7 107.584 122.835   6
  -9   2   7 86.1878 128.980   2
   9   2  -7 269.497 183.991  13
  -9   2  -7 62.7122 174.353   3
  -9   2  -7 71.4620 141.091  12
   9   2  -7 4.47739 87.3189   1
  -9   2  -7 47.2328 95.7075   5
   9   2  -7 95.0783 213.485  11
  -9  -2   7 272.106 283.283   5
  -9   2  -7 83.5818 35.6432  20
  -9   2  -7-8.46189 146.567  10
  -9   2  -7 86.7513 139.972  19
  -9  -2   7 45.6222 95.5874  19
  -9  -2  -7-89.8226 161.793  19
  -9   2   7 55.5835 117.621   5
   9   2  -7-85.8676 160.926   9
  -9  -2   7 16.2223 112.902   2
   9   2  -7 29.3335 59.9024  18
   9   2   7 367.587 487.972   8
  -9   2  -7 34.0417 143.005   4
   9  -2  -7 65.9891 94.5518   1
  -9  -2   7 68.4998 125.673   4
  -9  -2   7-370.456 296.240  17
   9  -2   7 309.421 272.398   8
   9   2  -7 65.2665 104.979   8
   9  -2   7 19.2283 95.7344  16
   9   2   7 162.881 148.820  16
  -9   2  -7 532.018 502.950   7
  -9   2  -7 250.466 457.668  15
   9  -2   7 45.5710 99.9061   1
   9   2  -8 33.0957 134.021  14
   9  -2   8 94.4253 172.126  14
   9  -2  -8-23.4568 106.002  14
   9  -2   8 224.594 209.531   6
  -9   2  -8 59.1770 167.200  12
  -9   2  -8-3.92550 27.2516   3
  -9   2  -8-101.904 115.400   5
   9   2  -8 295.578 259.230  11
   9   2  -8-56.3517 129.278   1
  -9  -2   8 66.1194 165.776   5
  -9   2  -8 107.254 110.308  20
  -9  -2  -8-264.579 303.277  19
  -9   2  -8 16.1846 81.0972  19
  -9   2  -8-90.6831 190.180  10
  -9  -2   8-91.4565 123.637  19
  -9   2   8-63.9295 146.450   5
   9   2  -8-103.361 150.672   9
   9   2  -8-6.06460 13.7202  18
  -9  -2   8 53.6921 191.695   2
   9   2   8 372.353 371.915   8
  -9   2  -8-91.7610 112.188   4
  -9  -2   8 1.80181 58.0208   4
  -9  -2   8-70.6533 212.432  17
   9  -2   8-56.1097 67.4859   8
  -9  -2   8-106.118 118.195  16
   9  -2   8 15.3616 99.0644  16
   9   2  -8-114.657 222.567   8
   9  -2   8 113.074 115.814   1
   9  -2  -8 19.2674 113.812   1
   9   2   8 45.5808 91.2877  16
  -9   2  -8 221.564 460.585   7
  -9   2  -8 171.668 451.357  15
   9   2  -9-10.1652 64.6222  14
   9  -2   9 71.5085 89.2391  14
   9   2  -9 20.3346 28.4746   3
   9  -2   9 19.8130 50.9733   6
  -9   2  -9-20.0741 65.5015  13
  -9   2  -9 271.732 281.604  12
  -9   2  -9-37.7546 81.0932   3
   9   2  -9-91.3482 106.398  11
  -9  -2   9 42.6299 169.307   5
  -9   2  -9-0.04931 106.422  20
   9   2  -9-52.0921 152.920   1
  -9  -2  -9-291.753 346.883  19
  -9   2  -9-109.170 175.927  19
  -9  -2   9-50.0162 100.882  19
   9   2  -9 39.1762 114.668   9
   9   2  -9-23.5642 148.264  18
  -9  -2   9 141.985 200.224   2
   9   2   9 170.984 171.144   8
  -9   2  -9 166.072 301.794   4
   9  -2   9-30.0614 62.0695   1
  -9  -2   9-140.930 120.759   4
  -9  -2   9-47.1075 109.347  17
   9  -2   9 113.554 165.102   8
  -9  -2   9 6.25642 28.5617  16
   9  -2   9 189.036 222.849  16
   9   2  -9-1.51391 55.5703   8
  -9   2  -9 42.0294 196.443   7
  -9   2  -9-41.4855 115.848  15
   9  -2  10 96.5963 177.576  14
   9   2 -10 108.213 151.224  14
   9  -2  10 111.456 118.968   6
  -9   2 -10-100.155 86.4757  13
   9   2 -10 72.1182 46.6126   3
  -9   2 -10 658.014 421.747  12
  -9   2 -10 281.459 306.418   3
   9   2 -10-0.57323 152.511  11
  -9  -2  10 182.897 283.228   5
  -9   2 -10-102.031 235.917  20
  -9  -2 -10-533.321 508.953  19
  -9   2 -10 224.465 235.710  19
   9   2 -10-30.4313 116.514   1
  -9  -2  10 217.933 179.080  19
   9  -2  10-66.9988 136.114   1
   9   2 -10-202.227 227.524   9
   9   2 -10-52.0977 185.869  18
  -9   2 -10-455.129 337.296   4
   9   2  10-92.5930 123.989   8
  -9  -2  10 141.417 278.778   2
  -9  -2  10 128.707 210.053   4
   9  -2  10 293.913 272.181   8
  -9  -2  10-41.0839 41.0314  17
  -9  -2  10 177.248 156.190  16
   9  -2  10 132.864 188.536  16
  -9   2 -10 14.6441 76.9687   7
  -9   2 -10 207.033 246.385  15
   9  -2  11 849.564 447.938  14
   9   2 -11 426.107 280.871  14
   9  -2  11 809.164 414.477   6
  -9   2 -11 73.2274 99.0194  13
  -9   2 -11 202.757 260.680   3
   9   2 -11 517.173 236.677  11
  -9  -2  11 882.836 451.808   5
  -9   2 -11 25.1510 218.625  20
   9  -2  11 384.041 234.694   1
  -9  -2 -11-7.26925 220.540  19
  -9   2 -11 382.431 309.834  19
  -9  -2  11 559.295 268.503  19
   9   2 -11 743.896 403.046   1
   9   2 -11-111.607 268.245   9
   9   2 -11 465.003 291.553  18
   9   2  11 1168.27 673.000   8
  -9  -2  11 942.154 451.805   2
   9  -2  11 1382.87 600.680   8
  -9  -2  11 607.793 322.067  17
  -9  -2  11 664.664 356.180   4
   9  -2  11 933.387 380.172  16
  -9  -2  11 815.786 296.811  16
  -9   2 -11 207.185 203.347   7
  -9   2 -11 219.116 156.704  15
   9   2 -11 758.780 211.694   3
  -2   9 -12-11.1438 212.013   3
   9   2 -12 119.165 61.5795  14
   9  -2  12-11.0508 83.8375   6
   2   9 -12-61.0596 232.901  13
  -9   2 -12-133.367 90.0887  13
   2  -9  12 135.532 189.357   6
  -2  -9  12-40.3070 84.9092   6
   9   2 -12-106.520 209.259  11
  -9  -2  12-169.413 252.694   5
  -9  -2 -12-538.460 613.965  19
  -9   2 -12-20.1546 148.331  19
  -9  -2  12 30.9374 53.2250  19
   2   9 -12 19.9103 146.342  18
   9   2 -12-413.939 379.047   9
   9   2 -12 60.8312 124.343   1
   9   2 -12 22.6967 126.398  18
   9   2  12 365.710 443.400   8
  -9  -2  12 106.698 111.909   2
   9  -2  12 121.825 96.1509   8
  -9  -2  12 32.3471 109.958  17
  -9  -2  12 184.017 235.696   4
   9  -2  12-37.0775 60.8674  16
  -9  -2  12 139.419 158.941  16
  -9   2 -12-1030.02 860.517   7
   9  -2  12 31.3317 115.947  14
   9   2 -13 418.689 277.234  14
  -2   9 -13 464.142 199.958  13
   2   9 -13 1431.74 650.962  13
  -9   2 -13 28.2609 129.073  13
   2  -9  13 57.4251 196.305   6
  -2  -9  13 183.330 280.582   6
   9   2 -13 641.260 443.098  11
  -9  -2  13 1048.38 534.063   5
  -9   2 -13 344.021 299.785  19
  -2   9 -13 466.873 80.9317  18
   2   9 -13 859.790 563.289  18
   9   2 -13 171.670 62.1740   9
   9   2 -13 916.248 487.441  18
   9   2 -13 979.427 430.922   1
  -2  -9  13 309.900 449.648  17
  -9  -2  13 1349.10 551.182   2
   9  -2  13 3031.51 906.154   8
  -9  -2  13 1108.61 522.620  17
  -9  -2  13 1182.09 455.712   4
   9  -2  13 1780.22 591.033  16
  -9  -2  13 1340.63 396.469  16
   9  -2  13 2361.11 754.705   6
  -2   9 -13 1607.86 610.362   3
   9  -2  13 1617.93 629.779  14
   2   9 -14-21.7635 158.929   3
   9   2 -14-38.8112 87.9927  14
   9  -2  14-49.8517 163.798   6
  -2   9 -14 39.2327 121.275   3
  -2   9 -14-72.8633 279.920  13
   2   9 -14-121.075 203.950  13
   2  -9  14-75.1389 165.867   6
  -2  -9  14 11.4539 57.1904   6
  -2   9 -14-77.4358 228.038  12
   9   2 -14-25.8436 137.553  11
  -9  -2  14 172.166 259.872   5
  -9   2 -14-65.9544 200.271  19
  -2   9 -14 117.887 256.385  18
   2   9 -14 57.7616 198.751  18
   9   2 -14-126.902 288.130   9
   9   2 -14 41.2207 196.311  18
   2  -9  14-28.8482 213.454  17
  -2  -9  14-11.0463 178.773  17
   9   2 -14-133.256 180.409   1
   9  -2  14-154.393 194.853   8
  -9  -2  14-2.17943 217.452   2
  -9  -2  14-88.4268 369.299  17
  -9  -2  14 177.813 208.105   4
   9  -2  14-22.9247 161.282  16
  -9  -2  14-36.1676 89.9228  16
   9  -2  14-157.597 239.536  14
   9   3   0 6070.16 1208.64   1
   9  -3   0 3238.82 693.148   1
  -9   3   0 4237.98 900.731   5
  -9   3   0 2843.09 464.962   2
  -9   3   0 4652.66 862.122  19
  -9  -3   0 315.365 336.584  19
   9   3   0 5768.08 974.824  18
   9   3   0 5771.34 1189.63   8
  -9   3   0 3660.67 824.848   4
   9  -3   0 3043.10 806.457   8
  -9  -3   0-43.3780 157.264  17
   9   3   0 2035.34 704.890  14
   9  -3   0 3793.76 656.401   6
   9  -3   0 3693.84 740.019  14
  -9   3  -1 26.6096 42.5256   2
   9  -3   1 27.8789 61.8593  14
   9  -3  -1-6.16682 48.9790  14
  -9   3   1-135.333 205.569   2
   9  -3  -1 26.6438 78.1062   1
   9  -3   1 95.7158 129.471   6
   9  -3  -1 29.1556 21.4525   6
  -9   3  -1 5.25344 106.248  12
  -9  -3  -1 85.6168 175.788  19
  -9  -3   1 119.968 165.334  19
  -9   3  -1-0.65688 130.652   5
  -9   3  -1 29.6182 78.2205  19
   9   3   1-119.774 226.526   1
  -9   3   1-55.7889 134.078   5
  -9   3   1-56.5257 145.086  19
   9   3   1-20.1110 123.686  18
   9   3  -1 60.4803 55.7955  18
   9  -3   1 7.68646 81.9041   1
   9   3  -1-9.10188 66.7489   1
   9   3   1 52.2523 113.617   8
  -9  -3  -1-33.8236 172.062  17
  -9  -3   1-124.717 196.963  17
   9   3  -1 82.8606 109.655   8
   9  -3   1-56.3168 174.199   8
   9  -3  -1-31.9463 48.5664   8
  -9   3  -1-44.8726 41.6096   4
  -9   3   1 0.82018 60.5989   4
   9   3  -1-19.5616 124.834  14
  -9   3   2 989.327 267.672   2
   9   3   2 2710.37 826.354   1
   9   3  -2 3337.18 892.497   1
  -9   3  -2 1285.25 399.229  12
   9  -3   2 2341.67 570.045   1
  -9   3  -2 2322.07 653.179   5
  -9   3   2 2190.44 640.320   5
   9  -3  -2 1421.40 463.661   1
  -9   3  -2 1880.31 319.945   2
  -9   3  -2 2180.39 600.441  19
  -9   3   2 2332.34 591.777  19
  -9  -3  -2-245.947 301.835  19
  -9  -3   2 200.009 211.305  19
   9   3   2 2869.08 708.901  18
   9   3  -2 2959.97 713.564  18
   9   3   2 2717.05 872.646   8
  -9   3  -2 2576.36 684.492   4
   9   3  -2 3567.32 840.061   8
  -9   3   2 1658.54 543.772   4
   9  -3   2 2101.76 652.719   8
  -9  -3  -2 300.835 285.717  17
  -9  -3   2 287.251 280.886  17
   9  -3  -2 625.308 290.686   8
   9   3  -2 1153.74 553.594  14
   9  -3   2 2738.22 582.248   6
   9  -3   2 1997.42 567.113  14
   9  -3  -2 1541.64 485.296  14
   9  -3  -2 1078.16 334.624   6
   9  -3   3 169.986 182.103  14
   9  -3  -3 41.9261 108.279  14
   9  -3   3 139.504 105.621   1
   9  -3   3 81.8417 88.8179   6
  -9   3  -3 81.7042 79.4041  12
   9   3   3 48.5294 229.329   1
  -9  -3  -3 5.89646 72.8282  19
  -9   3  -3 28.1707 86.3396   5
  -9  -3   3 276.999 290.617  19
  -9   3  -3 84.2064 67.8639  19
  -9   3   3 51.5470 49.9066  19
  -9   3   3 218.306 225.186   5
   9   3   3 132.098 96.8769  18
   9   3  -3-68.9640 97.7607  18
   9   3   3-40.1190 206.859   8
  -9  -3   3-121.100 201.605  17
   9   3  -3 499.281 320.444   8
   9   3  -3 181.425 224.289   1
   9  -3   3 78.9265 146.659   8
  -9   3  -3 123.358 141.016   4
   9  -3  -3 120.263 177.960   1
  -9   3  -3 83.0326 45.4842   2
  -9   3   3-57.2399 192.222   4
   9   3  -3-9.26312 125.081  14
  -9   3  -4 55.8903 42.3343   3
   9  -3   4 515.600 272.904  14
   9  -3  -4 301.181 230.221  14
   9   3  -4 360.809 184.569  13
   9  -3   4 629.036 293.813   6
   9  -3  -4 79.3484 136.039   1
  -9  -3   4-14.1008 37.5016  12
  -9   3  -4 354.200 209.577  12
   9   3  -4 250.352 143.287  20
  -9  -3  -4 72.9753 333.231  19
  -9   3  -4 518.653 324.669   5
  -9  -3   4 92.2906 157.561  19
  -9   3  -4 285.089 211.484  19
  -9   3   4 350.881 116.189  19
  -9   3   4 447.161 265.764   5
   9   3  -4 562.275 350.143  18
   9   3   4 448.296 403.446   8
  -9  -3   4 201.196 320.537  17
   9   3  -4 616.963 292.720   8
  -9   3  -4 369.695 118.685   2
   9  -3   4 805.467 443.168   8
  -9   3  -4 447.885 320.928   4
   9   3  -4 584.050 338.910   1
   9  -3   4 719.430 287.569   1
  -9   3   4 42.3985 129.877   4
   9   3  -4 187.505 235.857  14
   9  -3   5-31.1164 143.658  14
  -9   3  -5-30.9488 88.3351   3
   9  -3  -5 30.7486 32.9385  14
   9   3  -5 90.7655 87.5106  13
   9  -3   5 22.8989 80.0354   6
  -9   3  -5 92.2157 97.9022  12
  -9  -3   5-5.96783 31.6645  12
   9   3  -5 1018.41 505.852  11
   9   3  -5 30.3661 37.1451  20
  -9   3  -5 143.818 208.986   5
  -9  -3   5 202.437 256.458   2
  -9  -3  -5-205.975 422.379  19
  -9  -3   5-112.340 180.649  19
  -9   3  -5 44.6237 129.659  19
  -9   3   5-9.66646 97.4864   5
   9   3  -5-165.787 198.022  18
   9   3   5-24.1849 214.333   8
   9  -3   5 27.9418 75.7866   1
  -9  -3   5 122.488 258.827  17
   9   3  -5 389.191 262.202   8
  -9   3  -5 144.527 160.038   4
   9  -3   5-26.3803 207.411   8
   9   3  -5 29.2965 112.460   1
   9   3  -5-90.2742 164.851  14
   9  -3   6-3.57275 70.5327  14
  -9   3  -6-26.3460 73.6714   3
   9  -3   6-7.75970 59.4233   6
   9   3  -6-85.5242 109.121  13
  -9   3  -6 83.1141 148.468  12
   9   3  -6 526.008 387.952  11
  -9  -3   6-137.397 284.122   5
  -9   3  -6 244.614 233.137   5
   9   3  -6-146.022 197.624  20
  -9  -3  -6-219.345 528.334  19
   9   3  -6 263.123 215.774  10
   9  -3   6 0.99696 60.9679   1
  -9  -3   6 95.2027 177.150   2
  -9  -3   6 206.524 190.432  19
  -9   3  -6 93.2938 106.152  19
   9   3  -6 36.7518 93.9195  18
  -9  -3   6-259.501 346.548   4
   9   3   6-63.3905 144.973   8
  -9  -3   6-0.64611 56.6005  17
   9   3  -6 20.1990 89.0171   8
  -9   3  -6 112.710 134.901   4
   9  -3   6 240.471 292.712   8
   9   3  -6 194.902 294.480   1
   9   3  -6-9.19517 16.3942  14
   9  -3   7-38.7526 110.203  14
   9  -3   7 15.6099 75.0897   6
  -9   3  -7-18.6397 19.9298   3
  -9   3  -7-44.7924 76.2324  12
   9  -3   7 29.2621 81.8894   1
   9   3  -7 225.362 251.362  11
  -9  -3   7-163.445 195.053   5
  -9   3  -7 313.586 286.609  20
  -9   3  -7 202.814 258.672   5
  -9   3  -7 304.075 252.164  10
   9   3  -7 23.9014 132.156  10
  -9   3  -7-7.54396 18.4713  19
  -9  -3   7 92.1030 108.766   2
  -9   3  -7 292.287 178.153   9
   9   3  -7 4.77720 47.5614  18
  -9  -3   7-147.173 243.415   4
   9   3   7 29.2625 104.803   8
  -9  -3   7 345.550 300.750  17
  -9   3  -7 7.39232 161.441   4
   9   3  -7 124.033 148.081   8
   9  -3   7 33.6097 145.967   8
   9   3  -7 191.522 316.095  14
   9  -3   8 52.4820 41.6345  14
   9   3  -8 278.350 293.442   1
   9  -3   8 90.2327 122.711   1
   9  -3   8 101.494 183.071   6
   9   3  -8 231.500 186.694  13
  -9   3  -8 59.6667 194.919   3
  -9   3  -8-54.3850 76.2635  12
   9   3  -8 556.400 420.669   9
   9   3  -8 160.778 157.822  11
  -9  -3   8 79.2552 74.4536   5
  -9   3  -8-49.5232 195.976   5
  -9   3  -8 271.658 241.763  20
  -9   3  -8 250.544 171.637  10
   9   3  -8 26.1255 51.1110  10
  -9  -3   8-163.882 166.728  19
  -9   3  -8 153.348 183.181  19
  -9   3  -8 266.090 144.028   9
  -9  -3   8 144.879 145.626   2
   9   3  -8 55.5353 128.792  18
   9   3   8 191.972 62.3141   8
  -9  -3   8-74.9491 244.528   4
  -9  -3   8 62.1767 134.479  17
  -9   3  -8 7.68271 80.4312   4
   9  -3   8 232.399 238.042   8
   9   3  -8 103.394 153.899   8
   9  -3   8-256.184 401.286  16
   9   3  -8 128.126 220.304  14
   9  -3   9-1.57020 30.4532  14
   9  -3   9-35.6671 119.240   6
   9   3  -9 34.2300 87.7228   1
   9   3  -9 92.7172 129.319  13
  -9   3  -9 5.85446 33.8301   3
  -9   3  -9-5.59100 36.0004  12
   9   3  -9-68.2223 211.928  11
  -9   3  -9-77.0350 109.099   5
  -9  -3   9 79.5319 209.235   5
  -9   3  -9 52.6374 152.852  20
  -9   3  -9 86.0264 135.032  10
   9   3  -9-87.5500 144.546  10
  -9   3  -9-113.050 180.902  19
  -9  -3   9 71.5167 146.680  19
   9   3  -9 133.886 143.573   9
  -9   3  -9-94.6773 129.981   9
  -9  -3   9 15.5143 99.2596   2
   9   3  -9 20.4721 64.3191  18
  -9  -3   9-119.188 258.495   4
  -9   3  -9-148.730 210.227   4
  -9  -3   9 40.0787 201.579  17
   9  -3   9 49.7327 188.030   8
   9   3  -9 31.6641 109.727   8
   9  -3   9-65.3229 283.348  16
   9  -3   9 103.867 137.892   1
  -9   3  -9 309.528 498.493  15
   9   3  -9 44.5236 127.317  14
   9  -3  10 1116.21 414.299  14
   9  -3  10 789.699 384.273   6
  -9   3 -10-102.077 150.451  13
   9   3 -10 714.536 446.894   1
   9   3 -10 680.739 314.940  13
  -9   3 -10 235.854 166.605   3
  -9   3 -10 423.765 321.239  12
  -9   3 -10 374.695 292.587   5
   9   3 -10 1157.50 592.761  11
  -9  -3  10 414.276 310.816   5
  -9   3 -10 383.271 287.732  20
  -9   3 -10 360.811 163.900  10
   9   3 -10 314.213 218.642  10
  -9   3 -10 502.931 313.795  19
  -9  -3  10 550.254 269.288  19
   9   3 -10 754.669 400.176   9
  -9   3 -10 153.067 22.1395   9
  -9  -3  10 598.170 345.375   2
   9   3 -10 665.709 416.453  18
  -9  -3  10 414.905 268.773   4
  -9   3 -10 185.683 166.729   4
  -9  -3  10 469.589 352.829  17
   9  -3  10 1018.32 483.010   8
   9  -3  10 534.738 259.827   1
  -9  -3  10 188.358 46.0779  16
   9  -3  10 559.449 311.347  16
   9   3 -10 423.260 240.566   8
  -9   3 -10 1475.12 790.120   7
  -9   3 -10 1188.51 686.060  15
   9   3 -10 111.816 127.712  14
   9  -3  11-140.898 206.748  14
   9  -3  11 40.5470 116.954   6
   9   3 -11 31.1040 17.9711   3
   3   9 -11-295.914 459.861  13
  -9   3 -11 12.9607 88.3557  13
   9   3 -11 339.514 298.160  13
  -9   3 -11 44.7452 117.324  12
   9   3 -11 58.9466 99.2022   1
  -9   3 -11 73.4976 202.133   3
   9   3 -11 144.108 300.186  11
  -9  -3  11 134.981 241.854   5
  -9   3 -11 188.551 180.536  20
  -9   3 -11-113.838 183.481  10
   9   3 -11-36.2673 164.992  10
  -9   3 -11-100.052 146.471  19
  -9  -3  11-62.6388 5.83766  19
   9   3 -11-143.228 152.326   9
  -9   3 -11-74.1055 146.583   9
  -9  -3  11 101.781 242.989   2
   9  -3  11 49.5873 61.0433   1
   9   3 -11-3.64939 105.446  18
  -9   3 -11 117.865 139.469   4
  -9  -3  11-103.771 168.946   4
  -9  -3  11-131.799 257.732  17
   9  -3  11 158.839 330.458   8
  -9  -3  11 49.4194 64.7542  16
   9  -3  11 124.467 182.615  16
  -9   3 -11 384.928 364.229   7
  -9   3 -11 138.850 320.225  15
   9   3 -11 118.329 166.337  14
   3   9 -12 2315.60 811.793  13
  -9   3 -12 571.867 449.080  13
  -9   3 -12 355.617 532.426  12
   3  -9  12 257.374 277.174   6
  -3  -9  12 24.3329 173.917   6
  -9   3 -12 755.644 533.076   3
   9   3 -12 1558.30 585.272   1
   9   3 -12 1990.61 714.226  11
  -9  -3  12 1464.03 600.366   5
  -9   3 -12 1079.75 472.471  20
   9  -3  12 728.700 476.198   1
  -9   3 -12 1074.55 565.982  19
   9   3 -12 269.375 239.808  10
  -9  -3  12 1145.22 357.266  19
   9   3 -12 1042.22 466.661   9
   3   9 -12 911.673 774.446  18
  -9   3 -12 46.2439 153.125   9
   9  -3  12 3616.27 1035.14   8
   9   3 -12 1830.86 680.864  18
  -9  -3  12 2040.50 672.265   2
  -9   3 -12 230.528 330.544   4
  -3  -9  12-98.8011 125.969  17
  -9  -3  12 1314.55 472.186   4
  -9   3 -12 420.158 287.837  10
  -9  -3  12 1408.85 630.494  17
  -9  -3  12 1753.25 438.112  16
   9  -3  12 2275.79 761.616  16
  -9   3 -12 1238.98 671.621   7
  -3   9 -12 2481.69 771.949   3
  -9   3 -12 1088.31 603.703  15
   9  -3  12 2925.28 810.801   6
   9  -3  12 3652.12 864.301  14
   9   3 -12 1993.45 353.664   3
   9   3 -12 471.096 339.403  14
   9  -3  13 792.274 646.212  14
  -3   9 -13-72.8421 92.1769   3
   9  -3  13 758.846 536.105   6
   3   9 -13-154.430 292.475  13
  -9   3 -13 918.722 456.656  13
   9   3 -13-51.0854 80.2761   3
   3  -9  13 85.6434 170.925   6
  -3  -9  13-14.3207 129.074   6
  -9   3 -13 1539.70 730.372  12
  -9   3 -13 653.069 489.154   3
  -3   9 -13-157.391 271.997  12
   9   3 -13-2.42944 39.1501   1
   9   3 -13 270.663 343.718  11
  -9  -3  13 155.322 285.603   5
  -9   3 -13 486.660 479.127  20
  -9   3 -13 1184.50 551.695  19
  -9   3 -13 407.759 389.306  10
   9   3 -13 97.5852 239.084  10
  -9  -3  13-90.2496 181.039  19
  -3   9 -13-231.976 409.073  18
   9   3 -13-225.444 342.440   9
   3   9 -13 29.2318 193.522  18
  -9   3 -13-53.7008 256.860   9
   9   3 -13 63.2261 200.422  18
  -9  -3  13 47.9755 121.312   2
  -3  -9  13 340.097 513.564  17
  -9  -3  13 117.516 233.922   4
  -9  -3  13-143.441 277.791  17
   9  -3  13 1849.95 981.803   8
  -9  -3  13 3.00661 76.7778  16
   9  -3  13 402.580 388.020  16
  -9   3 -13 397.498 265.498   7
  -9   3 -13 408.470 465.280  15
   9   3 -13-83.6053 153.826  14
   3   9 -14 2849.80 877.243  13
  -3   9 -14 768.585 444.611  13
  -9   3 -14 101.141 186.202  13
  -3  -9  14 117.380 131.051   6
   3  -9  14 277.011 310.884   6
  -3   9 -14 2315.04 613.555  12
  -9   3 -14 803.580 529.746  12
  -9   3 -14 594.867 430.304   3
   9   3 -14 1487.04 583.541   1
   9   3 -14 1558.42 677.201  11
  -9  -3  14 1633.65 682.534   5
  -9   3 -14 361.436 294.039  20
  -9   3 -14 638.765 367.110  19
  -9   3 -14 167.084 127.487  10
   9   3 -14-244.039 434.747  10
  -9  -3  14 484.998 134.291  19
  -3   9 -14 2334.12 638.070  18
   9   3 -14 752.867 396.158   9
   3   9 -14 1264.16 846.948  18
  -3   9 -14 1823.33 454.702   4
   9   3 -14 1554.95 656.897  18
  -9  -3  14 2326.77 782.564   2
   3  -9  14 14.8616 208.683  17
  -3  -9  14-236.617 231.745  17
  -9  -3  14 1384.73 494.994   4
   9  -3  14 3382.28 946.060   8
  -9  -3  14 1776.12 736.183  17
   9  -3  14 2474.33 774.508  16
  -9  -3  14 2266.00 558.044  16
  -9   3 -14 177.389 480.346   7
  -9   3 -14 792.548 354.752  15
   9  -3  14 3112.77 857.451   6
  -3   9 -14 2838.28 864.394   3
   9  -3  14 3386.22 866.557  14
   9   3 -14 238.875 201.954  14
   9  -4   0 126.866 142.049   1
   9  -4   0 190.520 178.728  14
   9  -4   0 94.9097 136.912   6
   9   4   0 520.900 291.632   1
  -9  -4   0 289.389 321.453  19
  -9   4   0 314.748 218.370  19
  -9   4   0 275.774 205.510   5
   9   4   0 431.634 323.804  18
   9   4   0 366.418 276.058   8
  -9  -4   0 11.7161 92.9098  17
   9  -4   0-103.168 371.038   8
  -9   4   0 216.231 59.7615   4
   9   4  -1 4037.76 1047.20   1
  -9   4  -1 3565.56 802.692   5
  -9   4   1 3096.52 787.095   5
   9  -4   1 2026.77 544.842   1
   9  -4  -1 1278.13 459.625   1
  -9   4  -1 3529.23 746.779  19
  -9   4   1 3817.89 766.952  19
  -9  -4  -1-495.530 356.830  19
  -9  -4   1-14.5184 186.043  19
   9   4   1 4073.36 914.874  18
   9   4  -1 4847.92 986.422  18
   9   4   1 3672.61 1000.75   8
   9   4  -1 4498.53 1051.85   8
  -9   4  -1 3220.97 774.643   4
  -9   4   1 3082.79 727.847   4
   9  -4   1 1709.47 603.069   8
  -9  -4   1 306.139 359.365  17
   9  -4  -1 510.198 139.622   8
   9  -4   1 2345.00 556.333   6
   9  -4   1 2601.65 613.322  14
   9  -4  -1 1917.89 526.222  14
   9  -4   2 180.882 130.973  14
   9  -4   2 24.5926 68.1926   1
   9  -4   2 200.894 179.484   6
  -9   4  -2-370.625 222.128  12
  -9  -4   2 83.0744 146.118  19
  -9   4  -2 127.783 177.195   5
  -9   4  -2 180.688 172.385  19
   9   4  -2 62.5555 28.5856   1
   9   4   2-48.8281 412.338  18
   9   4  -2 185.500 183.762  18
   9   4   2 186.170 111.773   8
   9   4  -2 249.462 192.431   8
  -9  -4   2-108.128 151.613  17
   9  -4   2 50.9925 149.127   8
  -9   4  -2 2.88917 23.3839   4
   9  -4   3 1102.98 419.902  14
   9   4  -3 2387.95 711.346   1
   9  -4   3 1226.56 432.328   6
  -9   4  -3 967.284 335.486  12
  -9   4  -3 1355.62 460.025  19
  -9  -4   3-94.4116 162.549  19
  -9   4  -3 1317.85 496.163   5
   9   4  -3 1632.45 589.756  18
  -9   4  -3 1498.25 536.173   4
   9   4   3 878.115 394.613   8
   9   4  -3 2170.66 655.917   8
  -9  -4   3 17.2693 89.0439  17
   9  -4   3 1332.31 388.991   1
   9  -4   3 1181.50 523.234   8
   9  -4   4 698.310 327.411  14
   9  -4   4 778.737 328.179   6
  -9   4  -4 646.958 306.861  12
  -9  -4   4-7.61801 48.0279  19
   9  -4   4 720.910 283.373   1
  -9   4  -4 797.122 357.768   5
  -9   4  -4 750.588 346.667  19
   9   4  -4 760.625 349.287  18
   9   4   4 22.3612 449.116   8
   9   4  -4 773.684 489.373   1
  -9  -4   4 117.345 218.501  17
   9   4  -4 1088.15 434.365   8
   9  -4   4 596.075 299.941   8
  -9   4  -4 722.594 375.637   4
  -9   4  -5 104.850 157.128   3
   9  -4   5 267.924 182.807  14
  -9   4  -5-23.7997 65.0472   2
   9   4  -5 95.8158 110.351  13
   9  -4   5 205.982 160.215   6
   9  -4   5 102.242 135.666   1
  -9  -4   5 107.464 68.1903  12
  -9   4  -5 40.0353 104.665  12
  -9  -4   5 173.653 178.088  19
  -9   4  -5 117.790 162.801   5
  -9   4  -5 6.39668 25.8352  19
   9   4  -5 356.966 323.024  18
  -9  -4   5 349.045 413.833  17
   9   4  -5 220.641 230.998   1
   9   4  -5 186.590 231.513   8
   9  -4   5-33.5867 139.485   8
  -9   4  -5 174.005 164.080   4
   9  -4   6 98.4464 165.760  14
  -9   4  -6 69.7271 132.817   3
   9   4  -6 231.375 179.423  13
   9  -4   6 265.812 185.409   6
  -9   4  -6 229.218 209.754  12
  -9   4  -6 210.111 223.711   5
  -9  -4   6-25.6017 112.464  19
  -9   4  -6 54.0897 43.7882  19
   9   4  -6 105.585 197.936  18
  -9  -4   6 204.446 326.934  17
   9   4  -6 19.1564 69.5573   8
   9   4  -6 83.0313 169.298   1
  -9   4  -6 216.022 221.486   4
   9  -4   6-68.9915 198.215   8
   9  -4   6 261.584 178.532   1
   9  -4   7 2.90296 59.9453  14
  -9   4  -7-75.5298 206.599   3
   9   4  -7 117.490 172.497  13
   9  -4   7-109.384 108.440   6
  -9   4  -7 39.8426 90.6702  12
   9   4  -7 222.659 241.645  20
  -9   4  -7 74.7827 161.262   5
  -9  -4   7 2.74678 91.7078  19
  -9   4  -7-121.662 166.560  19
   9   4  -7 182.073 233.566  18
   9  -4   7-123.088 126.038   1
  -9  -4   7-338.739 401.305  17
   9   4  -7 28.6584 84.8281   8
  -9   4  -7-5.56639 142.068   4
   9   4  -7 66.4276 127.227   1
   9  -4   7 318.568 318.992   8
   9  -4   8 181.515 233.564  14
  -9   4  -8 57.9749 90.4636   3
   9  -4   8 88.5489 67.5296   6
   9   4  -8 502.622 301.406  13
  -9   4  -8 188.119 205.703  12
   9   4  -8 587.138 498.886  11
   9   4  -8 240.347 248.013  20
  -9   4  -8-7.07165 78.6631   5
   9  -4   8 344.760 226.853   1
  -9  -4   8 186.759 184.616   2
  -9  -4   8 205.098 211.710  19
  -9   4  -8 152.510 178.621  19
   9   4  -8 241.631 292.082  18
  -9  -4   8 143.670 309.140  17
   9   4  -8 317.398 204.027   8
  -9   4  -8 290.495 277.191   4
   9  -4   8 371.780 346.857   8
   9   4  -8 357.074 272.456   1
   9  -4   9 463.562 291.262  14
   9  -4   9 922.519 385.505   6
  -9   4  -9 149.118 140.815   3
   9   4  -9 504.044 228.994  13
   9  -4   9 546.895 236.780   1
  -9   4  -9 358.324 258.250  12
   9   4  -9 1026.15 632.802  11
  -9   4  -9 438.782 333.101   5
   9   4  -9 335.785 249.539  20
   9   4  -9 808.901 410.723  10
  -9  -4   9 475.737 358.548   2
  -9  -4   9 211.579 180.282  19
  -9   4  -9 218.019 222.270  19
   9   4  -9 317.195 290.606  18
  -9  -4   9 77.2771 121.339  17
  -9   4  -9 400.591 245.563   4
   9   4  -9 337.841 247.793   8
   9  -4   9 533.132 328.372   8
   9   4  -9 343.006 252.112   1
   9  -4  10 164.854 122.142   1
   9  -4  10 139.946 158.754  14
   9  -4  10 136.232 99.6415   6
   9   4 -10 134.217 139.422  13
  -9   4 -10 71.3920 173.065   3
  -9   4 -10-104.046 249.600  12
   9   4 -10 53.8307 374.018  11
  -9   4 -10 68.3154 158.297   5
  -9   4 -10 201.057 226.937  20
   9   4 -10 217.374 231.491  20
  -9   4 -10 495.612 362.626  10
   9   4 -10-101.353 183.192  10
  -9  -4  10 37.8287 69.7510  19
  -9   4 -10-119.763 195.436  19
  -9  -4  10 74.0062 163.038   2
   9   4 -10 82.0058 199.030  18
  -9  -4  10 71.8760 239.732  17
  -9   4 -10 151.454 107.991   4
   9  -4  10 169.568 199.828   8
   9   4 -10 94.2404 77.3288   8
   9  -4  10-395.404 528.688  16
   9   4 -10 130.366 217.704   1
   9   4 -10-240.233 336.803  14
   9  -4  11 1695.91 541.758   6
   4   9 -11 1480.03 595.613  13
   9   4 -11 1925.03 557.966  13
  -9   4 -11 490.541 346.465   3
  -9   4 -11 557.553 278.276  12
  -9  -4  11 781.855 392.519   5
  -9   4 -11 813.245 428.791   5
   9   4 -11 1845.26 734.119  11
  -9   4 -11 1196.54 459.563  20
   9   4 -11 316.956 240.178  20
  -9   4 -11 1248.02 339.005  10
   9   4 -11 1429.60 576.699  10
  -9   4 -11 666.637 364.604  19
  -9  -4  11 738.228 238.433  19
   9   4 -11 2801.67 951.803   9
  -9   4 -11 1277.80 353.387   9
  -9  -4  11 1189.71 541.479   2
   4   9 -11 788.798 697.794  18
   9   4 -11 1399.22 619.575  18
  -9   4 -11 933.419 489.110   4
  -9  -4  11 1060.85 569.968  17
   9  -4  11 1924.63 588.181   8
   9  -4  11 716.740 133.385  16
   9   4 -11 989.506 319.598   8
   9  -4  11 1247.72 384.563   1
   9  -4  11 1718.84 589.456  14
   9   4 -11 32.1987 124.359  14
   9   4 -11 1595.92 634.369   1
   9   4 -12 100.470 144.155   1
  -4   9 -12 59.8225 105.450   3
   9  -4  12 469.642 307.183  14
   9  -4  12 291.521 157.770   6
   4   9 -12 47.5182 127.225  13
  -9   4 -12 1013.94 487.371  13
   9   4 -12 108.675 147.631  13
  -9   4 -12 503.813 358.141   3
   4  -9  12 116.902 208.195   6
  -9   4 -12 1068.59 547.789  12
  -4  -9  12 45.1958 150.842   6
  -9  -4  12 44.9314 111.212   5
   9   4 -12 77.5299 165.553  11
  -9   4 -12-288.797 328.081  20
   9   4 -12-329.224 536.980  20
  -9   4 -12 110.030 133.554  10
   9   4 -12 313.371 123.916  10
  -9   4 -12 421.356 285.864  19
  -9  -4  12 239.241 208.094  19
   9   4 -12 603.695 335.075   9
  -9   4 -12 419.914 176.396   9
  -9  -4  12 127.139 314.311   2
   4   9 -12-69.1546 188.947  18
   9   4 -12 246.862 278.235  18
   9  -4  12 199.226 17.2570   1
  -4  -9  12 535.532 585.592  17
  -9   4 -12 481.857 400.292   4
  -9  -4  12 150.040 338.273  17
   9  -4  12 370.622 340.717   8
  -9  -4  12-172.523 199.792  16
   9  -4  12 669.499 354.528  16
  -9   4 -12 585.944 671.487   7
  -9   4 -12 272.558 410.524  15
   9   4 -12 36.8556 185.695  14
   9   4 -13 2106.30 738.516   1
   4   9 -13 2757.56 874.094  13
   9   4 -13 2560.78 675.372  13
  -9   4 -13 193.799 202.962  13
   4  -9  13 275.637 231.369   6
  -4   9 -13 1860.83 561.337  12
  -4  -9  13 66.3100 162.205   6
  -9   4 -13 980.385 494.436   3
  -9   4 -13 968.717 448.055  12
  -9  -4  13 1473.75 646.318   5
   9   4 -13 2762.29 931.243  11
  -9   4 -13 1898.85 670.656  20
   9   4 -13-387.622 665.115  20
  -9   4 -13 1193.51 428.680  10
   9   4 -13 1267.18 474.036  10
   9  -4  13 490.891 232.112   1
  -9   4 -13 1097.09 388.631  19
  -9  -4  13 993.681 346.978  19
   9   4 -13 1549.91 569.147   9
  -9   4 -13 835.198 247.454   9
  -9  -4  13 2308.71 738.591   2
   4   9 -13 1027.09 808.199  18
   9   4 -13 2123.93 755.661  18
  -4   9 -13 1663.40 437.442   4
  -9   4 -13 976.390 520.537   4
  -4  -9  13-289.000 332.186  17
  -9  -4  13 1031.65 600.127  17
   9  -4  13 3267.87 858.280   8
  -9  -4  13 1259.92 364.559  16
   9  -4  13 1882.76 690.792  16
  -9   4 -13 2099.79 977.473   7
  -4   9 -13 1938.80 714.120   3
   9  -4  13 2550.64 733.705   6
  -9   4 -13 1913.76 839.716  15
   9  -4  13 2867.78 747.367  14
   9   4 -13-134.414 275.526  14
   9   5   0 1560.38 500.500  18
   9   5   0 1181.48 451.837   8
  -9   5  -1 224.883 38.6883  19
   9   5  -1 551.226 296.030  18
   9   5   1-143.889 652.623   8
   9   5  -1 439.135 246.587   8
   9  -5   2 619.412 338.874  14
   9  -5   2 485.823 275.185   6
   9   5  -2 900.170 459.782   1
  -9  -5   2-206.611 227.638  19
   9  -5   2 506.954 243.674   1
  -9   5  -2 1179.68 381.993  19
  -9   5  -2 1021.22 436.259   5
   9   5  -2 1418.19 599.093  18
   9   5  -2 1436.04 605.344   8
  -9  -5   2 724.868 553.832  17
   9  -5   2-419.581 309.695   8
  -9   5  -2 729.114 346.667   4
   9  -5   3 597.911 328.260  14
   9  -5   3 415.100 209.651   6
   9   5  -3 1216.05 567.790   1
  -9  -5   3 127.634 202.701  19
  -9   5  -3 976.416 394.069  19
  -9   5  -3 789.505 373.347   5
   9   5  -3 1190.11 555.762  18
   9   5  -3 1365.66 560.602   8
  -9  -5   3 191.527 258.361  17
   9  -5   3 268.473 101.091   8
  -9   5  -3 786.245 374.351   4
   9  -5   3 557.355 276.823   1
   9  -5   4 72.3597 105.253  14
   9  -5   4 106.639 133.897   6
  -9   5  -4 66.7122 35.0843  12
  -9  -5   4 13.7434 123.492  19
   9  -5   4 7.14068 56.0296   1
   9   5  -4 10.2442 85.4426   1
  -9   5  -4 235.712 210.244   5
  -9   5  -4 276.232 195.291  19
   9   5  -4 232.866 200.884  18
   9   5  -4 291.853 204.092   8
  -9  -5   4-28.9740 237.164  17
   9  -5   4 125.208 151.175   8
  -9   5  -4 245.068 262.265   4
   9  -5   5 472.245 301.003  14
   9  -5   5 472.527 310.328   6
  -9   5  -5 525.077 307.557  12
  -9  -5   5 192.095 236.063  19
  -9   5  -5 790.108 374.498   5
   9   5  -5 993.377 455.753   1
  -9   5  -5 764.268 352.769  19
   9   5  -5 1043.90 551.938  18
   9   5  -5 1193.53 492.769   8
  -9  -5   5 94.0825 199.056  17
   9  -5   5 661.417 386.309   8
  -9   5  -5 719.027 389.175   4
   9  -5   5 581.391 244.543   1
  -9   5  -6 63.4128 37.5985   3
   9  -5   6 118.431 198.786  14
   9   5  -6-125.579 246.546  13
   9  -5   6 82.8979 47.8518   6
  -9   5  -6 144.915 146.706  12
  -9  -5   6-139.125 274.129  19
  -9   5  -6 43.6482 36.0073   5
  -9   5  -6 23.7999 70.2859  19
   9  -5   6 75.9992 136.862   1
   9   5  -6-13.6905 92.7305   1
   9   5  -6 45.5041 118.754  18
  -9  -5   6-97.5211 199.607  17
   9   5  -6 187.938 223.507   8
   9  -5   6 167.942 225.081   8
  -9   5  -6 120.815 191.627   4
  -9   5  -7 119.062 47.0430   3
   9  -5   7 292.597 266.187  14
   9   5  -7 783.124 365.313  13
   9  -5   7 637.474 330.401   6
   9  -5   7 497.175 239.525   1
  -9   5  -7 483.411 314.701  12
  -9  -5   7 138.018 155.431  19
  -9   5  -7 483.534 265.665   5
  -9   5  -7 717.872 334.535  19
   9   5  -7 956.567 513.522  18
   9   5  -7 347.979 348.917   1
  -9  -5   7 248.881 272.878  17
   9   5  -7 1024.99 425.738   8
  -9   5  -7 475.408 332.959   4
   9  -5   7 599.022 369.067   8
   9  -5   8 124.752 168.059  14
  -9   5  -8 110.428 172.024   3
   9   5  -8 4.02680 91.0259  13
   9  -5   8 32.6868 127.708   6
  -9   5  -8-151.729 157.306  12
  -9   5  -8 118.691 236.192   5
  -9  -5   8 149.141 213.464  19
  -9   5  -8-67.4344 138.964  19
   9   5  -8-95.5846 175.769  18
   9   5  -8-82.6986 182.439   1
  -9  -5   8 73.6841 223.419  17
   9   5  -8 35.3207 152.132   8
  -9   5  -8 58.3558 141.755   4
   9  -5   8-129.390 223.678   8
   9  -5   8 106.647 94.1168   1
   9  -5   9 575.296 311.240  14
  -9   5  -9 268.825 207.766   3
   9   5  -9 528.456 265.464  13
   9  -5   9 434.475 284.979   6
  -9   5  -9 304.080 241.761  12
   9   5  -9 703.172 453.155  20
  -9   5  -9 483.843 343.104   5
  -9  -5   9 143.172 175.435  19
  -9   5  -9 567.758 259.199  19
   9   5  -9 618.436 371.493  18
   9  -5   9 440.722 186.474   1
   9   5  -9 408.939 324.859   1
  -9  -5   9-51.5910 150.250  17
   9   5  -9 785.255 377.313   8
  -9   5  -9 440.975 339.492   4
   9  -5   9 584.174 355.385   8
   9  -5  10 509.026 288.711  14
  -9   5 -10 40.5476 75.2153   3
   9  -5  10 224.205 205.552   6
   9   5 -10 703.603 433.945  13
  -9   5 -10 226.471 255.874  12
   9   5 -10 795.429 750.167  11
   9  -5  10 265.011 167.640   1
   9   5 -10 265.146 276.576  20
  -9   5 -10 189.058 240.576   5
  -9  -5  10 0.38678 79.7762  19
  -9   5 -10 116.374 41.8225  19
   9   5 -10 500.840 430.268  18
  -9  -5  10-199.309 368.372  17
   9   5 -10 247.481 388.092   1
  -9   5 -10 291.317 253.452   4
   9   5 -10 290.514 156.018   8
   9  -5  10 288.261 260.982   8
   9  -5  11 861.520 343.348  14
   9   5 -11 1851.77 684.796  13
   9  -5  11 651.483 282.612   1
   5   9 -11 459.274 179.249  13
   9  -5  11 734.074 380.641   6
  -9   5 -11 264.065 240.746   3
  -9   5 -11 544.246 401.773  12
   9   5 -11 1721.22 892.114  11
  -9   5 -11 626.886 326.949   5
   9   5 -11 1193.40 660.160  20
   9   5 -11 2845.00 926.466  10
  -9  -5  11 572.671 487.589   2
  -9  -5  11 282.973 222.514  19
  -9   5 -11 379.638 180.273  19
   5   9 -11 851.927 621.989  18
   9   5 -11 1146.21 696.011  18
  -5  -9  11 815.596 672.875  17
  -9  -5  11 409.341 369.615  17
  -9   5 -11 543.265 402.023   4
   9   5 -11 920.727 624.687   1
   9  -5  11 871.582 513.498   8
  -5   9 -12 985.352 506.965   3
   9  -5  12 1401.88 501.451  14
   5   9 -12 1344.70 615.959  13
   9  -5  12 1399.95 548.396   6
  -9   5 -12 397.399 303.471   3
   9   5 -12 1538.56 491.156  13
   5  -9  12 286.807 323.556   6
  -5  -9  12 73.1121 107.376   6
  -9   5 -12 881.900 437.194  12
  -5   9 -12 995.646 413.672  12
   9   5 -12 1692.42 839.691  11
  -9   5 -12 814.689 379.678   5
  -9   5 -12 1730.99 662.102  20
   9   5 -12 943.512 490.793  20
   9   5 -12 1283.05 530.973  10
  -9  -5  12 946.451 548.533   2
  -9  -5  12 759.247 289.349  19
  -9   5 -12 782.058 354.884  19
   5   9 -12 1458.37 702.127  18
   9   5 -12 1076.96 536.687  18
  -5  -9  12 70.4694 286.186  17
  -9   5 -12 686.714 412.962   4
  -9  -5  12 548.739 417.500  17
   9  -5  12 1784.82 725.618   8
   9   5 -12 593.628 390.835   1
   9  -5  12 1057.94 375.609   1
   9   6  -2 418.947 54.1575  18
   9   6  -2-365.754 650.747   8
   9   6  -3-21.4960 116.270  18
   9   6  -3-175.871 385.372   8
   9  -6   4 353.604 247.857   6
  -9  -6   4-159.833 299.348  19
   9   6  -4 1439.97 656.775  18
   9   6  -4 957.765 486.759   8
  -9  -6   4 329.433 487.910  17
  -9   6  -4 678.099 337.632   4
   9  -6   5 255.707 189.051  14
   9  -6   5 151.350 114.136   1
   9  -6   5 186.274 214.390   6
  -9   6  -5 0.19598 147.592  12
  -9  -6   5 283.182 282.075  19
  -9   6  -5 125.928 80.2182  19
  -9   6  -5 346.665 264.039   5
   9   6  -5 629.798 450.046  18
   9   6  -5 600.321 383.482   8
  -9  -6   5-160.547 234.113  17
   9  -6   5-202.913 431.752   8
  -9   6  -5 203.231 202.318   4
   9  -6   6 341.825 282.344  14
   9  -6   6 502.292 349.645   6
  -9   6  -6 759.456 358.401  12
   9   6  -6 506.880 416.498   1
  -9  -6   6 17.4061 79.9792  19
  -9   6  -6 815.362 374.790   5
  -9   6  -6 679.145 350.624  19
   9  -6   6 279.962 174.960   1
   9   6  -6 705.527 444.340  18
   9   6  -6 909.840 428.673   8
  -9  -6   6-114.654 190.203  17
   9  -6   6 194.905 71.9357   8
  -9   6  -6 794.361 376.407   4
   9  -6   7 233.669 270.124  14
   9   6  -7 413.799 90.8820  13
   9  -6   7 188.232 193.445   6
  -9   6  -7 660.637 337.426  12
   9   6  -7 382.059 303.284   1
  -9  -6   7 321.721 318.326  19
  -9   6  -7 861.456 392.532   5
  -9   6  -7 462.363 303.663  19
   9   6  -7 949.549 540.451  18
   9   6  -7 1017.70 472.380   8
  -9  -6   7-406.510 522.377  17
   9  -6   7 384.600 303.581   8
  -9   6  -7 528.008 306.089   4
   9  -6   7 560.454 251.790   1
  -9   6  -8 310.598 246.987   3
   9  -6   8 272.920 232.982  14
   9   6  -8 551.055 297.719  13
   9  -6   8 357.250 248.088   6
  -9   6  -8 454.756 319.483  12
  -9  -6   8-138.377 240.723  19
   9   6  -8-4.57808 127.072   1
  -9   6  -8 425.051 222.375   5
   9  -6   8 377.567 188.818   1
  -9   6  -8 390.853 262.798  19
   9   6  -8 345.514 345.250  18
  -9  -6   8-392.106 483.215  17
   9   6  -8 587.982 366.782   8
  -9   6  -8 493.679 292.151   4
   9  -6   8 198.703 147.755   8
  -9   6  -9 69.9506 76.0630   3
   9  -6   9 99.3866 171.161  14
   9   6  -9 309.262 201.947  13
   9  -6   9 104.868 104.828   1
   9  -6   9 167.426 303.757   6
  -9   6  -9 247.900 220.852  12
  -9   6  -9 171.189 185.987   5
  -9  -6   9-34.0782 120.884  19
   9   6  -9 407.660 453.808   1
  -9   6  -9 80.9617 34.0456  19
   9   6  -9 407.349 453.801  18
  -9  -6   9 191.571 272.381  17
   9   6  -9 376.721 280.355   8
  -9   6  -9 92.0616 224.470   4
   9  -6   9 43.7967 238.093   8
   9  -6  10 764.678 326.127  14
  -9   6 -10 446.806 338.848   3
   9   6 -10 712.355 377.524  13
   9  -6  10 584.492 361.195   6
  -9   6 -10 544.959 278.364  12
  -9   6 -10 695.433 361.972   5
  -9  -6  10 33.0833 166.508  19
  -9   6 -10 541.883 320.111  19
   9   6 -10 533.052 357.719   1
   6   9 -10 1179.68 738.328  18
   9   6 -10 839.256 468.229  18
  -6  -9  10 495.456 676.614  17
  -9  -6  10-175.345 236.342  17
   9  -6  10 548.480 207.469   1
  -9   6 -10 685.433 419.664   4
   9  -6  10 737.720 406.541   8
   9  -6  11 0.68402 91.3163  14
  -9   6 -11 4.19613 125.042   3
   9   6 -11-50.6205 124.413  13
   9  -6  11 125.707 117.384   6
  -9   6 -11 107.100 210.981  12
  -9   6 -11-96.1761 141.494   5
   9  -6  11 8.43851 151.927   1
  -9  -6  11 135.087 181.449  19
  -9   6 -11 6.96747 107.786  19
   6   9 -11 215.918 284.466  18
   9   6 -11 60.9819 281.679  18
   9   6 -11 33.5325 108.628   1
  -6  -9  11 719.884 666.630  17
  -9  -6  11 24.3079 211.727  17
  -9   6 -11 9.81996 57.4411   4
   9  -6  11 187.287 215.834   8
   9   7  -4 735.352 578.785  18
   9   7  -5-83.9804 355.845   8
  -9  -7   5 45.7289 93.8703  17
  -9  -7   6-109.136 401.470  19
   9   7  -6 1733.99 781.579  18
   9   7  -6 1141.20 392.447   8
  -9  -7   6 317.706 469.111  17
   9  -7   7 80.0750 131.845   6
  -9   7  -7 202.648 128.448  12
  -9  -7   7-408.131 350.345  19
  -9   7  -7 307.725 222.938   5
   9   7  -7 400.848 365.980  18
   9   7  -7 396.681 285.734   8
  -9  -7   7 32.5999 176.329  17
  -9   7  -7 280.186 278.690   4
   9  -7   8 498.780 312.568  14
   9  -7   8 743.256 347.794   6
  -9   7  -8 1478.40 548.670  12
  -9   7  -8 1469.98 509.245   5
  -9  -7   8-72.8867 85.0389  19
   9  -7   8 515.487 231.894   1
   9   7  -8 2011.90 780.003  18
   9   7  -8 2253.33 711.038   8
  -9  -7   8-44.6215 99.5055  17
   9  -7   8-630.908 410.346   8
  -9   7  -8 1517.43 591.589   4
  -9   7  -9-333.069 290.204   3
   9  -7   9 8.66230 11.7283  14
   9   7  -9-56.4452 336.864  13
   9  -7   9 141.820 275.630   6
  -9   7  -9 130.034 152.013  12
  -9  -7   9 170.080 92.6056  19
  -9   7  -9 298.960 255.030   5
  -9   7  -9-393.132 265.429  19
   9   7  -9 223.174 120.512  18
  -9  -7   9 148.568 418.043  17
   9  -7   9 218.639 149.233   1
  -9   7  -9 258.720 251.858   4
   9  -7   9-181.457 334.140   8
  -9  -8   6 544.370 758.938  17
  10   0   0 136.553 115.262  14
  10   0   0 103.097 119.068   6
  10   0   0 32.5527 137.822   1
 -10   0   0 84.3560 102.781  12
 -10   0   0-16.7576 82.1965   5
  10   0   0-37.2201 151.378  11
 -10   0   0 58.1093 98.7287   2
 -10   0   0 175.032 207.908  19
  10   0   0 84.8476 97.1930  18
 -10   0   0 74.2885 145.592   4
 -10   0   0 119.247 159.283  17
  10   0   0 162.486 294.637   8
 -10   0   0 299.140 329.904   7
 -10   0   0 91.7701 205.861  15
  10   0   1 78.7071 139.173  14
  10   0  -1 18.8599 124.416  14
 -10   0  -1 15.7541 53.2526   3
  10   0   1-20.9050 70.4396   6
  10   0  -1 57.0841 109.087   6
  10   0  -1-42.9089 47.1757  13
  10   0   1 39.5074 58.0532   1
 -10   0  -1 23.4135 107.038  12
 -10   0   1-31.3862 57.6749  12
  10   0  -1 13.6656 87.7196   1
 -10   0  -1 27.4969 240.085   5
  10   0   1-150.303 163.933  11
  10   0  -1-159.845 196.821  11
 -10   0   1 297.586 247.240   5
 -10   0  -1 102.131 111.126  19
 -10   0   1-17.4267 159.628  19
 -10   0   1 40.0699 119.085   2
  10   0   1-38.0928 41.8919  18
  10   0  -1-31.3804 70.3515  18
 -10   0  -1 71.4882 189.000   4
 -10   0   1-18.4882 113.666   4
 -10   0  -1-152.702 159.547  17
 -10   0   1 69.9185 127.171  17
  10   0   1-64.5771 180.353   8
  10   0  -1 25.5249 194.708   8
 -10   0  -1-71.0991 181.604   7
 -10   0   1 754.231 461.656   7
 -10   0  -1-170.065 208.630  15
 -10   0   1 252.284 301.975  15
  10   0   2 203.875 241.029  14
  10   0  -2 112.437 167.693  14
  10   0   2 170.959 195.879   1
  10   0   2 70.6735 109.895   6
  10   0  -2 52.1651 34.7655   6
 -10   0  -2 37.9045 43.5874   3
  10   0  -2 145.650 89.6870  13
 -10   0  -2 74.1624 73.3631  12
 -10   0   2 24.4794 17.9969  12
 -10   0  -2-167.840 270.451   5
  10   0   2-208.745 192.915  11
  10   0  -2-8.86565 105.424  11
 -10   0   2 81.2965 102.791   5
  10   0  -2 133.347 146.204   1
 -10   0  -2 3.18799 126.734  19
 -10   0   2 200.190 235.469  19
 -10   0   2 192.687 174.494   2
  10   0   2 109.932 100.168  18
  10   0  -2-25.4585 149.570  18
 -10   0  -2 106.471 156.850   4
 -10   0  -2 154.552 170.046  17
 -10   0   2-31.6623 113.258   4
 -10   0   2 91.3007 161.334  17
  10   0   2 116.987 156.223   8
  10   0  -2-51.9946 172.976   8
 -10   0  -2-222.174 304.504   7
 -10   0  -2 39.6556 37.3575  15
  10   0   3-23.6657 92.7929  14
  10   0  -3 92.5886 172.879  14
  10   0   3-20.5302 129.664   6
  10   0  -3 12.8496 38.5585   6
  10   0  -3 299.243 147.259  13
 -10   0  -3 8.74157 45.7465   3
 -10   0  -3 116.973 190.571  12
 -10   0  -3 45.8405 147.234   5
  10   0   3-62.9042 136.626  11
  10   0  -3-41.2517 130.197  11
 -10   0   3 102.998 214.741   5
 -10   0  -3 32.9814 217.193  19
 -10   0   3 90.8974 146.420  19
  10   0  -3-40.6093 12.3189   1
  10   0   3-55.4585 51.7518  18
  10   0  -3-32.3580 105.920  18
 -10   0   3 201.191 158.760   2
 -10   0  -3-97.5579 156.471   4
 -10   0  -3-167.795 162.064  17
  10   0   3 74.3679 154.172   8
 -10   0   3 0.58687 23.3851  17
 -10   0   3 43.1612 90.9988   4
  10   0  -3-70.9838 224.518   8
 -10   0  -3-672.503 391.881   7
 -10   0  -3-177.911 374.085  15
  10   0   3-121.225 183.634   1
  10   0   4 1531.72 559.205  14
  10   0  -4 1185.63 477.204  14
 -10   0  -4 539.275 309.963  12
 -10   0  -4 298.084 176.449   3
 -10   0  -4 321.626 194.112   5
  10   0   4 1236.62 277.488  11
  10   0  -4 496.817 264.883  11
 -10   0   4 1202.79 534.778   5
 -10   0  -4 435.029 302.759  19
 -10   0   4 1168.14 427.537  19
  10   0   4 1399.34 376.585  18
  10   0  -4 1456.10 538.604   1
  10   0  -4 983.479 433.110  18
 -10   0  -4 360.678 270.335   4
 -10   0   4 1183.23 382.178   2
 -10   0  -4 94.9983 141.347  17
  10   0   4 1456.49 595.519   8
 -10   0   4 310.392 282.499  17
 -10   0   4 1354.42 501.693   4
  10   0   4 529.273 155.579  16
  10   0  -4 1180.19 512.234   8
  10   0   4 1528.25 565.835   1
 -10   0  -4-544.960 376.760  15
  10   0   4 1547.05 509.574   6
  10   0  -4 1495.69 327.984   6
  10   0   5 5.56105 18.9198  14
  10   0   5 70.7702 166.691   6
  10   0  -5-27.2458 93.1132  14
  10   0  -5 58.8306 76.3726   6
 -10   0  -5 272.468 247.553   3
  10   0   5 93.5787 24.5034  11
  10   0  -5-93.2946 154.160  11
 -10   0   5 80.1538 155.580   5
 -10   0  -5 54.1822 172.131  19
 -10   0   5-43.8187 88.0935  19
  10   0   5 5.09961 39.4864  18
  10   0  -5-30.6184 52.9682  18
 -10   0  -5-154.100 278.207   4
 -10   0   5-62.3509 128.522   2
  10   0  -5-68.8756 101.388   1
 -10   0  -5 191.116 182.427  17
  10   0   5-29.7285 130.770   8
  10   0   5 22.4865 60.9716   1
 -10   0   5-47.9271 184.815  17
 -10   0   5 38.2281 140.966   4
  10   0   5-49.5289 60.7172  16
  10   0  -5-74.8560 237.516   8
  10   0  -6 1338.28 479.693  14
  10   0   6 2122.03 643.494   1
  10   0  -6 516.455 294.890  11
 -10   0   6 1347.95 470.272  19
 -10   0   6 1487.79 600.657   5
 -10   0  -6 303.788 289.866  19
  10   0   6 2169.30 452.494  18
 -10   0   6 1412.39 573.778   4
 -10   0  -6-364.628 438.318   4
  10   0  -6 819.075 366.051  18
 -10   0  -6 234.056 168.945  17
  10   0   6 2569.19 815.676   8
 -10   0   6 1500.10 450.286   2
 -10   0   6 768.565 505.547  17
  10   0   6 1976.08 454.532  16
  10   0  -6 1421.40 499.403   1
  10   0  -6 1009.16 466.673   8
  10   0   6 1879.56 565.323   6
  10   0  -6 1882.64 344.122   6
  10   0   6 1976.32 686.299  14
  10   0   7 12.5553 111.370   6
  10   0  -7 59.7020 97.5903  14
  10   0  -7 20.8147 31.6150   6
  10   0   7 122.782 50.3024  11
  10   0  -7-34.2909 65.1714  11
 -10   0   7 306.208 317.551   5
 -10   0  -7 153.622 206.655  19
 -10   0   7 27.8432 110.550  19
  10   0   7 4.01819 29.6292   1
  10   0   7 43.0863 113.050  18
  10   0  -7-41.0343 202.081  18
 -10   0  -7 142.687 136.312  17
  10   0   7 150.890 234.558   8
 -10   0   7 117.758 197.537  17
 -10   0   7 63.8038 93.9814   2
 -10   0   7-31.6347 120.612   4
  10   0   7 138.584 107.285  16
  10   0  -7-32.1164 157.551   8
 -10   0   7-12.0328 30.0213  16
  10   0  -7 24.7854 55.7851   1
  10   0   7-65.0020 179.420  14
  10   0   8 1224.13 460.300   6
  10   0  -8 1421.84 534.505   1
  10   0  -8 1289.00 451.270  14
  10   0  -8 80.7400 157.435  11
 -10   0   8 1328.71 458.857  19
  10   0   8 1037.07 453.416   1
 -10   0   8 1799.57 662.407   5
 -10   0  -8-185.124 265.780  19
  10   0   8 1634.23 352.445  18
  10   0  -8 502.016 320.472  18
  10   0   8 2159.09 752.914   8
 -10   0   8 736.337 547.862  17
 -10   0   8 936.030 230.044  16
 -10   0   8 1419.59 481.398   2
 -10   0   8 1327.83 503.914   4
  10   0   8 1640.98 455.296  16
  10   0  -8-4.04057 285.541   8
  10   0  -8 1397.99 275.764   6
  10   0   8 1589.57 630.637  14
  10   0   9-280.907 235.589   6
  10   0  -9 2.49242 59.2025  14
  10   0  -9 291.011 262.713   1
  10   0   9-231.931 327.916   1
  10   0  -9-62.3416 215.032  11
 -10   0  -9-375.422 382.067  19
 -10   0   9 108.806 165.207   5
 -10   0   9 53.4420 41.1979  19
  10   0   9 49.7724 97.4098  18
  10   0  -9 8.39747 52.5323  18
  10   0   9 44.0873 92.5107   8
 -10   0   9-169.335 268.877  17
 -10   0   9 20.5747 75.0324   2
 -10   0   9-79.8219 194.693   4
  10   0   9 197.427 205.051  16
 -10   0   9 110.127 95.1917  16
  10   0   9 2.48764 117.574  14
  10   0 -10 224.708 231.481  14
  10   0 -10 442.391 344.938   1
  10   0 -10-229.278 389.638  11
 -10   0 -10-81.9062 217.386  19
 -10   0  10 429.044 317.010   5
 -10   0  10 291.406 147.884  19
  10   0 -10 89.8732 134.921  18
  10   0  10 670.113 341.566   8
 -10   0  10 373.513 340.954  17
 -10   0  10 497.782 316.555   2
 -10   0  10 438.051 371.823   4
  10   0  10 742.621 362.851  16
 -10   0  10 377.956 175.286  16
  10   0  10 497.979 412.396  14
  10   0  10 340.819 286.734   6
  10   0 -11-147.805 143.246  14
  10   0 -11 73.8857 170.512   1
 -10   0 -11-422.142 439.601  19
 -10   0  11-15.7538 165.542   5
  10   0 -11 12.9939 34.2547  18
  10   0  11 3.52009 68.3174   8
 -10   0  11-302.000 297.983  17
 -10   0  11 176.287 219.496   4
 -10   0  11 47.2786 135.352   2
  10   0  11 132.869 252.921  16
 -10   0  11-89.5754 88.6560  16
  10   0  11 19.9068 244.932  14
  10   0  11 187.257 311.623   6
  10   0 -12-32.2095 88.3021  14
  10   0 -12 174.621 229.555   1
 -10   0 -12-340.972 312.731  19
 -10   0  12 38.4200 20.0364   5
  10   0 -12-126.693 294.340  18
  10   0  12 186.705 449.223   8
 -10   0  12-71.3412 56.1167  17
 -10   0  12-16.6139 132.188   4
 -10   0  12 240.941 372.398   2
  10   0  12 175.900 296.460  16
 -10   0  12-35.7201 85.2816  16
  10   0  12-736.555 446.431  14
  10   0  12-672.812 396.245   6
  10   0 -13-22.5406 78.0159  14
  10   0 -13-86.8689 172.095   1
 -10   0 -13 114.524 248.053  19
 -10   0  13-138.578 206.194   5
  10   0 -13 102.558 244.940  18
  10   0  13 70.6323 212.137   8
 -10   0  13 23.8845 240.830  17
 -10   0  13-2.21895 45.1899   4
 -10   0  13 10.1975 156.059   2
  10   0  13-37.6810 105.206  16
  10   0  13-271.487 433.672   6
  10   1   0-40.9438 145.030  14
  10   1   0 39.9478 20.3706   6
 -10  -1   0 46.7298 57.7721   3
  10  -1   0 90.7148 144.434  14
  10  -1   0 161.422 115.945   6
 -10  -1   0 7.30119 28.8493  12
 -10   1   0-10.1730 27.3979  12
 -10  -1   0 91.6317 164.998   5
  10   1   0 201.150 133.245  11
 -10   1   0 243.095 321.511   5
 -10  -1   0-9.84035 128.300  19
 -10   1   0-4.43661 65.5243  19
  10  -1   0 229.059 252.183   1
  10   1   0 52.8619 51.2024  18
 -10   1   0 56.5710 109.406   2
  10  -1   0 44.0782 50.7724  18
 -10  -1   0 74.2090 143.739   4
 -10  -1   0 114.766 136.092  17
  10   1   0 65.1827 224.309   8
 -10   1   0 184.889 191.944   4
 -10   1   0 17.9469 67.5191  17
  10  -1   0 33.9336 237.275   8
  10   1   0 146.170 204.245   1
  10   1   1 85.3409 206.242  14
  10   1  -1 133.060 173.848  14
  10   1   1 64.9660 121.397   6
  10   1  -1 29.1413 98.1891   6
  10  -1   1 55.3381 95.0005  14
  10  -1  -1 55.4938 64.1129  14
  10   1  -1-1.33045 139.036   1
  10  -1   1 132.364 112.721   6
 -10  -1  -1 11.3735 45.9098   3
  10  -1  -1 150.476 118.166   6
 -10  -1  -1 190.600 137.755  12
 -10  -1   1 83.1063 123.507  12
 -10   1  -1 14.5662 47.4654  12
 -10   1   1-24.5188 98.5123  12
 -10  -1  -1-6.27184 154.996   5
  10   1   1 320.467 210.020  11
  10   1  -1 32.4961 70.5998  11
 -10  -1   1-80.6274 199.149   5
 -10   1  -1 264.006 303.762   5
  10  -1   1 254.999 255.081   1
 -10   1   1 329.460 302.410   5
 -10  -1  -1 196.798 275.932  19
 -10  -1   1-14.9814 97.9479  19
 -10   1  -1 170.613 174.812  19
 -10   1   1 199.365 244.179  19
 -10   1  -1 37.2525 7.03410   2
  10   1   1 134.913 141.124  18
  10   1  -1 108.008 175.739  18
  10  -1   1 0.98025 151.978  18
  10  -1  -1-5.95467 117.420  18
 -10  -1  -1 138.411 183.951   4
  10  -1  -1 150.923 186.605   1
 -10   1   1 130.717 144.183   2
 -10  -1   1-19.4251 42.6970   4
 -10  -1  -1-53.9470 137.930  17
 -10  -1   1-333.015 249.779  17
  10   1   1 180.191 308.766   8
 -10   1  -1 85.6388 127.826   4
  10   1  -1 202.825 228.868   8
 -10   1  -1-44.9471 37.9367  17
 -10   1   1-47.8657 134.197  17
 -10   1   1 71.2367 26.4992   4
  10  -1   1 29.3615 52.9397   8
  10  -1  -1 107.548 216.947   8
  10   1   1 363.279 327.558   1
  10   1   2 107.990 226.248  14
  10   1   2-70.3154 127.008   6
  10   1  -2-25.6437 117.669  14
  10  -1   2 16.5574 105.625  14
 -10   1  -2-44.7660 85.3728   3
  10   1  -2 47.2653 75.7238   6
  10  -1  -2 7.41124 70.5700  14
  10  -1   2 20.8145 83.3366   6
  10   1  -2-11.9300 33.1885  13
  10   1  -2 151.420 223.055   1
  10  -1  -2-5.03954 33.2579   6
 -10  -1  -2 407.286 296.111  12
 -10  -1  -2 47.2838 48.4257   3
 -10   1  -2 98.4262 114.070  12
 -10  -1   2-118.515 136.341  12
  10  -1   2-87.7119 173.728   1
  10   1   2 411.084 244.091  11
  10   1  -2-206.476 191.588  11
 -10  -1   2 96.2096 177.073   5
 -10   1  -2-91.3021 197.467   5
 -10   1  -2-0.74743 63.2990   2
 -10   1   2 5.59858 40.0993   5
 -10  -1   2 62.5735 139.541   2
 -10  -1  -2-32.1091 183.513  19
 -10  -1   2-15.0427 175.161  19
 -10   1  -2-79.2608 174.894  19
 -10   1   2 54.6074 95.8886  19
  10   1   2 73.7231 128.032  18
  10   1  -2 52.8670 155.550  18
  10  -1   2-56.8383 138.308  18
 -10  -1  -2-178.945 410.265   4
  10  -1  -2-26.4616 108.131  18
 -10  -1   2 191.208 314.069   4
 -10  -1  -2-1.30147 40.9851  17
 -10   1   2 3.42024 20.5650   2
  10   1   2 54.0067 233.507   8
 -10  -1   2-87.8815 86.3808  17
 -10   1  -2 114.753 138.204   4
 -10   1  -2 128.782 181.736  17
  10   1  -2 53.9816 119.357   8
 -10   1   2-87.8896 137.095  17
  10  -1   2 236.971 299.740   8
  10  -1  -2-63.1896 146.084   1
 -10   1   2-29.9129 49.7121   4
  10  -1  -2 9.80880 85.2787   8
  10   1   2 0.17532 74.4963   1
  10   1   3 151.198 147.384   6
  10   1  -3 219.390 259.529  14
  10  -1   3 253.005 229.578  14
  10   1  -3 198.195 122.064   6
  10  -1  -3 283.390 227.063  14
 -10   1  -3-43.5431 19.1540   3
  10  -1   3 328.303 208.602   6
  10   1  -3 354.244 153.622  13
  10  -1  -3 250.544 169.935   6
  10  -1   3 349.733 262.788   1
  10   1  -3 208.750 156.146   1
 -10   1  -3 68.1275 36.9462  12
 -10  -1   3-92.7684 95.2215  12
  10   1   3 1368.11 418.374  11
  10   1  -3 179.118 150.749  11
 -10   1  -3 99.5673 190.987   5
 -10  -1   3 230.355 216.087   5
 -10   1   3 181.879 219.786   5
 -10  -1  -3 130.335 218.835  19
 -10   1  -3 36.5655 66.4102  19
 -10  -1   3 185.954 195.191  19
 -10   1   3 187.910 134.365  19
 -10  -1   3 78.1714 105.673   2
  10   1   3 277.326 179.683  18
  10   1  -3 94.0182 26.9598  18
 -10  -1  -3-333.689 412.342   4
  10  -1   3 64.6309 81.5532  18
  10  -1  -3-7.76900 123.987  18
 -10  -1   3 170.303 163.537   4
 -10  -1  -3-114.026 150.304  17
 -10   1  -3 11.3991 113.248   4
  10   1   3 389.204 369.034   8
 -10  -1   3 26.5920 103.552  17
  10   1   3 485.723 411.228   1
 -10   1  -3 0.11928 42.3615  17
  10  -1   3 172.056 174.730   8
 -10   1   3 12.0931 40.4299  17
  10   1  -3 175.799 204.589   8
 -10   1   3 279.745 186.758   2
 -10   1   3 120.554 218.916   4
  10   1   3 233.276 129.642  16
  10  -1  -3-17.4224 146.204   8
 -10  -1   3-248.641 333.977  15
 -10   1  -3 480.907 445.411   7
  10  -1  -3 300.183 227.260   1
 -10   1  -3 337.030 394.197  15
  10   1   3 242.694 242.364  14
  10   1  -4 38.4891 123.080  14
  10  -1   4 73.2184 127.782  14
  10   1  -4-12.8614 52.3294   6
  10  -1  -4-65.0255 117.448  14
  10  -1  -4 18.8007 157.398   1
  10  -1   4 103.523 233.777   1
  10  -1   4-10.0923 64.9880   6
 -10   1  -4 60.5060 95.9767   3
  10   1  -4 33.5287 53.3311  13
  10  -1  -4 81.8284 88.8767   6
 -10   1  -4 24.6316 58.5899  12
  10   1  -4 39.7377 147.284   1
 -10   1  -4 502.333 552.263   5
  10   1  -4-156.591 233.359  11
 -10  -1   4 79.3810 194.749   5
 -10   1   4 110.109 242.822   5
 -10  -1  -4 165.777 320.765  19
 -10   1  -4-90.4764 173.592  19
 -10  -1   4 86.2485 145.907  19
 -10   1   4-10.2600 27.0938  19
 -10  -1   4 18.1003 49.4234   2
  10   1   4 57.9929 164.121  18
  10   1  -4 64.0507 96.2644  18
  10  -1   4-38.6830 77.0494  18
  10  -1  -4 8.16137 85.9772  18
  10   1   4-65.8068 186.244   1
 -10   1  -4 79.3131 162.277   4
 -10  -1  -4 127.891 194.748  17
  10   1   4 214.684 350.778   8
 -10  -1   4 7.77964 80.7532   4
 -10  -1   4 176.416 225.475  17
  10  -1   4 181.032 280.781   8
 -10   1  -4-170.633 159.279  17
 -10   1   4-110.443 191.472  17
  10   1  -4-113.143 182.939   8
 -10   1   4 107.333 151.290   2
 -10   1   4-10.8450 65.8382   4
  10  -1  -4-57.3736 73.3514   8
  10   1   4 68.0762 90.5956  16
 -10  -1   4-468.372 367.915   7
 -10   1  -4 334.442 388.164   7
 -10  -1   4-249.238 241.704  15
 -10   1  -4 83.8554 230.477  15
  10   1   4 73.1372 141.888  14
  10   1   4-76.5323 137.428   6
  10  -1   5 1428.49 511.098  14
  10   1  -5 682.362 412.194  14
  10  -1  -5 688.290 371.356  14
  10   1  -5 709.328 209.420   6
  10  -1   5 1175.67 427.575   6
  10   1  -5 1317.79 320.510  13
  10  -1  -5 864.249 395.771   1
 -10   1  -5 124.653 63.1095   3
 -10   1  -5 326.367 165.936  12
 -10   1  -5 782.719 484.461   5
  10   1  -5 1247.30 464.815  11
  10   1  -5 1124.44 480.570   1
 -10  -1   5 1215.46 577.082   5
 -10  -1  -5-115.519 282.949  19
 -10   1   5 959.951 467.209   5
 -10   1  -5 506.200 340.650  19
 -10  -1   5 790.688 378.436  19
 -10   1   5 1077.51 427.068  19
  10   1   5 1361.92 391.310  18
  10   1   5 1338.24 583.117   1
 -10  -1   5 1259.31 440.754   2
  10   1  -5 738.621 351.140  18
  10  -1   5 634.963 233.297  18
  10  -1  -5 270.661 202.883  18
 -10   1  -5 485.266 324.789   4
 -10  -1  -5 133.895 138.872  17
  10   1   5 1440.97 658.363   8
 -10  -1   5 717.006 405.974   4
 -10  -1   5 934.260 457.301  17
  10  -1   5 1494.37 589.852   8
 -10   1  -5 115.195 113.384  17
 -10   1   5 443.271 327.455  17
  10   1   5 1532.90 376.496  16
  10   1  -5 1007.70 427.440   8
 -10   1   5 645.342 433.079   4
 -10   1   5 1064.53 365.562   2
  10  -1  -5 476.954 312.930   8
 -10  -1   5 225.759 104.279   7
 -10   1  -5 580.487 400.348   7
 -10  -1   5 965.113 313.056  15
 -10   1  -5 543.549 405.350  15
  10  -1  -5 1032.38 289.806   6
  10  -1   5 1394.06 488.290   1
  10   1   5 1418.96 583.516  14
  10   1   5 654.685 341.234   6
  10  -1   6 23.2894 53.0313  14
  10   1  -6 89.6078 186.354  14
  10  -1  -6 93.2729 212.311  14
  10  -1   6 93.9336 99.7536   6
  10   1  -6 28.1774 37.4264   6
 -10   1  -6 70.2269 173.050  12
  10  -1  -6 91.4610 99.2084   6
 -10   1  -6 109.243 176.197   3
  10  -1  -6 217.025 224.712   1
 -10   1  -6-18.1961 133.936   5
  10   1  -6 4.14045 80.3919  11
 -10  -1   6-20.3686 86.7312   5
 -10  -1  -6-96.7563 242.404  19
  10   1  -6 162.940 238.658   1
 -10   1   6-5.88564 160.064   5
 -10   1  -6 228.714 304.141  19
  10   1   6-4.47531 79.2170   1
 -10  -1   6 25.5768 53.3870  19
 -10   1   6 112.139 200.290  19
  10   1   6 37.8372 84.5005  18
  10   1  -6-3.00757 12.3411  18
  10  -1   6-35.4910 118.310  18
 -10  -1   6 194.410 186.664   2
  10  -1  -6-12.7243 181.573  18
 -10   1  -6-107.372 196.974   4
 -10  -1  -6-62.4942 79.2417  17
  10   1   6 45.6487 103.489   8
 -10  -1   6 220.644 214.833   4
  10  -1   6 97.1246 270.838   8
 -10  -1   6 6.14198 87.5724  17
 -10   1  -6-169.033 144.889  17
 -10   1   6 84.2039 159.947  17
  10  -1   6 79.6131 39.0877  16
  10   1  -6 24.4640 145.555   8
 -10   1   6 311.912 259.877   4
  10  -1   6 8.09797 110.570   1
  10   1   6 83.2768 126.394  16
  10  -1  -6-197.192 324.085   8
 -10   1   6-8.48976 77.9312   2
 -10  -1   6 119.459 112.395   7
 -10   1  -6-157.538 360.142   7
 -10   1  -6 121.338 240.057  15
 -10  -1   6 82.9665 106.662  15
  10   1   6 6.67225 84.3515  14
  10   1   6-84.2855 187.329   6
  10  -1   7 1697.32 567.712  14
  10   1  -7 1154.98 461.415  14
  10  -1  -7 818.559 423.308  14
 -10   1  -7 675.918 406.758  12
  10  -1  -7 775.454 228.161   6
 -10   1  -7 256.497 225.190   3
  10   1  -7 869.456 408.543  11
  10  -1  -7 990.751 449.751   1
  10   1   7 1145.60 483.968   1
 -10  -1   7 1169.58 537.539   5
 -10  -1  -7-100.227 160.307  19
 -10   1  -7 436.690 313.080  19
 -10   1   7 1274.44 531.372   5
 -10  -1   7 1123.79 420.558  19
 -10   1   7 1010.06 424.456  19
  10   1  -7 1222.95 507.179   1
  10   1   7 1602.77 422.629  18
  10  -1   7 975.567 262.746  18
  10   1  -7 1149.48 462.629  18
 -10   1  -7 544.162 350.148   4
  10  -1  -7 186.327 173.186  18
 -10  -1   7 1224.33 473.990   2
 -10  -1  -7-14.4130 97.8371  17
  10   1   7 1614.36 727.309   8
  10  -1   7 1757.08 683.189   8
  10  -1   7 1691.85 570.250   1
 -10  -1   7 713.264 461.947  17
 -10   1  -7 70.9022 97.7942  17
 -10  -1   7 906.967 493.162   4
 -10   1   7 603.174 483.033  17
  10  -1   7 1334.92 407.976  16
  10   1  -7 872.274 403.335   8
 -10   1   7 1125.10 481.992   4
  10   1   7 1379.88 407.770  16
 -10   1  -7-385.495 333.493   7
 -10   1   7 1229.96 423.990   2
 -10  -1   7 1381.58 355.157  15
 -10   1  -7 196.046 274.821  15
  10  -1   7 1711.10 550.185   6
  10   1  -7 820.014 196.832   6
  10   1   7 633.755 295.887   6
  10   1   7 1082.40 545.609  14
  10  -1   8-9.12187 79.7572  14
  10   1  -8-34.6993 86.3666  14
  10  -1   8 47.4652 141.729   6
  10  -1  -8 58.9309 125.864  14
 -10   1  -8 567.560 430.516  12
  10  -1  -8-7.71321 39.5834   6
 -10   1  -8 133.094 231.425   3
  10   1  -8-242.089 236.195  11
 -10  -1   8-117.125 178.296   5
 -10  -1  -8 133.379 283.620  19
 -10   1  -8-121.359 209.677  19
 -10   1   8-133.811 167.141   5
  10  -1  -8-113.366 164.139   1
 -10  -1   8 42.2663 79.9074  19
 -10   1   8-58.4765 149.436  19
  10   1   8 142.660 138.576  18
  10   1  -8 90.7772 45.5284   1
  10  -1   8 18.8485 41.6663  18
  10   1  -8 1.78661 105.558  18
 -10   1  -8-738.226 442.845   4
  10  -1   8 14.8166 36.2953   1
  10  -1  -8-111.667 218.582  18
 -10  -1  -8-35.0230 79.7488  17
  10   1   8-62.5090 136.931   8
 -10  -1   8-40.6073 125.536   2
  10  -1   8-250.722 341.323   8
 -10  -1   8-66.0982 184.676  17
 -10  -1   8 15.4167 96.7672   4
 -10   1   8-106.994 181.779  17
  10  -1   8 81.9209 153.480  16
  10   1  -8-138.409 162.001   8
 -10   1   8 86.0703 164.898   4
  10   1   8 203.076 219.002  16
 -10   1  -8-631.133 703.186   7
 -10   1  -8-540.756 645.251  15
 -10   1   8 4.12760 105.508   2
  10   1   8-308.708 362.268   6
  10   1   8 4.47177 92.1990  14
  10  -1   9 1013.27 479.917  14
  10   1  -9 182.142 235.632  14
  10  -1   9 1032.47 428.551   6
  10  -1  -9 380.254 280.460  14
  10   1  -9 316.954 286.507  11
 -10  -1   9 395.873 330.218   5
 -10  -1  -9 154.227 293.114  19
 -10   1  -9 284.190 174.268  19
 -10   1   9 549.769 321.321   5
 -10  -1   9 493.328 270.140  19
  10  -1   9 572.228 336.283   1
  10   1   9 587.067 254.952  18
  10  -1  -9 384.595 312.199   1
  10   1  -9 451.655 330.663  18
  10  -1  -9-94.4249 308.181  18
 -10  -1  -9 273.762 236.750  17
  10   1  -9 444.389 294.855   1
  10   1   9 996.338 559.236   8
 -10  -1   9 634.802 363.648   2
  10  -1   9 1370.10 630.468   8
 -10  -1   9 510.349 289.598  17
 -10  -1   9 329.978 299.267   4
 -10   1   9-42.6269 219.217  17
  10  -1   9 1058.82 418.006  16
  10   1  -9-140.246 293.971   8
  10   1   9 627.433 303.492  16
 -10   1   9 422.035 346.370   4
 -10   1   9 738.424 374.385   2
  10   1   9-77.5587 340.319   6
  10   1   9 259.607 176.041  14
  10   1 -10-156.598 166.946  14
  10  -1  10-214.369 207.147   6
  10  -1 -10-6.35959 106.629  14
  10   1 -10-53.7295 209.874  11
  10  -1  10-331.733 269.124   1
 -10  -1  10 100.784 184.894   5
 -10  -1 -10-20.7536 186.315  19
 -10   1 -10 79.3317 164.768  19
 -10   1  10 82.9060 148.800   5
 -10  -1  10 166.674 166.096  19
  10   1  10 155.091 168.480  18
  10   1 -10 15.1166 94.2526  18
  10  -1 -10-114.058 395.620  18
  10   1  10 80.4280 226.173   8
  10  -1 -10-5.82278 33.4824   1
  10  -1  10-98.1286 77.0937   8
  10   1 -10 19.6914 127.510   1
 -10  -1  10-121.994 182.255   2
 -10  -1  10-208.110 328.291  17
 -10   1  10-740.731 463.022  17
 -10  -1  10 83.1006 183.238   4
  10  -1  10 6.07422 80.5826  16
  10   1  10 57.5565 92.7424  16
 -10   1  10 51.1923 142.926   4
 -10   1  10-86.9962 151.700   2
  10  -1  10-160.033 189.829  14
  10  -1  11 719.358 538.164   6
  10   1 -11 31.1282 62.6326  14
  10  -1 -11-11.4606 45.8133  14
  10   1 -11-36.0818 148.535  11
 -10  -1  11-9.28802 164.652   5
 -10  -1 -11 26.5979 191.521  19
 -10   1 -11 1432.33 720.900  19
 -10   1  11-31.2373 113.497   5
 -10  -1  11-76.7381 192.136  19
  10   1 -11-80.2159 249.223  18
  10   1  11-57.0462 360.280   8
  10  -1  11 884.571 640.537   8
 -10  -1  11 91.7413 151.815   2
 -10  -1  11-97.2358 256.080  17
 -10   1  11-719.911 612.501  17
 -10  -1  11-24.9728 104.006   4
  10   1 -11-16.6023 143.350   1
  10  -1 -11-32.8839 126.741   1
  10  -1  11 266.418 261.536  16
  10   1  11 225.104 287.778  16
 -10   1  11-16.7550 48.1462   4
 -10   1  11 140.014 210.440   2
  10  -1  11 1007.13 639.762  14
  10  -1  12 69.4269 71.3717   6
  10   1 -12 37.3823 103.268  14
  10  -1 -12 48.9125 103.173  14
  10   1 -12-145.426 221.524  11
 -10  -1  12-2.26730 136.498   5
 -10  -1 -12-212.310 293.037  19
 -10   1 -12 368.941 410.989  19
 -10   1  12 38.5729 200.478   5
  10   1 -12-34.1985 154.427  18
  10   1  12 301.766 455.214   8
  10  -1  12 323.647 543.509   8
 -10  -1  12 17.2313 88.2049  17
 -10  -1  12-51.0287 200.776   2
 -10  -1  12-19.2160 92.7647   4
  10  -1  12-176.970 99.2388  16
  10   1 -12 127.994 240.196   1
  10  -1 -12 18.6408 194.448   1
  10   1  12 109.316 284.072  16
 -10   1  12-54.6036 150.581   4
 -10   1  12 349.242 369.115   2
  10  -1  12-91.8306 155.568  14
  10  -1  13 56.6887 153.013   6
  10   1 -13 27.1119 133.395  14
  10  -1 -13 154.861 231.834  14
  10   1 -13-150.849 352.536  11
 -10  -1 -13 67.1192 112.122  19
 -10  -1  13 126.692 260.167   5
 -10   1 -13 319.383 261.500  19
 -10   1  13 560.571 426.505   5
  10   1 -13-48.1488 177.654  18
  10   1  13 381.625 439.082   8
  10  -1  13 540.968 521.875   8
 -10  -1  13 49.1682 142.088  17
 -10  -1  13-11.6507 166.855   2
 -10  -1  13 46.3502 51.5004   4
  10  -1  13 280.070 264.283  16
  10   1  13 63.4177 121.015  16
  10   1 -13 128.271 166.906   1
  10  -1 -13 264.159 302.962   1
 -10   1  13 297.798 347.000   2
  10  -1  13 70.3949 103.218  14
  10  -2   0 1208.09 469.089  14
 -10   2   0 388.548 201.198  12
 -10   2   0 1065.02 309.921   2
 -10   2   0 1110.10 501.646   5
 -10  -2   0-24.3240 152.691  19
 -10   2   0 972.715 410.520  19
  10   2   0 1300.38 449.647  18
 -10  -2   0 72.2454 105.231  17
  10   2   0 1490.05 599.210   8
  10   2   0 1883.88 610.798   1
 -10   2   0 869.380 418.906   4
  10  -2   0 976.388 488.669   8
  10  -2   0 1218.54 372.374   6
  10  -2   0 1166.58 442.130   1
  10   2   0 1011.72 480.332  14
  10  -2   1 57.7084 57.3319  14
  10  -2  -1 168.775 190.853  14
  10  -2  -1 2.55254 144.963   1
  10  -2   1-43.4101 38.0239   6
  10  -2  -1 33.9690 46.1711   6
 -10  -2   1 185.804 156.285  12
 -10   2  -1 115.674 117.194  12
 -10   2  -1 56.2590 136.415   5
 -10  -2  -1 91.3780 222.215  19
 -10   2   1 128.927 231.126   5
 -10  -2   1 278.050 252.593  19
 -10   2  -1-17.6557 146.916  19
 -10   2   1 16.1647 97.6293  19
  10   2   1-13.5366 86.9445  18
  10   2  -1-10.7700 79.1917  18
 -10  -2   1-597.394 377.195   4
 -10  -2  -1 238.457 242.418  17
 -10   2  -1 17.5001 36.7085   2
 -10  -2   1 113.693 185.351  17
  10   2   1 293.871 452.893   8
  10   2   1 253.039 276.960   1
  10   2  -1-57.9801 159.858   8
  10  -2   1-31.4650 178.438   1
 -10   2  -1 57.2067 108.056   4
  10  -2   1 17.5672 101.713   8
  10  -2  -1 3.22268 111.132   8
 -10   2   1 119.317 185.947   4
 -10   2   1-30.5147 3.63855   2
  10   2  -1-90.2771 206.485   1
  10   2   1 61.8488 91.1901  14
  10   2  -1-27.0397 58.1633  14
  10  -2   2 296.096 244.251  14
  10  -2  -2 236.469 208.248  14
  10  -2   2 324.754 198.822   6
  10  -2  -2 322.033 216.573   6
 -10  -2   2 74.7857 27.2332  12
  10  -2  -2 266.506 230.772   1
 -10   2  -2 136.671 155.704  12
 -10  -2   2-75.1161 245.014   5
  10   2  -2 1060.33 418.617  11
 -10   2  -2 98.9897 152.235   5
 -10  -2  -2-235.051 161.889  19
 -10  -2   2 236.428 287.822  19
 -10   2   2 194.335 249.687   5
 -10   2  -2 193.366 171.306  19
 -10   2   2 334.219 234.241  19
  10   2  -2 550.506 273.891   9
  10   2   2 417.105 263.972  18
  10   2  -2 284.864 246.205  18
 -10   2  -2 422.557 186.485   2
  10  -2   2 255.991 196.709   1
 -10  -2   2-153.435 268.105   4
  10   2   2 543.909 370.211   1
 -10  -2  -2 165.763 218.464  17
  10   2   2 555.527 391.480   8
 -10  -2   2 58.7003 161.531  17
  10   2  -2 511.734 367.314   8
 -10   2  -2 299.599 294.085   4
  10  -2   2 376.213 302.057   8
  10  -2  -2 224.988 222.296   8
 -10   2   2 330.843 288.803   4
  10   2   2 254.327 116.191  16
 -10   2   2 296.606 167.583   2
  10   2  -2 230.458 194.692   1
  10   2   2 352.142 306.465  14
  10   2  -2 91.6853 130.522  14
 -10   2  -3-35.5952 122.246   3
  10  -2   3 227.871 213.963  14
  10  -2  -3 106.850 145.908  14
  10   2  -3 119.269 81.1988  13
  10  -2   3 170.018 122.541   6
  10  -2  -3 213.572 157.489   6
 -10  -2   3 98.5871 83.5897  12
 -10   2  -3 122.276 139.261  12
  10   2  -3 467.219 287.836  11
 -10  -2   3 52.8008 178.640   5
 -10   2  -3 310.301 180.140  20
 -10   2  -3 66.4503 132.630   5
  10  -2  -3 40.5655 94.0517   1
 -10  -2  -3-182.943 256.453  19
 -10   2  -3 14.7998 38.2577  10
 -10  -2   3 122.929 78.3902  19
  10  -2   3 169.651 167.575   1
 -10   2  -3 85.2216 84.2957   2
 -10   2   3 213.802 238.045   5
 -10   2  -3 88.9402 143.076  19
 -10   2   3 252.442 204.501  19
  10   2  -3 352.827 201.949   9
  10   2   3 63.4669 98.6867   1
  10   2   3 132.488 152.430  18
  10   2  -3 188.438 195.349  18
 -10  -2   3-50.8960 176.469   4
 -10  -2  -3 154.079 202.082  17
  10   2   3 168.489 151.232   8
 -10  -2   3-57.7693 124.957  17
  10   2  -3 489.980 406.810   8
 -10   2  -3 296.658 310.465   4
  10  -2   3 36.0475 211.274   8
  10  -2  -3 98.3161 126.703   8
 -10   2   3 271.620 253.809   4
  10   2   3 179.307 102.367  16
 -10   2   3 139.080 114.904   2
  10   2   3 193.002 240.977  14
  10   2  -3 180.279 178.098   1
  10   2  -3 76.6991 190.977  14
  10   2  -4 34.6871 127.848  14
  10  -2   4 21.8886 54.6981  14
  10   2  -4 2.09554 138.720   1
  10  -2  -4-67.0688 101.228  14
 -10   2  -4 99.2246 147.442   3
  10  -2   4 166.832 176.025   6
  10   2  -4 113.671 101.393  13
  10  -2  -4 16.7345 41.7479   6
 -10   2  -4 248.717 218.081  12
 -10  -2   4 22.8983 38.3885  12
  10   2  -4 109.569 198.788  11
 -10  -2   4 73.4420 36.9183   5
  10  -2   4 194.740 162.817   1
 -10   2  -4 124.713 123.014  20
 -10   2  -4 365.412 332.943   5
 -10  -2  -4-21.0739 53.9848  19
 -10  -2   4 113.673 127.956   2
 -10   2  -4-77.8224 107.790  10
 -10  -2   4 32.7891 65.4710  19
  10   2   4-26.7376 108.412   1
 -10   2  -4 32.3666 202.019  19
 -10   2   4 114.189 184.150   5
 -10   2   4 17.0381 28.7924  19
  10   2  -4-152.135 165.669   9
  10   2   4 106.730 165.569  18
  10  -2  -4-58.1128 116.400   1
  10   2  -4-124.431 201.480  18
 -10  -2   4-36.5518 127.237   4
 -10  -2  -4-59.0576 87.4570  17
  10   2   4 383.309 304.785   8
 -10  -2   4 181.714 255.973  17
 -10   2  -4 168.199 208.820   4
  10   2  -4 168.114 185.516   8
  10  -2   4 12.5207 332.194   8
  10  -2  -4-56.4723 288.114   8
 -10   2   4 51.6462 140.900   4
  10   2   4 4.80405 39.7742  16
 -10   2   4 48.8552 95.3602   2
  10   2   4 78.3800 166.426  14
  10   2  -5 30.0641 131.959  14
  10  -2   5 201.515 153.587  14
  10  -2  -5 200.270 185.469  14
  10  -2   5 259.755 199.840   6
  10   2  -5 167.020 197.943   1
 -10   2  -5 98.1032 153.371   3
  10   2  -5 30.0613 45.4038  13
  10  -2   5 252.090 195.773   1
 -10   2  -5-232.890 180.838  12
  10  -2  -5 13.2774 48.8804   6
  10   2  -5 405.830 299.290  11
 -10  -2   5-83.8651 219.759   5
 -10   2  -5 23.9693 94.2655   5
 -10   2  -5 133.417 134.538  20
  10   2   5 205.672 297.576   1
 -10  -2  -5 60.8965 159.452  19
 -10  -2   5 32.1304 117.749  19
 -10   2  -5 283.641 281.104  19
 -10  -2   5 138.344 159.350   2
 -10   2   5 101.976 145.390   5
 -10   2   5 106.384 109.744  19
  10   2  -5-41.2990 8.64379   9
  10   2   5 139.734 217.635  18
  10   2  -5 26.8199 72.3509  18
 -10  -2   5 289.974 289.389   4
 -10  -2  -5-39.6188 132.850  17
  10   2   5 104.822 160.046   8
 -10  -2   5 72.7863 181.989  17
  10  -2  -5 19.6332 46.6894   1
 -10   2  -5-114.361 153.230   4
  10   2  -5 296.777 243.411   8
  10  -2   5 28.1954 202.416   8
 -10   2   5 109.732 172.416   4
  10   2   5 215.692 158.768  16
  10   2   5 40.4033 129.272  14
 -10   2   5 134.198 121.467   2
  10   2  -6 345.828 287.002  14
 -10   2   6 360.728 240.960   2
  10  -2   6 382.255 317.989  14
  10  -2  -6 212.746 175.493  14
  10  -2   6 767.989 364.731   1
  10  -2   6 518.181 272.482   6
 -10   2  -6 146.245 160.437   3
  10   2  -6 491.238 220.699  13
  10   2  -6 478.662 332.947   1
 -10   2  -6 82.8856 106.853  12
  10   2  -6 449.805 278.726  11
 -10   2  -6 291.754 224.643   5
 -10  -2   6 175.226 264.025   5
 -10   2  -6 244.484 142.689  20
 -10  -2  -6 12.9924 73.2523  19
 -10   2  -6 290.327 195.550  19
 -10  -2   6 334.296 234.491  19
 -10   2   6 485.781 337.039   5
 -10   2   6 205.725 131.832  19
 -10  -2   6 466.239 295.123   2
  10   2  -6 218.312 166.076   9
  10   2   6 353.174 261.274  18
  10   2  -6 435.484 301.156  18
 -10  -2  -6 122.791 147.142  17
  10   2   6 345.216 454.959   8
 -10  -2   6 425.034 287.286   4
 -10   2  -6 239.724 239.029   4
 -10  -2   6-67.8709 172.777  17
  10  -2   6 467.258 359.970   8
  10   2  -6 421.540 204.294   8
  10  -2  -6 169.643 204.304   1
 -10   2   6 205.909 236.567   4
  10   2   6 173.383 150.261  16
 -10   2  -6 1214.24 636.802   7
 -10   2  -6 724.878 487.366  15
  10   2  -7 2.69532 68.7203  14
  10  -2   7 131.078 179.918  14
 -10   2   7 87.9407 101.625   2
  10  -2  -7 41.5012 34.3712  14
  10  -2  -7 144.612 229.605   1
  10  -2   7 166.443 148.049   6
  10   2  -7 393.456 218.764  13
 -10   2  -7-21.5907 7.81070   3
 -10   2  -7 285.581 251.686  12
  10   2  -7 88.3357 118.005   1
 -10   2  -7-58.7910 105.782   5
  10   2  -7 167.621 209.578  11
 -10  -2   7 124.878 206.108   5
 -10   2  -7-14.0161 61.5205  20
 -10  -2  -7 46.9385 219.094  19
 -10   2  -7 377.011 274.993  19
 -10  -2   7 101.051 136.399  19
 -10   2   7 30.8927 41.7140   5
  10   2   7 84.8489 238.599  18
  10   2  -7 143.728 129.245   9
 -10  -2   7 250.483 255.336   2
  10   2  -7 95.8396 37.2118  18
  10   2   7 170.025 324.905   8
 -10   2  -7 137.619 264.986   4
 -10  -2   7 224.561 282.099   4
 -10  -2   7 100.513 186.427  17
  10  -2   7 366.113 349.120   8
  10   2  -7 200.645 204.208   8
  10   2   7 28.9645 99.5988  16
 -10   2   7 113.174 107.601   4
 -10   2  -7 441.227 383.218   7
 -10   2  -7 373.822 483.701  15
  10  -2   7 310.909 240.033   1
  10   2  -8 153.487 170.536  14
  10  -2   8 531.183 287.710  14
 -10   2   8 342.763 262.314   2
  10  -2  -8 114.568 129.129  14
  10  -2   8 561.202 346.446   6
  10   2  -8 780.367 321.508  13
 -10   2  -8 71.9867 112.862   3
 -10   2  -8 122.747 229.290  12
  10  -2  -8 241.045 225.272   1
  10   2  -8 275.083 222.143   1
 -10   2  -8 17.3604 112.229   5
  10   2  -8 144.947 95.3823  11
 -10  -2   8 357.451 352.835   5
 -10   2  -8 107.267 82.1397  20
 -10  -2  -8 96.5258 179.246  19
 -10   2  -8-38.1444 208.647  19
 -10  -2   8 345.943 251.506  19
 -10   2   8 456.956 339.657   5
  10   2   8 230.456 205.650  18
  10   2  -8 12.3963 153.587   9
 -10  -2   8 483.407 332.704   2
  10   2  -8 514.636 329.637  18
  10   2   8 1120.88 709.369   8
 -10   2  -8 408.193 360.574   4
 -10  -2   8 304.293 330.364   4
 -10  -2   8 428.827 356.469  17
  10  -2   8 686.172 457.995   8
  10  -2   8 376.652 210.336  16
  10   2  -8 176.489 76.7914   8
  10  -2   8 848.540 369.198   1
  10   2   8 474.967 285.511  16
 -10   2  -8 424.443 402.809   7
 -10   2   8 26.4177 178.479   4
 -10   2  -8 383.007 412.197  15
  10   2  -9-17.2523 84.2003  14
  10  -2   9 47.9475 177.191  14
  10  -2   9-98.1236 119.065   6
  10  -2  -9-8.69622 40.4896  14
 -10   2  -9-37.9784 153.102  12
 -10   2  -9 129.881 212.462   3
  10   2  -9 75.1853 226.608   1
  10   2  -9-51.1134 146.260  11
 -10  -2   9 112.309 193.462   5
  10  -2  -9 107.429 165.318   1
 -10   2  -9-272.571 298.103  20
 -10  -2  -9 98.3476 222.774  19
 -10   2  -9-317.423 247.039  19
 -10  -2   9 160.107 144.374  19
 -10   2   9 114.120 207.763   5
  10   2  -9-302.707 297.505   9
  10   2  -9-65.7225 172.694  18
 -10  -2   9 42.6455 210.231   2
 -10   2  -9 26.9047 151.656   4
  10   2   9-22.3482 215.699   8
  10  -2   9-27.4949 31.9487   1
 -10  -2   9-53.9064 83.1879   4
 -10  -2   9 340.525 327.942  17
  10  -2   9 579.479 490.298   8
  10  -2   9 12.5084 135.811  16
  10   2  -9 63.8761 150.939   8
 -10   2  -9-219.133 331.248   7
  10   2   9 87.5341 139.588  16
 -10   2  -9 33.3557 160.757  15
  10   2 -10-48.5768 93.8666  14
  10  -2  10 842.340 770.777   1
 -10   2 -10 383.137 703.797  12
 -10   2 -10 103.443 520.672   3
  10   2 -10-154.222 190.247  11
 -10  -2  10 117.810 243.744   5
  10   2 -10-27.4244 164.030   1
 -10   2 -10-567.857 289.070  20
 -10  -2 -10 86.1825 227.523  19
 -10   2 -10 725.429 698.081  19
 -10  -2  10 145.270 129.734  19
  10   2 -10-234.392 333.592   9
  10  -2  10 1648.71 1026.12   8
  10   2 -10 74.6664 166.424  18
 -10   2 -10-569.203 562.190   4
 -10  -2  10 179.433 244.229   2
  10   2  10 530.843 594.017   8
 -10  -2  10-34.7745 57.3889   4
 -10  -2  10 66.4086 146.319  17
  10  -2  10 256.760 458.010  16
  10   2 -10-125.170 288.540   8
 -10   2 -10-467.282 520.038   7
  10   2  10 191.379 220.070  16
 -10   2 -10-225.835 456.715  15
  10   2 -11 41.3968 44.0051  14
 -10   2 -11 1332.56 491.420   3
  10   2 -11-49.0389 284.552  11
 -10  -2  11 46.3053 98.8329   5
 -10   2 -11-433.052 668.737  20
 -10  -2 -11-182.738 313.360  19
  10   2 -11 4.48234 167.936   1
 -10  -2  11-13.1944 38.0549  19
  10   2 -11-116.561 269.372   9
  10   2 -11-11.4874 81.6888  18
  10   2  11 339.851 349.861   8
 -10  -2  11 17.6579 93.0827   2
 -10  -2  11 57.5625 82.4607   4
 -10  -2  11-150.307 223.630  17
 -10   2 -11 1098.40 471.271   7
  10   2  11 131.161 255.825  16
 -10   2 -11 1180.15 517.688  15
  10   2 -12 133.482 140.444  14
  10  -2  12 643.611 436.977   6
 -10   2 -12 260.665 438.763  12
 -10   2 -12 214.445 253.080   3
  10   2 -12 105.698 121.974  11
 -10  -2  12 315.167 332.685   5
 -10  -2 -12-149.935 197.332  19
 -10   2 -12-14.1713 169.979  19
  10   2 -12 267.054 248.578   1
 -10  -2  12 123.062 92.9087  19
  10   2 -12-65.0805 204.737   9
  10   2 -12 83.3933 126.526  18
  10   2  12 500.605 515.991   8
 -10  -2  12 375.630 353.160   2
  10  -2  12 1120.05 711.698   8
 -10  -2  12 194.034 265.956   4
 -10  -2  12 203.008 227.420  17
  10  -2  12 459.134 301.666  16
 -10   2 -12-621.378 785.228  15
  10  -2  12 329.245 342.603  14
  10  -3   0 60.0703 64.0159  14
  10  -3   0 44.0474 141.564   6
 -10  -3   0-59.0639 232.988  19
  10  -3   0 118.068 111.752   1
 -10   3   0 75.5089 48.8206   5
 -10   3   0 62.7828 128.408  19
  10   3   0 151.208 184.819  18
  10   3   0-139.389 274.388   1
 -10  -3   0 887.051 478.831  17
  10   3   0-43.7492 343.184   8
  10  -3   0 21.9547 115.036   8
 -10   3   0 125.818 202.272   4
  10   3   0-161.593 259.965  14
 -10   3   0 20.7847 28.9215   2
  10   3   1 3205.69 927.823   1
  10   3  -1 3244.31 873.132   1
  10  -3   1 2114.43 590.141   1
  10  -3  -1 1720.49 533.950   1
 -10   3  -1 1010.92 349.530  12
 -10   3   1 1863.93 664.258   5
 -10   3  -1 1919.53 375.607   2
 -10   3   1 1659.54 392.509   2
 -10   3  -1 2422.99 665.350  19
 -10   3   1 2236.93 629.577  19
 -10  -3  -1 96.2217 190.600  19
 -10  -3   1 0.85833 141.108  19
 -10   3  -1 1735.01 599.831   5
  10   3   1 3054.39 765.941  18
  10   3  -1 3095.83 745.190  18
 -10   3  -1 2514.05 719.557   4
  10   3  -1 3221.78 923.208   8
 -10   3   1 2088.54 635.868   4
  10  -3   1 2019.01 681.675   8
 -10  -3  -1 195.118 228.343  17
  10   3   1 2798.98 887.674   8
 -10  -3   1 304.759 253.862  17
  10  -3  -1 1196.94 562.488   8
  10  -3   1 2412.73 556.319   6
  10  -3   1 2098.44 592.949  14
  10  -3  -1 1765.04 476.741   6
  10  -3  -1 1686.03 549.529  14
  10   3  -1 1638.85 596.837  14
  10  -3   2 297.485 230.314  14
  10  -3  -2 209.251 197.975  14
  10  -3   2 339.114 258.360   1
 -10   3   2 218.887 125.438   2
  10  -3   2 229.538 172.776   6
  10  -3  -2 215.324 158.154   6
 -10   3  -2 175.854 161.705  12
 -10  -3  -2 169.297 309.301  19
 -10   3  -2 137.626 73.1697   5
 -10  -3   2-31.8053 43.8618  19
  10   3   2 183.367 228.121   1
 -10   3   2 413.034 291.717   5
 -10   3  -2 314.765 242.160  19
 -10   3   2 220.786 188.599  19
  10   3   2 385.162 293.483  18
  10   3  -2 23.4223 210.451  18
 -10  -3  -2 37.9602 128.384  17
  10   3   2 623.145 487.316   8
 -10  -3   2 448.116 334.462  17
  10   3  -2 751.342 508.581   8
  10   3  -2 444.813 332.257   1
  10  -3   2 195.168 69.2642   8
 -10   3  -2 189.795 209.198   4
 -10   3  -2 343.522 151.329   2
  10  -3  -2 5.61622 211.748   8
 -10   3   2 394.247 278.619   4
  10  -3  -2 221.992 213.336   1
  10   3  -2 224.297 158.001  14
  10  -3   3 451.867 262.751  14
  10  -3  -3 419.859 293.530  14
 -10   3   3 224.068 120.640   2
  10  -3  -3 191.811 213.972   1
  10  -3   3 563.736 286.110   6
 -10  -3   3-74.8218 68.5695  12
  10  -3  -3 214.334 177.810   6
 -10   3  -3 229.789 186.523  12
  10   3   3 612.459 406.470   1
 -10   3  -3 299.119 257.314   5
 -10  -3  -3-53.9525 105.646  19
 -10  -3   3 70.2872 169.341  19
 -10   3  -3 395.092 226.304  19
 -10   3   3 438.461 296.735   5
 -10   3   3 395.628 268.157  19
  10   3   3 665.256 375.069  18
  10   3  -3 700.440 393.604  18
  10   3   3 703.880 489.889   8
 -10  -3  -3 279.754 310.835  17
 -10  -3   3-77.8285 171.895  17
  10   3  -3 588.989 365.967   8
 -10   3  -3 371.961 138.367   2
  10   3  -3 389.243 283.038   1
 -10   3  -3 407.753 333.387   4
  10  -3   3 409.753 271.925   8
  10  -3  -3-108.406 451.547   8
  10  -3   3 569.910 276.809   1
 -10   3   3 236.942 213.056   4
  10   3  -3 219.214 235.503  14
 -10   3  -4 25.9206 45.5839   3
  10  -3   4 403.757 264.435  14
  10  -3  -4 278.875 235.125  14
  10   3  -4 23.4226 100.180  13
  10  -3   4 406.152 245.983   6
 -10  -3   4 72.7648 41.3489  12
 -10   3  -4 54.5599 73.5123  12
  10   3  -4 1002.13 540.570  11
  10  -3  -4 221.531 214.526   1
  10   3  -4 772.873 285.693  10
 -10   3  -4 417.572 303.124   5
 -10  -3  -4 124.835 195.213  19
 -10  -3   4 19.5341 101.754  19
 -10   3  -4 199.701 190.507  19
 -10   3   4 353.688 253.822   5
 -10   3   4 195.039 110.674  19
  10   3   4 375.028 276.688  18
  10   3  -4 459.229 280.901  18
 -10   3  -4 227.357 108.165   2
  10   3   4 346.512 276.721   8
 -10  -3  -4 246.111 330.320  17
  10  -3   4 287.769 171.760   1
 -10  -3   4-19.9809 121.346  17
  10   3  -4 744.055 364.045   8
 -10   3  -4 218.604 163.081   4
  10  -3   4 380.949 332.634   8
  10   3  -4 347.536 279.796   1
 -10   3   4 198.247 137.639   4
  10   3  -4 148.724 243.314  14
  10  -3   5 54.9261 130.181  14
 -10   3  -5 7.14196 105.648   3
  10  -3  -5 110.638 149.450  14
  10   3  -5 34.8889 60.3241  13
  10  -3   5 1.87382 80.2956   6
 -10   3  -5-197.191 169.376  12
 -10  -3   5-1.96498 35.6997  12
  10   3  -5 275.422 287.534  11
 -10   3  -5 0.61617 129.771   5
  10   3  -5 212.296 185.997  10
 -10  -3  -5-120.534 360.005  19
 -10  -3   5 16.0703 74.9533  19
 -10   3  -5 128.117 150.521  19
  10  -3   5-107.543 140.437   1
 -10   3   5-4.23928 58.4601   5
  10   3   5-143.471 256.372  18
  10   3  -5-21.3891 39.4009  18
  10  -3  -5 51.6842 94.3657   1
  10   3   5 57.2861 274.772   8
 -10  -3   5 287.264 282.425  17
  10   3  -5-136.502 232.128   8
 -10   3  -5 0.56123 80.8027   4
  10  -3   5-156.417 208.355   8
  10   3  -5-115.537 185.986   1
 -10   3   5-279.157 295.053   4
  10   3  -5 48.5163 159.037  14
  10  -3   6 949.525 363.652  14
 -10   3  -6 145.630 135.912   3
  10  -3   6 1011.06 369.030   6
  10   3  -6 872.937 307.444  13
 -10   3  -6 594.716 346.341  12
 -10  -3   6 279.708 313.004   5
  10   3  -6 1664.52 587.437  11
  10  -3   6 1160.75 392.078   1
 -10   3  -6 972.669 361.982  20
 -10   3  -6 479.336 352.571   5
 -10   3  -6 730.161 253.213  10
 -10  -3  -6-108.740 203.459  19
 -10  -3   6 436.285 301.459   2
  10   3  -6 398.271 148.223  10
 -10  -3   6 355.823 226.825  19
 -10   3  -6 515.680 294.185  19
  10   3  -6 2366.82 656.254   9
  10   3  -6 830.576 385.069  18
 -10  -3   6-166.014 353.644   4
  10   3   6 699.308 515.018   8
 -10  -3   6 326.058 340.514  17
 -10   3  -6 609.381 398.594   4
  10   3  -6 987.290 433.749   8
  10  -3   6 923.899 480.303   8
  10   3  -6 659.262 386.320   1
  10   3  -6 490.485 319.815  14
  10   3  -7 136.152 232.404   1
  10  -3   7-17.5499 107.168  14
  10  -3   7 153.120 196.522   6
 -10   3  -7 4.95445 84.9600   3
  10   3  -7 99.3933 97.0494  13
  10  -3   7 107.779 178.513   1
 -10   3  -7 115.107 183.117  12
 -10  -3   7-59.5582 46.2588   5
  10   3  -7-0.35115 74.9359  11
 -10   3  -7-95.9513 165.174   5
 -10   3  -7 263.972 204.039  20
 -10  -3  -7-83.6469 272.157  19
 -10   3  -7 60.2901 83.4634  10
  10   3  -7-155.401 136.384  10
 -10  -3   7-33.1345 160.874   2
 -10  -3   7 344.337 275.882  19
 -10   3  -7-20.9442 119.605  19
  10   3  -7 310.447 260.618   9
  10   3  -7-57.1166 43.9634  18
 -10  -3   7-307.857 381.899   4
  10   3   7 150.117 290.110   8
 -10  -3   7-85.4980 277.003  17
 -10   3  -7 3.80709 16.2922   4
  10   3  -7 171.997 108.421   8
  10  -3   7 8.12630 17.0964   8
  10   3  -7 2.16437 84.2936  14
  10  -3   8 0.65737 62.0683  14
  10  -3   8 289.703 196.210   1
  10   3  -8 77.4260 162.448   1
  10  -3   8 114.161 164.913   6
 -10   3  -8 92.7088 80.3824   3
  10   3  -8 29.9087 83.2538  13
 -10   3  -8-30.4878 135.573  12
 -10  -3   8 199.916 282.395   5
  10   3  -8-55.0654 129.796  11
 -10   3  -8-50.8392 194.176   5
 -10   3  -8 72.0241 195.086  20
 -10  -3  -8-265.346 416.311  19
 -10   3  -8 29.9382 33.7674  10
  10   3  -8 125.725 94.4948  10
 -10  -3   8 55.8114 78.0470  19
 -10   3  -8-77.5327 57.7937  19
 -10  -3   8 145.621 241.430   2
  10   3  -8-154.670 132.031   9
  10   3  -8 52.6294 152.096  18
 -10  -3   8-45.5798 178.774   4
  10   3   8-26.9255 59.8184   8
 -10   3  -8 84.5400 59.7115   4
 -10  -3   8-148.062 223.258  17
  10  -3   8-141.726 208.907   8
  10   3  -8 18.4094 115.380   8
  10   3  -8 48.9636 109.775  14
  10  -3   9 52.2267 202.710  14
  10   3  -9-7.63695 31.3576   1
  10  -3   9-0.81131 213.820   6
  10   3  -9 65.5080 133.928  13
 -10   3  -9-104.661 258.308   3
 -10   3  -9 158.497 166.130  12
 -10   3  -9-122.990 190.113   5
 -10  -3   9-260.327 318.460   5
  10   3  -9 242.272 263.622  11
 -10   3  -9 83.0739 201.362  20
 -10  -3  -9-1163.25 618.056  19
 -10   3  -9-183.921 134.970  10
  10   3  -9 251.406 117.508  10
 -10   3  -9 386.110 514.107  19
 -10  -3   9-24.3817 124.530  19
  10   3  -9 515.664 247.491   9
 -10  -3   9 13.5210 145.722   2
  10   3  -9-81.7402 279.257  18
  10   3   9-54.7276 120.637   8
 -10  -3   9-234.826 312.462   4
 -10   3  -9-222.348 281.004   4
 -10  -3   9-70.6664 190.256  17
  10  -3   9 137.843 199.813   8
  10   3  -9-47.3561 136.882   8
  10  -3   9 103.271 266.903   1
 -10   3  -9 151.166 358.723   7
 -10   3  -9 317.986 380.099  15
  10   3  -9 77.3691 173.940  14
  10   3 -10 119.738 208.664   1
  10   3 -10 216.434 156.460  13
 -10   3 -10 1108.22 648.436   3
  10   3 -10 90.6653 382.772  11
 -10  -3  10 21.7175 117.412   5
  10   3 -10 88.1889 134.402  10
 -10  -3  10 70.1912 44.7756  19
  10   3 -10-114.166 106.458   9
 -10  -3  10 189.698 165.944   2
 -10   3 -10 974.191 888.019   4
  10   3 -10 379.686 388.371  18
 -10  -3  10-40.2347 179.553   4
 -10  -3  10 75.8185 180.176  17
  10  -3  10 1918.98 673.247   1
  10  -3  10 756.579 356.587  16
  10   3 -10-20.1248 183.914   8
 -10   3 -10 1568.40 861.498   7
 -10   3 -10 1913.82 938.614  15
  10   3 -10 75.2217 239.935  14
  10  -3  11 307.253 392.206  14
  10  -3  11 746.427 437.231   6
  10   3 -11 532.830 311.036  13
  10   3 -11 184.979 307.021   1
 -10   3 -11 205.014 266.279   3
 -10   3 -11 645.798 639.695  12
  10   3 -11 441.932 216.022  11
 -10  -3  11 344.778 343.475   5
 -10   3 -11 397.601 587.897  20
 -10   3 -11 2067.87 811.534  19
 -10   3 -11 164.330 317.016  10
  10   3 -11-762.150 489.719  10
 -10  -3  11 251.999 154.813  19
  10   3 -11-189.294 349.496   9
 -10  -3  11 436.235 278.058   2
  10   3 -11 411.072 315.152  18
  10  -3  11 285.293 262.810   1
 -10   3 -11-63.3162 182.036   4
 -10  -3  11 157.609 147.112   4
 -10  -3  11-35.9334 193.081  17
  10  -3  11 1841.67 931.773   8
  10  -3  11 254.015 229.018  16
  10   3 -11 19.5629 241.174   8
 -10   3 -11 740.357 473.311   7
 -10   3 -11 377.771 355.159  15
  10   3 -11 72.6990 11.1225  14
  10  -3  12 351.573 350.798  14
  10  -3  12 220.275 268.790   6
  10   3 -12 213.436 253.667  13
  10   3 -12 467.639 375.738   1
 -10   3 -12 287.787 307.042  12
 -10   3 -12 171.546 243.536   3
  10   3 -12 173.664 172.828  11
 -10  -3  12 117.458 205.612   5
 -10   3 -12 190.521 255.766  20
  10  -3  12 196.470 215.652   1
 -10   3 -12 366.785 314.764  19
 -10   3 -12-140.246 260.945  10
  10   3 -12-691.762 557.908  10
 -10  -3  12 189.345 177.412  19
  10   3 -12-362.918 367.772   9
 -10  -3  12 266.856 259.722   2
  10   3 -12 199.380 272.196  18
 -10   3 -12-219.454 341.600   4
 -10  -3  12-52.4779 210.640   4
 -10  -3  12 364.423 384.872  17
  10  -3  12 334.882 305.845   8
  10  -3  12 195.308 257.807  16
 -10   3 -12-128.691 127.491   7
 -10   3 -12 360.533 451.306  15
  10   3 -12-15.6444 117.761  14
  10   4   0 3883.18 1055.61   1
 -10   4   0 2986.20 787.980   5
  10  -4   0 1657.26 517.396   1
 -10   4   0 3132.16 744.978  19
 -10  -4   0-124.021 256.761  19
  10   4   0 3682.02 920.264  18
  10   4   0 4199.59 1099.90   8
 -10   4   0 2621.27 732.504   4
 -10  -4   0-217.436 186.288  17
  10  -4   0 983.764 404.629   8
  10  -4   0 1855.64 504.264   6
  10  -4   0 1914.69 570.362  14
  10  -4   1 209.638 203.050  14
  10  -4  -1 144.423 155.253  14
  10  -4   1 265.916 180.599   6
  10  -4  -1 175.482 139.469   6
  10   4   1 315.266 257.380   1
 -10  -4  -1 69.4906 151.343  19
 -10  -4   1 0.29609 63.5235  19
  10   4  -1 343.694 313.566   1
 -10   4  -1 568.136 321.384   5
 -10   4  -1 422.023 263.554  19
 -10   4   1 307.227 193.644  19
 -10   4   1 414.224 311.974   5
  10   4   1 629.323 450.219  18
  10  -4  -1 62.3029 73.6847   1
  10   4  -1 108.296 149.934  18
  10   4   1 380.134 345.222   8
 -10  -4  -1 306.189 341.904  17
  10   4  -1 587.341 406.481   8
 -10  -4   1 59.8706 238.274  17
  10  -4   1 235.980 152.637   8
  10  -4  -1-148.479 457.926   8
 -10   4  -1 270.726 237.663   4
 -10   4   1 187.700 152.082   4
  10  -4   1 301.746 243.402   1
  10  -4   2 970.840 428.255  14
  10  -4  -2 948.805 405.509  14
 -10   4  -2 680.875 163.477   2
  10   4  -2 2175.85 786.254   1
  10  -4   2 1317.08 427.788   6
 -10   4  -2 1699.83 600.127   5
 -10   4  -2 549.458 272.269  12
 -10   4  -2 1787.93 558.353  19
 -10   4   2 1564.74 489.296  19
 -10  -4  -2-195.421 382.782  19
 -10  -4   2-13.9231 101.828  19
  10   4  -2 2310.31 736.069  18
 -10   4   2 1033.41 490.323   5
  10   4   2 1862.35 667.738  18
  10  -4   2 1287.94 440.580   1
  10   4   2 1872.51 812.377   8
 -10  -4  -2-79.7596 166.915  17
 -10  -4   2 232.515 285.481  17
  10   4  -2 2540.32 713.618   8
  10  -4   2 997.770 485.793   8
  10  -4  -2 724.309 388.850   1
 -10   4  -2 1420.87 550.895   4
 -10   4   2 1084.29 449.206   4
 -10   4  -3 324.439 132.455   2
  10  -4   3 441.492 267.277  14
  10  -4   3 426.818 213.930   6
 -10   4  -3 143.837 117.583  12
  10  -4   3 581.980 260.235   1
 -10  -4  -3-288.181 408.921  19
 -10  -4   3-66.6620 166.846  19
 -10   4  -3 452.467 276.698   5
 -10   4  -3 443.642 273.719  19
  10   4   3 374.521 188.101  18
  10   4  -3 518.204 332.353  18
  10   4  -3 507.239 373.875   1
  10   4   3 646.833 461.386   8
 -10  -4   3-38.3967 72.1176  17
  10   4  -3 645.483 382.055   8
  10  -4   3 356.687 280.494   8
 -10   4  -3 615.965 367.892   4
  10  -4   4 354.874 290.058  14
  10  -4   4 448.891 251.426   1
  10  -4   4 177.885 171.417   6
 -10   4  -4 180.266 177.694  12
 -10  -4  -4-188.314 490.864  19
 -10  -4   4 128.908 209.179  19
 -10   4  -4 442.784 302.828   5
 -10   4  -4 236.633 199.373  19
  10   4  -4 423.796 268.105  18
  10   4   4 303.147 388.378   8
  10   4  -4 322.040 273.568   1
 -10  -4   4-122.506 37.6157  17
  10   4  -4 505.399 350.657   8
  10  -4   4 326.083 282.111   8
 -10   4  -4 437.727 332.445   4
 -10   4  -5 1.30637 185.236   3
  10  -4   5 1242.27 456.962  14
  10   4  -5 486.842 237.401  13
  10  -4   5 1046.79 431.624   6
 -10   4  -5 496.595 289.888  12
 -10  -4  -5-392.404 753.333  19
 -10   4  -5 1037.46 459.231   5
 -10  -4   5 171.176 255.433  19
 -10   4  -5 1067.09 458.555  19
  10   4  -5 1514.53 617.962  18
  10   4   5 799.779 499.675   8
 -10  -4   5 88.2820 204.778  17
  10   4  -5 1349.86 588.878   1
  10   4  -5 1869.75 599.078   8
 -10   4  -5 856.277 432.895   4
  10  -4   5 851.540 452.167   8
  10  -4   5 1048.03 379.399   1
 -10   4  -6-22.3931 112.669   3
  10  -4   6-20.3219 100.077  14
  10   4  -6-0.71166 91.3006  13
  10  -4   6-101.783 96.2488   6
 -10   4  -6-129.038 142.607  12
 -10   4  -6 65.3669 145.548   5
 -10  -4   6 250.432 229.637  19
 -10   4  -6-118.924 124.640  19
  10   4  -6-39.0964 88.8073  18
  10  -4   6-132.856 126.978   1
 -10  -4   6 108.384 269.064  17
  10   4  -6 61.7252 101.836   8
  10   4  -6-17.4801 80.2100   1
 -10   4  -6-102.925 123.572   4
  10  -4   6-94.1072 184.117   8
  10  -4   7 625.364 402.091  14
 -10   4  -7 231.335 197.062   3
  10   4  -7 859.892 344.017  13
  10  -4   7 463.875 313.264   6
 -10   4  -7 219.158 213.171  12
  10   4  -7 1650.27 766.898  11
 -10   4  -7 499.143 287.945   5
  10   4  -7 1890.54 573.234  10
 -10  -4   7 214.859 170.913  19
  10  -4   7 649.722 318.549   1
 -10   4  -7 754.289 362.591  19
  10   4  -7 700.049 446.272  18
 -10  -4   7 163.204 247.927  17
  10   4  -7 900.426 412.112   8
 -10   4  -7 477.295 343.734   4
  10   4  -7 536.154 423.988   1
  10  -4   7 622.053 358.719   8
  10  -4   8-94.8906 177.088  14
 -10   4  -8-48.9064 166.335   3
  10  -4   8 76.1332 183.734   6
  10   4  -8-57.7166 99.7643  13
 -10   4  -8 7.67895 241.888  12
  10   4  -8-169.014 252.930  11
  10  -4   8-19.4515 119.539   1
 -10   4  -8 55.5680 148.974   5
 -10  -4   8 207.235 305.431   2
  10   4  -8-90.0297 55.9964  10
 -10  -4   8 86.5113 94.2898  19
 -10   4  -8 58.8574 144.604  19
  10   4  -8-251.904 290.650  18
 -10  -4   8-134.440 280.633  17
 -10   4  -8 42.1589 100.210   4
  10   4  -8 91.1558 163.133   8
  10  -4   8-64.3127 315.640   8
  10   4  -8-41.3965 155.854   1
  10   4  -8-323.239 272.028  14
  10  -4   9 1492.18 559.661  14
  10  -4   9 916.329 408.033   6
 -10   4  -9 1074.05 625.568   3
  10   4  -9 1232.18 461.963  13
 -10   4  -9 3015.97 803.180  12
  10  -4   9 1684.65 528.982   1
  10   4  -9 1055.57 662.437  11
 -10   4  -9 797.295 402.219   5
 -10   4  -9 457.501 256.165  20
 -10   4  -9 2092.82 687.693  19
 -10   4  -9 950.373 351.343  10
  10   4  -9 1199.18 404.916  10
 -10  -4   9 676.309 507.660   2
 -10  -4   9 706.462 386.623  19
  10   4  -9 3251.61 954.782   9
  10   4  -9 797.806 475.631  18
 -10  -4   9 347.941 441.346  17
 -10   4  -9 862.198 612.710   4
  10   4  -9 596.404 327.840   8
  10  -4   9 1374.87 613.597   8
  10   4  -9 859.840 513.037   1
  10   4  -9 199.325 111.334  14
  10  -4  10 360.521 324.353  14
  10  -4  10 394.595 270.728   6
 -10   4 -10 327.436 357.989   3
  10   4 -10 476.894 269.897  13
 -10   4 -10 255.963 426.595  12
  10   4 -10 589.379 252.293  11
 -10   4 -10 531.435 423.479   5
 -10   4 -10 401.215 256.904  20
 -10   4 -10 347.831 211.387  10
  10   4 -10 486.235 297.889  10
 -10  -4  10 400.236 384.566   2
 -10  -4  10 95.5865 55.4330  19
 -10   4 -10 370.559 281.949  19
  10   4 -10 982.746 485.097   9
  10   4 -10 443.634 357.413  18
 -10   4 -10 84.2964 168.477   4
 -10  -4  10 245.723 311.405  17
  10  -4  10 295.723 352.321   8
  10   4 -10 339.391 179.547   8
  10   4 -10 396.225 312.213   1
  10   4 -10-234.200 320.175  14
  10  -4  10 610.692 309.566   1
  10  -4  11 414.363 345.007  14
  10  -4  11 455.483 246.202   6
  10   4 -11 508.591 294.310  13
 -10   4 -11 123.975 137.036   3
 -10   4 -11 131.521 44.7027  12
 -10  -4  11 98.0772 249.120   5
 -10   4 -11 162.179 93.9627   5
  10   4 -11 358.640 391.081  11
 -10   4 -11 375.295 259.329  20
 -10   4 -11 278.450 199.360  10
  10   4 -11 56.7796 11.3528  10
 -10   4 -11 94.8103 107.703  19
 -10  -4  11 98.2990 122.710  19
 -10  -4  11 198.537 272.201   2
  10   4 -11 106.157 190.009   9
  10   4 -11 277.109 258.129  18
 -10   4 -11 263.504 335.887   4
 -10  -4  11 151.993 248.074  17
  10  -4  11 694.354 449.632   8
  10  -4  11-398.723 544.439  16
  10  -4  11 477.683 287.967   1
 -10   4 -11 1157.57 733.591   7
 -10   4 -11 839.612 670.045  15
  10   4 -11 154.167 263.014   1
  10   4 -11-70.3340 207.701  14
 -10  -5   0-16.4024 204.835  19
  10   5   0 332.617 377.402  18
  10   5   0 380.873 321.599   8
 -10  -5   0 78.8142 165.485  17
  10  -5   1 748.120 376.234  14
 -10   5  -1 1309.45 476.279  19
 -10  -5  -1-345.998 638.971  19
 -10  -5   1-10.7725 134.601  19
 -10   5  -1 1456.89 541.054   5
  10   5   1 1202.06 547.663  18
  10   5  -1 1679.69 699.149  18
  10   5   1 1521.33 668.098   8
  10   5  -1 1755.61 705.824   8
 -10  -5   1 284.888 322.757  17
  10  -5   1 565.888 319.341   1
 -10   5  -1 1001.59 452.390   4
  10  -5   2 514.706 320.216  14
  10  -5   2 528.496 280.938   6
  10   5  -2 641.804 438.311   1
 -10  -5  -2-462.093 690.475  19
 -10  -5   2 173.979 255.935  19
  10  -5   2 411.941 270.519   1
 -10   5  -2 540.483 348.349   5
 -10   5  -2 747.720 346.757  19
  10   5  -2 705.943 457.267  18
  10   5   2 399.722 288.198   8
  10   5  -2 1103.07 589.587   8
 -10  -5   2 296.565 370.284  17
  10  -5   2-69.1533 384.812   8
 -10   5  -2 639.404 362.395   4
  10  -5   3 363.629 266.970  14
  10  -5   3 360.899 227.068   1
  10  -5   3 391.618 271.520   6
  10   5  -3 666.843 421.574   1
 -10  -5   3-13.0764 112.810  19
 -10   5  -3 607.862 372.296   5
 -10   5  -3 628.180 334.534  19
  10   5  -3 854.047 489.767  18
  10   5  -3 906.928 494.098   8
 -10  -5   3-15.0608 141.642  17
  10  -5   3 197.528 37.7010   8
 -10   5  -3 519.953 345.425   4
  10  -5   4 554.023 326.247  14
  10  -5   4 575.640 305.508   6
 -10   5  -4 684.107 305.107  12
 -10  -5   4-171.168 202.994  19
  10   5  -4 649.545 408.776   1
 -10   5  -4 721.501 363.377   5
 -10   5  -4 687.315 361.547  19
  10   5  -4 1213.57 538.723  18
  10   5  -4 1117.86 551.728   8
 -10  -5   4 87.9280 105.899  17
  10  -5   4 582.114 276.070   1
  10  -5   4 660.108 426.450   8
 -10   5  -4 906.011 469.142   4
  10  -5   5-8.74767 83.6369  14
  10  -5   5 32.0323 44.8354   6
 -10   5  -5-30.9758 87.7119  12
  10  -5   5 201.814 196.272   1
 -10  -5   5-164.886 68.0940  19
 -10   5  -5 5.60609 147.912   5
 -10   5  -5 60.4821 75.1002  19
  10   5  -5-24.6988 112.122   1
  10   5  -5 10.4314 184.592  18
 -10  -5   5 117.536 310.319  17
  10   5  -5-201.590 204.381   8
  10  -5   5-170.536 197.173   8
 -10   5  -5-236.159 218.984   4
  10  -5   6 1021.54 380.333  14
  10   5  -6 558.793 143.870  13
  10  -5   6 1104.09 427.992   6
  10  -5   6 663.746 298.575   1
 -10   5  -6 771.683 399.731  12
 -10  -5   6 175.870 272.080  19
 -10   5  -6 1173.89 494.986   5
 -10   5  -6 1473.78 495.243  19
  10   5  -6 1619.85 673.772  18
  10   5  -6 1077.98 572.145   1
 -10  -5   6 82.3848 256.664  17
  10   5  -6 2015.44 680.296   8
 -10   5  -6 1034.21 499.081   4
  10  -5   6 629.704 336.616   8
 -10   5  -7-10.3287 125.115   3
  10  -5   7 214.962 270.780  14
  10   5  -7 472.437 294.977  13
  10  -5   7 112.811 201.786   6
 -10   5  -7-20.6071 133.621  12
 -10   5  -7 137.786 187.436   5
 -10  -5   7 152.501 238.657  19
 -10   5  -7-57.7260 161.888  19
  10   5  -7 179.617 285.593  18
  10   5  -7 87.0437 352.643   1
 -10  -5   7 379.046 444.550  17
  10   5  -7 184.098 195.546   8
 -10   5  -7-112.086 212.262   4
  10  -5   7-162.646 208.640   8
  10  -5   7-84.2111 131.643   1
  10  -5   8 847.703 415.133  14
 -10   5  -8 350.860 293.756   3
  10   5  -8 1169.15 460.808  13
  10  -5   8 996.126 434.932   6
 -10   5  -8 557.622 311.751  12
 -10   5  -8 915.875 429.526   5
 -10  -5   8 225.059 291.480  19
 -10   5  -8 658.537 335.540  19
  10   5  -8 1180.80 561.747  18
  10   5  -8 852.814 462.559   1
  10  -5   8 793.735 295.116   1
 -10  -5   8-87.3537 147.332  17
  10   5  -8 1182.65 512.873   8
 -10   5  -8 584.634 413.210   4
  10  -5   8 737.910 451.678   8
  10  -5   9-49.3806 125.330  14
 -10   5  -9 37.5495 119.633   3
  10   5  -9-67.7247 27.0861  13
  10  -5   9-214.307 245.991   6
 -10   5  -9 25.6323 83.9859  12
  10   5  -9 594.434 727.483  11
 -10   5  -9 117.197 236.789   5
  10  -5   9 108.714 158.535   1
 -10  -5   9 33.0946 134.308  19
 -10   5  -9 15.2639 108.677  19
  10   5  -9 142.312 180.799  18
  10   5  -9-81.0444 164.131   1
 -10  -5   9-242.611 366.667  17
  10   5  -9-44.6724 102.703   8
 -10   5  -9 28.1066 127.192   4
  10  -5   9-73.4280 340.504   8
  10   5 -10 978.419 398.272  13
 -10   5 -10 462.278 316.754  12
  10   5 -10 1333.13 665.307  10
 -10  -5  10 337.450 257.401  19
 -10   5 -10 433.613 228.612  19
 -10  -5  10 56.8591 209.975  17
  10   6  -1 918.160 480.600  18
  10   6  -1 220.008 237.778   8
 -10  -6   2-455.093 488.424  19
  10   6  -2 156.321 409.411  18
  10   6  -2-36.5463 97.7612   8
 -10  -6   2 485.219 575.837  17
 -10  -6   3-317.073 330.998  19
  10   6  -3 660.926 530.320  18
  10   6  -3 1092.10 717.199   8
 -10  -6   3 180.496 214.312  17
  10  -6   4 177.805 187.245  14
  10  -6   4 191.210 208.049   6
 -10  -6   4-211.790 243.407  19
 -10   6  -4 30.1264 150.772   5
 -10   6  -4-314.206 309.392  19
  10   6  -4 36.3215 326.498  18
  10   6  -4 149.297 405.340   8
  10  -6   4 83.7852 150.361   1
 -10  -6   4 219.731 465.193  17
 -10   6  -4 66.8116 115.191   4
  10  -6   5 282.466 253.280  14
  10  -6   5 527.455 335.180   6
  10  -6   5 371.692 245.777   1
  10   6  -5 793.984 491.496   1
 -10  -6   5 280.002 290.476  19
 -10   6  -5 786.205 406.270   5
 -10   6  -5 738.556 309.888  19
  10   6  -5 1064.37 563.611  18
  10   6  -5 1510.23 624.785   8
 -10  -6   5-388.784 515.206  17
  10  -6   5-443.971 348.113   8
 -10   6  -5 506.464 362.743   4
  10  -6   6 238.850 269.460  14
  10  -6   6 220.153 252.566   6
 -10   6  -6 279.834 224.180  12
  10   6  -6 431.714 425.430   1
 -10  -6   6 347.287 283.823  19
 -10   6  -6 460.195 280.907   5
 -10   6  -6 462.215 288.967  19
  10   6  -6 464.837 433.684  18
  10   6  -6 589.315 346.197   8
 -10  -6   6 25.5161 189.152  17
  10  -6   6 523.294 260.912   1
 -10   6  -6 528.972 377.375   4
  10  -6   6 168.404 89.4978   8
  10  -6   7 529.849 270.699  14
  10  -6   7 279.916 252.299   6
 -10   6  -7 597.682 357.143  12
  10  -6   7 343.764 200.888   1
 -10  -6   7-233.944 337.973  19
  10   6  -7 584.481 475.188   1
 -10   6  -7 579.449 377.330   5
 -10   6  -7 684.653 367.437  19
  10   6  -7 767.215 493.607  18
 -10  -6   7-38.7968 183.334  17
  10   6  -7 966.459 506.802   8
 -10   6  -7 588.619 392.890   4
  10  -6   7 361.834 312.636   8
 -10   6  -8 43.0014 199.588   3
  10  -6   8 282.289 304.088  14
  10   6  -8 100.895 208.584  13
  10  -6   8 401.583 214.869   1
  10  -6   8 471.506 324.748   6
 -10   6  -8 618.986 356.336  12
 -10   6  -8 543.741 343.383   5
  10   6  -8 275.048 349.283   1
 -10   6  -8 273.732 270.160  19
  10   6  -8 454.252 509.940  18
 -10  -6   8-41.8255 189.955  17
  10   6  -8 811.404 505.019   8
 -10   6  -8 464.065 305.380   4
  10  -6   8 366.436 323.901   8
 -10  -7   4-755.897 620.516  19
  10   7  -4 306.063 324.503  18
  10   7  -4 607.180 443.498   8
 -10  -7   4 262.148 557.756  17
 -10  -7   5 304.468 216.271  19
  10   7  -5 742.229 529.435  18
  10   7  -5 1102.61 561.737   8
 -10  -7   5 337.062 501.435  17
  11   0   0-71.3051 124.014  14
  11   0   0-142.818 151.121   6
  11   0   0 18.6473 87.1276   1
 -11   0   0-10.5474 40.6111  12
 -11   0   0-78.6555 156.105   5
  11   0   0-1.06256 78.0097  11
 -11   0   0 124.539 167.287   2
 -11   0   0 96.7101 192.759  19
  11   0   0-58.2300 184.345  18
 -11   0   0 6.75495 125.541   4
 -11   0   0 43.2879 110.999  17
  11   0   0-2.69900 279.464   8
 -11   0   0-103.698 189.302   7
 -11   0   0-82.3077 184.050  15
  11   0   1 208.895 221.782  14
  11   0  -1 246.954 284.638  14
  11   0   1 248.643 201.927   6
  11   0  -1 165.249 131.485   6
  11   0   1 212.617 211.244   1
 -11   0  -1 129.495 118.846  12
  11   0  -1 195.583 227.101   1
 -11   0   1 8.56967 71.1020  12
 -11   0  -1 112.581 116.434   5
 -11   0   1 286.939 343.120   5
  11   0   1 61.7495 25.3312  11
  11   0  -1-103.094 173.362  11
 -11   0  -1 99.9674 75.9155  19
 -11   0   1 283.807 229.952   2
 -11   0   1 208.611 243.660  19
  11   0   1 246.560 169.892  18
  11   0  -1 51.9755 51.6137  18
 -11   0  -1 177.684 226.141   4
 -11   0   1 247.462 285.283   4
 -11   0  -1-15.3610 67.0094  17
 -11   0   1 31.4758 97.5029  17
  11   0   1 326.432 333.137   8
  11   0  -1 288.059 321.732   8
 -11   0  -1-302.927 372.420   7
 -11   0   1 192.775 229.889   7
 -11   0  -1-17.0254 154.941  15
 -11   0   1 98.4676 133.644  15
  11   0   2 169.670 216.772   1
  11   0   2-27.7267 107.977  14
  11   0  -2 60.9586 111.824  14
  11   0   2 34.0144 40.6399   6
 -11   0  -2 35.0908 42.3851   3
  11   0  -2-20.3099 78.7050   6
  11   0  -2-31.2846 43.8191  13
 -11   0  -2-49.6429 71.4033  12
 -11   0   2-88.1071 107.997  12
 -11   0  -2-87.9498 177.481   5
  11   0  -2-45.3559 71.8754   1
  11   0   2 65.0458 66.0490  11
 -11   0   2 102.684 200.908   5
  11   0  -2-83.1573 180.191  11
 -11   0  -2-213.754 180.194  19
 -11   0   2 11.2463 178.507  19
 -11   0   2-9.40889 6.31009   2
  11   0   2 46.3478 58.4276  18
  11   0  -2-67.1054 168.620  18
 -11   0  -2 15.0384 155.784   4
 -11   0   2 154.575 189.877   4
 -11   0  -2-283.549 218.504  17
 -11   0   2-26.8195 118.091  17
  11   0   2 19.0828 196.889   8
  11   0  -2-170.431 255.890   8
 -11   0  -2-177.509 397.562   7
 -11   0   2 333.076 305.676   7
 -11   0  -2-234.795 431.893  15
 -11   0   2 460.263 390.019  15
  11   0   3 1433.77 573.602  14
  11   0  -3 1110.49 476.231  14
  11   0   3 1116.37 440.757   6
  11   0  -3 1354.68 272.017  13
 -11   0  -3 186.631 183.998   3
 -11   0  -3 156.083 98.5357  12
 -11   0  -3 622.690 445.282   5
  11   0   3 1116.81 308.160  11
  11   0  -3 19.1667 185.130  11
 -11   0   3 900.206 435.860   5
  11   0  -3 1267.83 504.362   1
 -11   0  -3 491.923 248.170  19
 -11   0   3 911.007 440.583  19
 -11   0   3 956.875 387.477   2
  11   0   3 1026.67 339.260  18
  11   0  -3 816.763 380.085  18
 -11   0  -3 269.723 202.648   4
 -11   0  -3-1.78375 109.644  17
 -11   0   3 719.279 406.090   4
  11   0   3 1386.94 619.812   8
 -11   0   3 87.5645 124.816  17
  11   0  -3 1350.16 583.485   8
 -11   0  -3-80.4816 368.478  15
  11   0   3 1469.82 572.590   1
  11   0  -3 1280.72 348.775   6
  11   0   4 92.1456 131.892  14
  11   0  -4-150.864 213.386  14
  11   0   4 87.8908 179.812   6
  11   0  -4-86.5299 111.113   6
  11   0  -4 510.426 200.500  13
 -11   0  -4 72.6482 103.562   3
 -11   0  -4 116.440 125.530  12
  11   0   4 73.6159 53.3697  11
  11   0  -4 39.4301 36.4744  11
 -11   0   4-185.777 289.706   5
 -11   0  -4-21.8636 127.772  19
  11   0  -4 107.149 211.358   1
 -11   0   4-93.9161 74.3185  19
  11   0   4-11.4952 70.7391  18
  11   0  -4-87.4603 215.614  18
 -11   0   4 75.5270 134.772   2
 -11   0  -4-155.854 296.369   4
 -11   0  -4-128.026 168.288  17
  11   0   4-267.232 381.206   8
 -11   0   4-88.7581 208.057   4
 -11   0   4-87.8675 203.231  17
  11   0  -4-51.5246 196.069   8
  11   0   4-70.3120 175.412   1
  11   0   5 5212.07 1076.73   1
 -11   0  -5 919.400 418.926  12
 -11   0  -5 248.542 206.471   3
  11   0  -5 3503.43 855.628   1
 -11   0   5 3457.09 951.278   5
 -11   0   5 3346.57 677.647   2
  11   0  -5 639.937 346.798  11
 -11   0   5 3002.52 750.913  19
 -11   0  -5 865.901 489.427  19
  11   0   5 3772.81 664.856  18
  11   0  -5 1712.00 613.034  18
 -11   0   5 2541.41 809.746   4
  11   0   5 5281.12 1198.22   8
  11   0  -5 2910.21 803.128   8
 -11   0  -5 692.472 272.986   4
 -11   0   5 1549.78 652.475  17
  11   0   5 1995.49 430.522  16
  11   0   5 4048.80 840.315   6
  11   0  -5 3928.17 558.294   6
  11   0   5 4966.95 1096.56  14
  11   0  -5 2956.62 813.857  14
  11   0   6-25.1318 160.109   6
  11   0  -6 205.903 205.200  14
  11   0  -6-17.6904 49.0698   6
 -11   0  -6 70.1797 210.453  12
 -11   0  -6 135.610 183.542   3
  11   0  -6-258.867 283.968  11
 -11   0   6-229.453 261.634   5
 -11   0  -6 78.5081 147.533  19
 -11   0   6-315.402 232.239  19
  11   0   6-30.7457 162.725  18
  11   0  -6-4.82396 102.177  18
  11   0   6-70.9252 128.202   1
  11   0  -6 57.5097 185.361   1
 -11   0   6-15.5151 116.144   2
 -11   0  -6-9.21043 58.2870  17
  11   0   6-50.2595 262.186   8
 -11   0   6-140.960 215.573  17
 -11   0   6 62.6653 197.177   4
  11   0   6 116.858 163.853  16
  11   0  -6 151.354 242.033   8
  11   0   6 37.4030 156.135  14
  11   0   7 4439.30 986.225   1
  11   0  -7 2633.36 788.015   1
 -11   0   7 2868.02 890.843   5
 -11   0   7 3407.37 728.128   2
  11   0  -7 467.833 215.307  11
 -11   0  -7 281.483 280.756  19
  11   0   7 3494.38 604.984  18
 -11   0   7 2740.00 778.504   4
  11   0   7 4632.33 1105.98   8
  11   0  -7 1198.98 542.899  18
 -11   0   7 1636.42 644.427  17
  11   0   7 3969.31 690.447  16
  11   0  -7 1384.06 517.623   8
  11   0   7 3156.76 782.055   6
  11   0   7 4325.04 1004.91  14
  11   0  -7 2374.44 662.157  14
  11   0   8 943.792 615.256   6
  11   0  -8 137.818 202.035  14
  11   0  -8-90.9606 251.394  11
 -11   0   8 65.3943 159.314   5
 -11   0  -8 1571.22 809.496  19
  11   0   8 1176.41 653.988   1
 -11   0   8-26.0543 102.788  19
  11   0  -8-61.3426 148.774  18
  11   0   8 1795.45 1019.27   8
 -11   0   8-13.1975 74.6464   2
 -11   0   8-12.1469 319.902  17
 -11   0   8-107.366 233.451   4
  11   0  -8-142.009 284.720   1
  11   0   8 167.160 155.023  16
  11   0   8 1602.95 694.984  14
  11   0  -9 844.978 505.677  14
  11   0   9 1942.25 706.962   1
  11   0  -9 26.4141 167.658  11
 -11   0   9 1596.09 529.308  19
 -11   0   9 2263.28 810.123   5
 -11   0  -9 162.858 330.420  19
  11   0  -9 705.267 428.239  18
  11   0   9 3972.40 1149.26   8
 -11   0   9 995.180 491.543  17
 -11   0   9 1984.92 610.374   2
  11   0   9 2530.24 628.019  16
 -11   0   9 2057.39 623.837   4
  11   0  -9 1361.68 555.201   1
  11   0   9 2181.98 683.372   6
  11   0   9 2977.16 927.181  14
  11   0 -10-123.870 143.251  14
  11   0 -10-625.147 540.048  11
 -11   0  10 287.773 291.108   5
 -11   0 -10 405.015 445.717  19
 -11   0  10-238.190 257.455  19
  11   0 -10-52.1458 179.599  18
  11   0  10 781.732 547.991   8
 -11   0  10-96.8233 241.246  17
 -11   0  10 96.7481 206.651   2
 -11   0  10-63.7256 110.171   4
  11   0  10 55.6294 155.973  16
  11   0  10-14.2475 69.0854  14
  11   0  10-100.417 181.678   6
  11   0 -10 301.364 319.058   1
  11   1   0-24.0772 73.3781  14
  11   1   0-51.8455 137.303   6
  11  -1   0 113.276 84.6762  14
  11  -1   0 5.02440 67.8658   6
 -11  -1   0 49.5150 50.7175  12
 -11   1   0 46.3628 57.5614  12
 -11  -1   0-11.8927 91.5756   5
  11   1   0 115.198 111.314  11
 -11   1   0 155.537 179.865   5
  11  -1   0-32.5839 56.2288   1
 -11  -1   0 239.891 304.563  19
 -11   1   0 75.4934 170.529  19
 -11   1   0 170.262 152.350   2
  11   1   0-115.858 207.552  18
  11  -1   0-39.2792 6.73766  18
 -11  -1   0-18.6003 144.917   4
 -11  -1   0-341.734 310.330  17
 -11   1   0 119.185 234.533   4
  11   1   0 13.9754 103.265   8
 -11   1   0-60.1342 32.0816  17
  11  -1   0 106.365 221.339   8
  11   1   0 139.949 132.577   1
  11   1   1 254.957 280.545  14
  11   1  -1 183.663 236.662  14
  11   1   1 3.06348 67.8145   6
  11   1  -1 96.6337 86.8587   6
  11   1  -1 255.767 236.319   1
  11  -1   1 237.095 245.682  14
  11  -1  -1 39.6468 61.3277  14
  11  -1   1 217.783 162.201   6
  11  -1  -1 201.926 192.219   6
  11  -1  -1 78.6150 47.4832  13
 -11  -1  -1-16.2114 113.350  12
 -11  -1   1 115.194 104.379  12
 -11   1  -1-51.1752 20.2738  12
 -11   1   1 32.8525 50.0266  12
 -11  -1  -1-66.8411 381.703   5
  11  -1   1 193.348 213.555   1
  11   1   1 295.282 191.870  11
 -11  -1   1 60.6400 236.797   5
  11   1  -1 109.378 25.2920  11
 -11   1  -1 209.748 266.430   5
 -11   1   1 281.116 248.205   5
 -11   1  -1 160.233 169.152   2
 -11  -1  -1 119.383 277.798  19
 -11  -1   1-135.223 201.977  19
 -11   1  -1 35.9420 18.3959  19
 -11   1   1 79.1551 152.069  19
  11  -1  -1 245.916 266.400   1
  11   1   1 30.2192 53.0615  18
  11   1  -1-19.4981 144.103  18
 -11   1   1 156.773 188.397   2
  11  -1   1-0.35589 114.503  18
  11  -1  -1 50.6835 29.3126  18
 -11  -1  -1-103.828 281.229   4
 -11  -1   1 60.0214 65.1363   4
 -11  -1  -1-25.5176 93.4694  17
 -11  -1   1 52.3962 92.9515  17
 -11   1  -1 155.415 209.915   4
  11   1   1 162.369 37.4433   8
  11   1  -1 177.511 202.159   8
 -11   1   1 140.720 239.148   4
 -11   1  -1-63.2140 103.790  17
 -11   1   1-47.2796 105.243  17
  11  -1   1-49.2932 286.515   8
  11  -1  -1 413.865 398.060   8
  11   1   1 215.892 261.370   1
  11   1   2 26.8041 110.982   6
 -11   1  -2-149.644 199.787   3
  11   1  -2 144.499 136.989  14
  11   1  -2 116.976 86.8411   6
  11  -1   2 158.095 182.351  14
  11  -1  -2 254.146 231.469  14
  11  -1   2 143.182 128.441   6
  11   1  -2 205.183 202.127   1
  11  -1  -2 160.455 133.585   6
 -11  -1  -2-36.0208 24.2129   3
 -11  -1  -2 423.917 272.522  12
  11  -1   2 179.796 151.931   1
 -11   1  -2 29.0345 53.4190  12
 -11  -1   2 64.5982 80.8646  12
  11   1   2 357.292 182.947  11
 -11  -1   2 398.020 344.484   5
  11   1  -2 2.29669 42.0388  11
 -11   1  -2 77.5321 64.8852   5
 -11   1   2 273.749 356.799   5
 -11  -1   2 195.762 221.207   2
 -11  -1  -2 85.8681 250.455  19
 -11  -1   2 185.650 237.400  19
 -11   1  -2 209.813 255.125  19
 -11   1   2 107.495 202.829  19
  11   1   2 167.276 193.960  18
  11   1  -2 51.1673 48.5667  18
 -11  -1  -2-496.798 487.887   4
  11  -1   2 68.5738 32.0329  18
  11  -1  -2 168.495 186.907   1
  11  -1  -2 67.4995 96.8993  18
 -11   1   2 193.055 180.804   2
 -11  -1   2 201.643 249.883   4
 -11  -1  -2 181.893 216.090  17
 -11   1  -2 56.8753 112.676   4
 -11  -1   2-289.598 286.613  17
  11   1   2 478.078 363.107   8
 -11   1  -2-44.5083 127.433  17
  11   1  -2 122.663 160.559   8
 -11   1   2-75.2623 153.923  17
 -11   1   2 127.984 153.659   4
  11  -1   2 136.734 74.4732   8
  11   1   2 370.840 321.305   1
  11  -1  -2 61.9971 130.239   8
 -11   1  -2 514.128 455.033   7
 -11   1  -2 429.119 442.369  15
  11   1   2 190.205 214.559  14
  11   1  -3-66.3896 120.113  14
  11  -1   3 141.997 156.844  14
  11   1  -3 34.6725 90.3510   6
  11  -1  -3 24.2039 130.335  14
 -11   1  -3-21.9907 84.7871   3
  11  -1   3-58.6863 66.6780   6
  11  -1   3 138.073 209.164   1
  11   1  -3 39.1673 21.1517  13
  11  -1  -3 42.9019 103.806   6
  11   1  -3 99.7797 224.870   1
 -11  -1  -3 498.558 376.685  12
 -11  -1  -3 90.9027 146.331   3
 -11   1  -3 95.6008 160.606  12
 -11  -1   3-34.6656 61.6116  12
  11   1   3 696.790 303.320  11
 -11   1  -3 46.7144 73.8660   5
 -11  -1   3 240.212 306.641   5
  11   1  -3 123.807 172.004  11
 -11   1   3 69.8115 173.469   5
 -11  -1  -3 226.255 315.422  19
 -11  -1   3-59.5915 86.9276   2
 -11   1  -3 189.252 243.119  19
 -11  -1   3 68.5009 189.753  19
 -11   1   3 54.0845 72.1310  19
  11   1   3-5.82812 83.8726  18
  11   1  -3 67.0946 111.140  18
  11  -1   3-45.9855 149.657  18
  11  -1  -3-46.1294 78.4984  18
 -11  -1   3 154.854 265.965   4
 -11   1  -3-15.8205 139.129   4
 -11   1   3-88.9775 116.874   2
 -11  -1  -3-98.8257 167.109  17
  11   1   3 264.929 351.836   8
  11  -1  -3-93.5534 167.877   1
  11   1   3 188.181 269.165   1
 -11  -1   3 28.1578 147.309  17
 -11   1  -3-188.022 235.745  17
  11  -1   3 25.7879 149.501   8
 -11   1   3-52.6729 166.502  17
  11   1  -3-215.381 245.521   8
 -11   1   3-10.1590 100.296   4
  11  -1  -3-34.1799 226.127   8
 -11   1  -3 502.542 418.031   7
 -11   1  -3 144.954 258.983  15
  11   1   3-60.8115 158.099  14
  11   1   3-36.0183 108.380   6
  11   1  -4 1531.00 567.798  14
  11  -1   4 1672.22 602.884  14
  11   1  -4 775.638 254.925   6
  11  -1  -4 1522.40 541.912  14
  11   1  -4 1630.32 334.384  13
 -11   1  -4 116.291 88.8038   3
  11  -1   4 2183.04 675.009   1
 -11   1  -4 265.474 178.026  12
  11   1  -4 1678.96 612.114   1
 -11  -1  -4 137.831 190.946   3
 -11   1  -4 1024.17 555.835   5
  11   1  -4 1220.87 468.113  11
 -11  -1   4 1008.26 489.965   5
 -11   1   4 1194.58 527.610   5
 -11  -1  -4 123.022 217.119  19
 -11   1  -4 767.016 434.295  19
 -11  -1   4 637.447 332.024  19
 -11   1   4 1381.48 506.127  19
 -11  -1   4 1219.38 420.137   2
  11   1   4 1642.87 488.257  18
  11   1  -4 1419.64 536.646  18
  11  -1   4 681.584 277.109  18
  11  -1  -4 374.343 264.310  18
  11   1   4 2010.89 689.130   1
 -11   1  -4 935.101 491.156   4
 -11  -1   4 867.707 527.599   4
 -11  -1  -4 191.610 164.440  17
  11   1   4 2103.38 809.154   8
 -11  -1   4 360.414 301.918  17
 -11   1   4 1281.60 378.034   2
  11  -1   4 2293.17 769.110   8
 -11   1   4 478.735 339.380  17
  11   1   4 1351.21 321.076  16
  11   1  -4 1624.68 646.180   8
 -11   1   4 1033.44 484.962   4
  11  -1  -4 1049.44 508.784   8
  11  -1  -4 1153.46 484.211   1
 -11   1  -4 1200.33 623.756   7
 -11   1  -4 1011.46 522.502  15
  11  -1   4 1832.82 555.923   6
  11   1   4 2160.44 750.498  14
  11  -1  -4 1453.25 370.759   6
  11   1   4 1035.66 402.762   6
  11  -1   5 46.4569 90.5820  14
  11   1  -5 11.6528 139.853  14
  11   1  -5-12.5080 15.9225   6
  11  -1  -5-2.37351 41.0113  14
  11  -1   5 133.523 142.621   6
 -11   1  -5 10.0273 86.8559   3
  11   1  -5 187.064 123.205  13
  11  -1  -5 127.270 114.434   6
 -11   1  -5-86.4101 191.781  12
  11   1  -5-42.9740 54.8571   1
 -11   1  -5 93.2194 209.767   5
  11   1  -5-9.40791 133.744  11
 -11  -1   5 36.8398 120.696   5
 -11   1   5 148.381 255.000   5
 -11  -1  -5 130.127 339.208  19
 -11   1  -5-70.4580 242.258  19
 -11  -1   5-97.7223 164.373  19
 -11   1   5 150.309 203.581  19
 -11  -1   5-55.6531 107.289   2
  11   1   5 261.825 358.345   1
  11   1   5 141.885 221.232  18
  11   1  -5 1.01647 108.573  18
  11  -1   5 57.3551 75.1706  18
  11  -1  -5-21.7656 158.455  18
 -11   1  -5 89.2772 138.793   4
 -11  -1  -5 133.641 179.540  17
  11   1   5 354.602 309.547   8
 -11  -1   5 0.06603 10.1541   4
 -11  -1   5 3.30600 64.3358  17
  11  -1   5 76.4501 112.229   8
 -11   1  -5 81.8438 74.1681  17
 -11   1   5 104.065 252.548  17
 -11   1   5 58.5763 51.6467   2
  11   1  -5 327.176 288.037   8
 -11   1   5 25.2418 88.0281   4
  11   1   5 168.411 131.390  16
  11  -1  -5-83.1158 258.240   8
 -11   1  -5 37.1044 120.563   7
 -11  -1   5-384.209 369.298  15
 -11   1  -5-1.72989 175.669  15
  11  -1   5 68.6116 85.1336   1
  11   1   5-20.3730 248.108   6
  11  -1  -5 239.446 239.308   1
  11   1   5-10.4746 142.609  14
  11   1  -6 3769.35 579.028  13
  11   1   6 4175.12 1024.82   1
  11  -1   6 4936.88 961.685   1
 -11   1  -6 329.199 199.660   3
 -11   1  -6 670.666 380.173  12
  11   1  -6 3527.95 890.062   1
  11  -1  -6 2400.84 714.175   1
 -11   1   6 3092.77 886.751   5
 -11   1  -6 1041.22 421.951   5
 -11  -1   6 3350.90 739.282   2
  11   1  -6 1852.36 610.364  11
 -11   1   6 3141.55 681.121   2
 -11  -1   6 2455.94 797.656   5
 -11  -1   6 2384.52 631.222  19
 -11   1   6 3584.01 793.927  19
 -11  -1  -6-90.8691 239.286  19
 -11   1  -6 940.839 383.723  19
  11   1   6 3907.71 699.416  18
  11   1  -6 2722.34 759.945  18
  11  -1   6 1567.26 382.901  18
 -11  -1   6 1956.82 745.516   4
 -11   1   6 2792.16 827.864   4
  11   1   6 5120.22 1235.49   8
  11  -1   6 4582.88 1149.43   8
  11   1  -6 2843.83 761.430   8
  11  -1  -6 385.828 246.920  18
 -11   1  -6 745.887 495.706   4
 -11  -1   6 949.542 608.882  17
 -11   1  -6-402.465 221.687  17
 -11   1   6 1256.82 538.956  17
  11   1   6 4031.81 638.940  16
  11  -1  -6 835.605 403.604   8
 -11  -1   6 928.014 187.446   7
 -11   1  -6 1005.75 420.604   7
 -11  -1   6 1459.31 363.167  15
 -11   1  -6 1420.47 575.222  15
  11   1   6 2219.85 617.243   6
  11  -1   6 4445.88 859.176   6
  11   1   6 3649.15 991.932  14
  11  -1   6 3622.62 899.408  14
  11   1  -6 3282.78 779.115  14
  11  -1  -6 3016.77 515.718   6
  11  -1  -6 2485.96 677.531  14
  11  -1   7 103.441 422.862  14
  11   1  -7-77.6500 141.762  14
  11  -1   7 69.0741 351.559   6
  11  -1  -7 135.431 204.840  14
  11  -1  -7 82.2877 55.4954   1
  11  -1   7 856.460 858.053   1
  11  -1  -7 76.3205 106.529   6
 -11   1  -7 309.546 601.379  12
 -11   1  -7 475.509 480.057   3
  11   1  -7 5.26332 37.6060  11
 -11  -1   7-108.281 54.9911   5
  11   1   7 91.1571 130.536   1
  11   1  -7-72.3054 90.9272   1
 -11  -1  -7-240.270 378.255  19
 -11   1   7 82.2919 114.644   5
 -11   1  -7 800.377 660.665  19
 -11  -1   7-11.2068 47.1288  19
 -11   1   7-109.479 152.328  19
  11   1   7 70.1601 148.963  18
  11   1  -7-110.422 188.330  18
 -11  -1   7 94.8156 83.6578   2
 -11   1  -7-106.954 201.533   4
  11  -1  -7-86.4166 254.539  18
 -11  -1  -7-129.994 103.296  17
  11   1   7 435.703 370.891   8
 -11  -1   7 225.086 342.872   4
  11  -1   7 108.595 336.967   8
 -11  -1   7-257.733 304.418  17
 -11   1   7-206.175 314.371  17
  11  -1   7-228.291 194.289  16
  11   1  -7 35.5109 140.560   8
 -11   1   7 89.9646 205.313   4
 -11   1   7-30.5197 72.5194   2
  11   1   7 305.294 248.143  16
 -11   1  -7-617.474 437.124   7
 -11   1  -7-499.296 404.746  15
  11   1   7-391.979 408.976   6
  11   1   7-214.224 289.042  14
  11  -1  -8 1512.31 510.306  14
  11  -1   8 12792.5 1791.58   1
 -11   1  -8 2499.56 711.571  12
  11   1  -8 2296.16 731.309   1
  11  -1  -8 1180.58 508.959   1
 -11   1  -8 847.113 399.561   3
 -11   1   8 2118.83 582.476   2
  11   1  -8 992.954 526.301  11
 -11  -1   8 2084.88 767.533   5
 -11   1  -8 4641.09 1214.12  19
 -11   1   8 2122.74 596.005  19
 -11  -1  -8-51.2539 277.397  19
 -11   1   8 1649.16 694.907   5
 -11  -1   8 1797.36 543.285  19
  11   1   8 2499.91 544.559  18
  11   1  -8 1766.72 667.118  18
 -11   1   8 1919.39 688.696   4
  11  -1   8 8627.26 1701.58   8
  11   1  -8 1410.61 551.276   8
 -11   1  -8 582.472 377.742   4
  11  -1  -8 88.8523 190.689  18
 -11  -1   8 2315.77 639.226   2
  11   1   8 3064.53 1038.84   8
 -11  -1   8 1540.79 642.362   4
 -11  -1   8 721.583 404.537  17
 -11   1   8 467.050 427.762  17
  11  -1   8 3412.85 728.184  16
  11   1   8 2848.17 615.212  16
 -11   1  -8 1005.18 701.371  15
  11  -1   8 8861.46 1349.88   6
  11   1   8 2284.99 812.259  14
  11   1  -8 1218.13 579.659  14
  11   1   8 745.432 227.746   6
  11   1  -9 214.737 195.086  14
  11  -1   9 430.932 522.464   6
  11  -1  -9-18.5618 117.011  14
 -11   1  -9 26.4665 428.863  12
 -11   1  -9-197.761 176.582   3
  11  -1  -9 65.5268 73.4189   1
  11   1  -9 28.6762 232.740  11
 -11  -1   9 121.886 189.970   5
 -11  -1  -9-116.324 307.989  19
 -11   1  -9 595.287 561.801  19
 -11   1   9-30.4342 50.1332   5
 -11  -1   9 83.9960 123.297  19
 -11   1   9-348.335 358.031  19
  11  -1   9 735.720 546.589   1
  11   1  -9 229.323 272.915   1
  11   1  -9 41.6965 114.418  18
  11  -1  -9-174.682 327.175  18
 -11  -1   9 100.318 172.152   2
  11   1   9 164.955 412.640   8
  11  -1   9 1334.34 946.758   8
 -11  -1   9-44.8030 130.420   4
 -11  -1   9-90.9347 217.555  17
 -11   1   9-697.205 547.468  17
  11  -1   9 27.5842 270.602  16
 -11   1   9-49.2396 144.094   4
  11   1  -9-232.352 340.633   8
  11   1   9 57.2971 103.818  16
 -11   1   9 9.22994 28.2705   2
  11   1   9-313.649 448.606  14
  11  -1   9 188.216 587.403  14
  11  -1  10 1535.00 558.329   6
  11   1 -10 360.889 348.275  14
  11  -1 -10 480.772 330.608  14
 -11   1 -10 294.047 306.716   3
  11   1 -10 462.018 305.635  11
  11  -1 -10 329.164 254.648   1
 -11  -1  10 913.493 504.214   5
  11  -1  10 887.902 409.310   1
 -11  -1 -10 25.2443 164.062  19
 -11   1 -10 217.655 331.531  19
 -11   1  10 879.019 508.971   5
 -11  -1  10 813.633 372.796  19
  11   1 -10 1105.20 522.703   1
  11   1 -10 717.827 446.722  18
  11  -1 -10-117.185 443.620  18
  11   1  10 1721.96 791.795   8
 -11  -1  10 895.084 451.932   2
  11  -1  10 1493.75 675.962   8
 -11  -1  10 1045.01 510.167  17
 -11  -1  10 964.058 466.771   4
 -11   1  10-307.329 458.271  17
  11  -1  10 1349.24 497.471  16
 -11   1  10 799.258 458.671   4
  11   1  10 1243.08 461.127  16
 -11   1  10 990.121 424.532   2
  11  -1  10 1752.85 592.478  14
  11  -2   0 144.624 186.024  14
  11  -2   0 196.940 176.434   6
 -11  -2   0 307.777 204.186  12
 -11   2   0 27.1888 81.4463  12
  11   2   0 983.755 453.445  11
 -11   2   0 35.7665 99.1196   5
 -11  -2   0 30.4835 120.641  19
 -11   2   0 71.5934 25.9447  19
  11   2   0 221.509 231.113  18
 -11   2   0 240.211 156.238   2
 -11  -2   0 234.247 287.823  17
  11   2   0 395.869 429.681   8
  11  -2   0 46.8795 61.4426   1
  11   2   0 325.371 260.749   1
 -11   2   0 158.411 120.851   4
  11  -2   0 165.765 158.558   8
  11   2   0 242.200 236.729  14
  11  -2   1 164.736 184.597  14
  11  -2  -1 13.3196 104.014  14
  11  -2   1-14.4560 61.1315   6
  11  -2  -1 245.720 181.399   6
 -11  -2   1 76.8960 124.379  12
 -11   2  -1 7.66948 32.7308  12
  11   2  -1 529.671 338.928  11
 -11   2  -1-4.67568 159.435   5
 -11   2   1 260.695 263.184   5
 -11  -2  -1 199.801 253.248  19
 -11  -2   1 84.6996 98.2439  19
 -11   2  -1 39.0857 107.701  19
 -11   2   1-14.3071 85.3055  19
  11   2  -1 57.4953 26.9801   9
  11   2   1 196.735 224.106  18
  11   2  -1 168.794 218.987  18
  11  -2   1 18.1344 19.0115   1
 -11  -2   1-412.741 469.288   4
 -11   2  -1 125.318 131.703   2
 -11  -2  -1 64.5749 145.041  17
  11   2   1 99.2146 153.409   1
 -11  -2   1-38.3249 27.6180  17
  11   2   1 354.283 371.472   8
  11   2  -1 185.525 186.453   8
 -11   2   1 221.744 180.237   2
 -11   2  -1 84.8312 206.909   4
 -11   2   1 281.409 247.036   4
  11  -2   1 147.715 125.475   8
  11  -2  -1 192.038 296.366   8
  11   2  -1-97.8263 235.673   1
  11  -2  -1 243.522 251.809   1
  11   2   1 158.629 253.873  14
  11   2  -1 71.4008 145.334  14
  11  -2   2-4.69354 110.151  14
  11  -2  -2 118.780 177.012   1
  11  -2  -2 114.544 194.071  14
  11  -2   2 285.790 218.351   6
  11  -2  -2 264.248 213.623   6
 -11  -2   2 127.839 107.882  12
 -11   2  -2 67.1152 61.0622  12
 -11  -2   2-95.9007 282.103   5
  11   2  -2 702.038 389.544  11
 -11   2  -2 242.387 294.044   5
 -11   2   2 381.856 325.018   5
 -11  -2  -2-10.7797 78.6633  19
 -11  -2   2-2.57923 233.238  19
  11  -2   2 299.201 287.212   1
 -11   2  -2 66.8119 83.7754  19
 -11   2   2 125.889 203.879  19
 -11   2  -2 107.800 101.106   2
  11   2  -2-165.066 170.119   9
  11   2   2 442.806 265.854  18
  11   2  -2 84.9423 207.007  18
 -11  -2   2-572.166 382.431   4
  11   2   2 245.850 242.242   1
 -11  -2  -2 21.1216 142.035  17
  11   2   2 332.957 436.678   8
 -11  -2   2 256.713 280.319  17
  11   2  -2 380.274 381.041   8
 -11   2  -2 152.390 227.271   4
  11  -2   2 152.025 218.463   8
 -11   2   2 126.808 151.719   2
 -11   2   2 249.071 293.579   4
  11  -2  -2 79.6606 178.728   8
  11   2  -2 102.164 136.319   1
  11   2   2 131.389 210.773  14
  11   2  -2 162.033 200.170  14
  11  -2   3-6.35964 47.0491  14
  11  -2  -3 143.860 164.647  14
  11  -2   3 42.0271 36.6068   6
  11  -2  -3 133.603 185.256   1
  11  -2  -3 56.5107 119.810   6
 -11  -2   3-92.7971 99.0714  12
 -11   2  -3-54.7633 102.808  12
 -11  -2   3 267.289 251.596   5
  11   2  -3 156.682 200.366  11
  11  -2   3-68.8017 158.072   1
 -11   2  -3 123.667 146.248   5
 -11  -2  -3-166.403 287.025  19
 -11   2   3 9.06908 109.190   5
 -11  -2   3-250.496 222.701  19
 -11   2  -3 252.364 222.834  19
 -11   2   3 90.7646 117.062  19
  11   2  -3-58.4652 203.179   9
  11   2   3 99.9085 126.685   1
  11   2   3 200.124 200.064  18
  11   2  -3-133.093 241.124  18
 -11  -2   3-118.554 309.905   4
 -11  -2  -3 145.499 289.614  17
  11   2   3 266.362 376.611   8
 -11  -2   3 51.2858 122.687  17
 -11   2  -3-82.1283 217.302   4
  11   2  -3 111.052 347.536   8
  11  -2   3-42.2471 49.1792   8
 -11   2   3 127.796 224.579   4
  11  -2  -3-41.9709 98.5285   8
 -11   2   3-7.66981 122.379   2
  11   2  -3 164.051 220.814   1
  11   2   3 6.24714 103.986  14
  11   2  -3 31.9946 156.620  14
  11   2  -4 266.036 234.314  14
  11   2  -4 431.545 355.712   1
  11  -2   4 334.403 332.689  14
 -11   2  -4-34.6588 125.328   3
  11  -2  -4 144.316 206.683  14
  11  -2   4 330.751 296.267   6
  11   2  -4 237.638 137.435  13
  11  -2  -4 273.029 179.872   6
 -11   2  -4 69.8514 151.145  12
  11  -2   4 268.537 128.378   1
  11  -2  -4 114.471 137.410   1
 -11  -2   4-40.6068 83.6484  12
 -11  -2   4 425.070 414.987   5
  11   2  -4 299.403 199.021  11
 -11   2  -4 419.656 393.994   5
 -11   2  -4 49.6493 60.1218  20
 -11  -2   4 20.2089 136.486   2
 -11  -2  -4 125.458 304.234  19
 -11   2   4 173.529 182.947   5
 -11  -2   4 127.038 214.912  19
 -11   2  -4 115.962 114.644  19
  11   2   4 138.564 137.536   1
 -11   2   4 259.841 287.939  19
  11   2  -4-200.679 256.090   9
  11   2   4 236.699 219.585  18
  11   2  -4 267.953 212.500  18
 -11  -2   4-169.194 295.377   4
 -11  -2  -4 54.2283 182.481  17
  11   2   4 255.653 310.281   8
 -11  -2   4 88.7908 144.369  17
 -11   2  -4 233.720 260.348   4
  11   2  -4 394.707 346.613   8
  11  -2   4 196.404 193.748   8
 -11   2   4 238.448 247.192   4
  11  -2  -4-119.971 288.291   8
  11   2   4 200.635 128.337  16
 -11   2   4 237.151 165.225   2
  11   2   4 383.875 365.892  14
  11   2  -5 960.856 449.271  14
  11  -2   5 1180.52 509.063  14
  11  -2  -5 568.836 326.545  14
  11   2  -5 1338.71 562.535   1
 -11   2  -5-44.8325 194.904   3
  11  -2   5 1290.92 455.435   6
  11   2  -5 1323.51 340.962  13
  11  -2   5 1557.01 489.163   1
  11  -2  -5 794.116 277.533   6
 -11   2  -5 660.669 385.609  12
 -11  -2   5 716.568 460.049   5
  11   2  -5 1761.43 584.253  11
 -11   2  -5 705.661 498.338   5
  11  -2  -5 631.689 362.981   1
 -11   2  -5 321.215 133.818  20
  11   2   5 1453.13 642.392   1
 -11  -2  -5-171.092 366.866  19
 -11  -2   5 572.813 343.431   2
 -11   2   5 1204.58 513.063   5
 -11  -2   5 925.110 401.624  19
 -11   2  -5 632.998 391.969  19
 -11   2   5 1118.19 458.186  19
  11   2  -5 175.724 152.282   9
  11   2   5 1582.90 495.358  18
  11   2  -5 1380.76 567.241  18
 -11  -2   5 672.113 350.717   4
 -11  -2  -5-286.521 264.436  17
  11   2   5 1401.05 691.028   8
 -11   2  -5 599.914 339.779   4
 -11  -2   5 347.184 268.284  17
  11  -2   5 1289.90 517.829   8
  11   2  -5 1923.79 605.436   8
  11   2   5 1316.60 342.749  16
 -11   2   5 1220.38 542.338   4
  11  -2  -5-133.854 414.301   8
 -11   2   5 989.478 369.848   2
 -11   2  -5 1560.61 751.376  15
  11   2   5 1148.08 593.961  14
  11   2  -6 51.3584 184.357  14
  11  -2   6-16.2312 142.814  14
  11  -2   6 456.297 430.800   1
  11  -2  -6 57.7932 152.647  14
  11  -2   6 333.335 284.309   6
  11   2  -6 646.137 458.510   1
 -11   2  -6 139.179 259.723   3
  11   2  -6 83.2554 14.2281  13
  11  -2  -6 135.952 114.795   6
 -11   2  -6-28.8450 318.916  12
 -11   2  -6 168.713 304.753   5
 -11  -2   6 831.751 529.817   5
  11   2  -6 350.057 443.232  11
 -11   2  -6-167.512 195.158  20
 -11  -2  -6 54.5624 333.038  19
 -11   2  -6 246.854 352.262  19
 -11   2   6 123.522 109.388   5
 -11  -2   6 61.8173 177.651  19
  11  -2  -6 153.552 195.947   1
 -11  -2   6 373.794 363.881   2
 -11   2   6 39.3868 156.595  19
  11   2  -6 723.526 351.540   9
  11   2   6 245.498 253.045  18
  11   2  -6 240.489 336.508  18
 -11  -2   6 337.655 323.732   4
 -11  -2  -6-209.866 129.493  17
  11   2   6 293.029 334.059   8
 -11   2  -6 129.978 213.747   4
 -11  -2   6 192.330 352.439  17
  11  -2   6 32.8823 194.692   8
  11   2  -6-23.3214 214.052   8
 -11   2   6 186.028 185.056   4
  11   2   6 147.205 110.142  16
 -11   2  -6 428.353 377.312   7
 -11   2  -6 249.041 393.446  15
 -11   2   6 123.746 154.638   2
  11   2  -7 710.948 389.325  14
  11  -2  -7 795.725 404.083  14
  11   2  -7 1805.03 425.779  13
 -11   2  -7 1277.38 512.775   3
  11   2  -7 1531.33 629.273   1
 -11   2  -7 2585.95 818.963  12
 -11   2  -7 2680.56 1006.96   5
  11   2  -7 1313.57 491.203  11
 -11  -2   7 1086.20 592.305   5
 -11   2  -7 1784.97 578.228  20
 -11  -2  -7 119.978 277.428  19
 -11  -2   7 957.455 402.377  19
 -11   2   7 1718.94 622.992   5
 -11   2   7 1112.36 377.823  19
 -11  -2   7 1370.26 536.656   2
  11   2   7 1608.40 512.541  18
  11   2  -7-150.844 231.606   9
  11   2  -7 1363.41 595.384  18
  11  -2  -7 623.154 379.980   1
 -11  -2  -7 91.6566 109.581  17
 -11   2  -7 961.696 638.886   4
 -11  -2   7 716.808 398.456   4
  11   2   7 1544.64 689.512   8
 -11  -2   7 517.399 382.471  17
  11   2  -7 1288.79 499.546   8
 -11   2   7 1138.95 495.580   4
  11   2   7 1403.63 424.920  16
 -11   2  -7 2470.25 895.114   7
 -11   2  -7 1779.52 879.827  15
  11  -2   7 4063.52 959.001   6
  11  -2   7 3544.74 923.594  14
 -11   2   7 1113.89 432.887   2
  11   2  -8 252.912 213.974  14
  11  -2   8 550.648 697.988  14
  11  -2  -8 157.790 159.631  14
  11   2  -8 276.122 184.560  13
 -11   2  -8 89.9219 431.077   3
 -11   2  -8 1578.73 870.077  12
  11   2  -8 149.975 233.671   1
 -11   2  -8 1012.70 818.582   5
  11   2  -8 229.308 238.229  11
 -11  -2   8 594.290 480.040   5
 -11   2  -8 257.922 642.909  20
 -11  -2  -8 103.643 311.587  19
 -11  -2   8-16.9878 89.5200  19
 -11   2   8 343.988 319.471   5
  11   2   8 102.483 240.462  18
 -11  -2   8 395.562 278.191   2
  11   2  -8-326.243 241.193   9
  11   2  -8 237.582 229.887  18
 -11   2  -8 388.506 376.655   4
 -11  -2  -8 369.282 317.914  17
  11   2   8 48.2190 382.916   8
 -11  -2   8 381.037 333.619   4
 -11  -2   8 350.641 302.768  17
  11  -2  -8 85.3597 133.073   1
  11   2  -8-107.932 221.336   8
 -11   2   8 312.994 237.601   4
  11   2   8 86.6573 135.526  16
 -11   2  -8 484.351 564.849   7
 -11   2  -8 392.747 405.762  15
  11  -2   8 1367.40 712.377   6
 -11   2   8 103.356 154.563   2
  11   2  -9 310.032 319.090  14
  11  -2   9 790.963 539.891  14
  11  -2   9 1002.36 412.787   6
  11  -2  -9 167.835 244.229  14
  11   2  -9 1069.73 379.242  13
 -11   2  -9 37.7403 172.751   3
 -11   2  -9-30.1726 159.210  12
  11   2  -9 970.752 506.184   1
  11   2  -9 816.916 436.155  11
 -11  -2   9 577.976 467.660   5
 -11   2  -9-770.344 487.873  20
 -11  -2  -9-43.9771 105.035  19
 -11   2  -9 361.531 350.283  19
 -11  -2   9 544.217 294.464  19
 -11   2   9 707.235 435.893   5
  11   2   9 722.849 368.739  18
  11   2  -9-332.364 365.028   9
 -11  -2   9 966.276 478.294   2
  11   2  -9 500.953 311.286  18
 -11   2  -9 83.3905 139.879   4
 -11  -2  -9 32.4862 118.089  17
  11   2   9 1170.84 699.867   8
  11  -2   9 889.870 435.799   1
 -11  -2   9 323.240 340.146   4
 -11  -2   9 468.889 347.008  17
  11  -2   9 542.830 569.443   8
  11  -2   9 402.880 175.316  16
  11   2  -9 474.776 292.109   8
  11  -2  -9 361.417 360.648   1
  11   2   9 560.933 260.667  16
 -11   2  -9 368.705 307.190   7
 -11   2   9 747.415 374.940   4
 -11   2  -9 277.069 286.668  15
 -11   2   9 873.515 428.466   2
  11   2 -10 310.426 304.709  13
 -11   2 -10 366.829 314.466  12
 -11  -2 -10 316.760 416.898  19
 -11   2 -10 85.4383 211.880  19
 -11  -2  10 73.7087 148.607  19
 -11  -2  10-18.5002 188.078  17
 -11   2 -10-450.052 552.752   7
  11  -3   0 1038.76 465.674  14
  11  -3   0 1006.81 422.526   1
  11  -3   0 1077.75 396.620   6
 -11   3   0 1381.78 355.512   2
 -11  -3   0 95.4911 183.628  19
 -11   3   0 1226.55 546.184   5
 -11   3   0 1445.43 551.219  19
  11   3   0 2137.35 671.556  18
  11   3   0 1830.82 712.316   1
 -11  -3   0 549.659 392.483  17
  11   3   0 2299.79 822.904   8
 -11   3   0 1259.45 552.398   4
  11  -3   0 991.091 513.918   8
  11   3   0 929.094 489.263  14
  11  -3   1 102.319 222.320   1
  11  -3   1 282.491 249.304  14
  11  -3  -1 178.826 197.713  14
  11  -3   1 152.960 143.002   6
  11  -3  -1 176.183 118.676   6
 -11   3  -1-143.542 235.079  12
  11  -3  -1 155.576 250.933   1
 -11   3  -1 146.852 214.496   5
 -11  -3  -1 41.3359 189.945  19
 -11  -3   1 63.7969 151.423  19
 -11   3   1 102.969 39.6258   5
 -11   3  -1 221.934 178.480  19
 -11   3   1 67.9985 93.2785  19
  11   3   1 48.2222 110.154   1
  11   3   1 216.115 228.518  18
  11   3  -1 495.801 301.386  18
  11   3  -1 181.912 200.270   1
 -11  -3  -1 94.8760 217.007  17
  11   3   1 181.235 353.486   8
 -11  -3   1-68.5723 179.984  17
  11   3  -1 482.854 436.562   8
 -11   3  -1 182.209 254.209   4
 -11   3  -1 161.847 133.765   2
  11  -3   1 294.328 325.228   8
 -11   3   1 35.7393 87.7663   4
  11  -3  -1 88.1601 178.176   8
 -11   3   1 182.068 103.038   2
  11   3   1-156.460 376.284  14
  11   3  -1 160.132 233.779  14
  11  -3   2 398.192 285.446  14
  11  -3  -2 156.525 147.324  14
  11  -3   2 395.845 249.592   6
  11  -3  -2 270.408 208.311   6
 -11  -3   2 306.444 179.799  12
 -11   3  -2-16.2834 103.693  12
 -11   3  -2 362.398 316.305   5
 -11  -3  -2 7.17962 202.868  19
 -11  -3   2-151.132 198.567  19
  11   3   2 462.339 409.867   1
  11  -3  -2 204.445 220.055   1
 -11   3   2 469.983 352.141   5
 -11   3  -2 207.507 102.042  19
 -11   3   2 395.131 290.948  19
  11   3   2 723.183 417.608  18
  11   3  -2 442.963 298.207  18
 -11  -3  -2 374.518 399.780  17
  11   3   2 437.745 365.098   8
 -11  -3   2 41.8275 198.444  17
  11   3  -2 707.000 450.548   1
  11   3  -2 533.438 405.510   8
 -11   3  -2 294.071 289.747   4
  11  -3   2 385.238 187.173   8
  11  -3   2 381.101 249.683   1
 -11   3   2 349.092 305.680   4
  11  -3  -2 63.7245 202.551   8
 -11   3   2 396.895 208.298   2
  11   3  -2 239.872 297.802  14
 -11   3   3 222.457 110.696   2
  11  -3   3 352.452 269.764  14
  11  -3  -3 188.476 214.039  14
  11  -3   3 245.657 223.274   6
  11  -3  -3 216.008 173.750   6
 -11  -3   3 6.80913 62.3627  12
 -11   3  -3 105.554 137.745  12
  11   3  -3 1441.95 597.585  11
  11   3   3 466.098 396.194   1
 -11   3  -3 413.284 268.857   5
 -11  -3  -3-46.6765 316.727  19
 -11  -3   3 232.832 283.451  19
 -11   3   3 257.751 211.174   5
 -11   3  -3 173.316 156.798  19
 -11   3   3 247.178 199.955  19
  11   3   3 628.706 380.384  18
  11   3  -3 132.894 83.1976  18
  11  -3  -3 217.345 242.388   1
 -11  -3  -3-229.690 237.154  17
  11   3   3 575.596 472.389   8
  11  -3   3 164.648 131.685   1
 -11  -3   3 114.192 119.842  17
  11   3  -3 489.718 375.042   8
  11   3  -3 293.965 304.016   1
 -11   3  -3 180.733 207.995   4
  11  -3   3 413.397 332.473   8
  11  -3  -3-185.303 404.081   8
 -11   3   3 280.320 251.936   4
  11   3  -3 61.1623 138.805  14
 -11   3   4 46.5661 38.6491   2
  11  -3   4 46.4767 133.005  14
  11  -3  -4 76.6703 139.071  14
  11  -3   4 50.1945 58.9514   6
  11  -3  -4-35.3636 53.4729   6
 -11   3  -4-45.2492 85.0122  12
  11   3  -4 491.831 380.866  11
 -11   3  -4-8.64573 103.771   5
 -11  -3  -4 2.09854 274.441  19
 -11  -3   4 114.717 273.271  19
 -11   3  -4-171.912 216.924  19
 -11   3   4 129.505 282.287   5
  11   3  -4 1136.59 485.767   9
 -11   3   4-50.2190 207.428  19
  11  -3   4 146.087 177.374   1
  11   3   4 182.171 240.726  18
  11   3  -4-29.2505 222.859  18
 -11  -3  -4-445.386 391.770  17
  11   3   4-60.9582 252.271   8
 -11  -3   4 200.823 312.594  17
  11   3  -4 139.802 35.0415   8
 -11   3  -4 164.903 173.960   4
  11  -3   4 109.393 299.213   8
  11   3  -4 34.5590 145.692   1
  11  -3  -4 64.0209 174.366   1
 -11   3   4-3.70841 84.7302   4
  11   3  -4-143.199 185.741  14
  11  -3  -5 365.830 288.346   1
  11  -3   5 575.138 385.118  14
 -11   3  -5-121.832 219.162   3
 -11   3   5 238.581 182.572   2
  11  -3  -5 111.491 143.659  14
  11   3  -5 302.228 205.089  13
  11  -3   5 522.661 270.012   6
 -11   3  -5 67.3879 153.847  12
  11   3  -5 106.138 162.035  11
 -11   3  -5 591.889 288.585  20
  11  -3   5 575.040 355.566   1
 -11   3  -5 576.736 415.150   5
 -11  -3  -5 43.6931 241.808  19
 -11  -3   5 268.888 285.026  19
 -11   3  -5 370.828 264.535  19
 -11   3   5 491.941 373.351   5
  11   3  -5 533.369 291.418   9
 -11   3   5 216.607 187.056  19
  11   3   5 487.866 240.472  18
  11   3  -5 467.446 335.120  18
 -11  -3  -5 148.141 237.357  17
  11   3   5 472.241 412.428   8
 -11  -3   5-107.738 275.864  17
 -11   3  -5 468.375 382.549   4
  11   3  -5 733.589 500.445   8
  11  -3   5 498.817 385.436   8
  11   3  -5 738.336 470.045   1
 -11   3   5 586.737 402.237   4
  11   3   5 121.775 82.6469  16
  11   3  -5 197.366 309.109  14
  11  -3   6 566.573 357.277  14
 -11   3  -6 757.447 444.984   3
  11  -3  -6 186.602 222.130  14
  11  -3   6 803.131 409.883   6
  11   3  -6 653.251 256.315  13
  11  -3  -6 325.574 311.770   1
 -11   3  -6 1539.12 563.736  12
  11  -3   6 1308.44 512.664   1
 -11  -3   6 165.814 139.617   5
  11   3  -6 544.587 269.195  11
 -11   3  -6 1139.60 582.373   5
 -11   3  -6 310.080 182.622  20
 -11  -3   6 523.048 405.027   2
 -11  -3  -6 32.5148 175.805  19
 -11  -3   6 393.733 343.360  19
 -11   3  -6 1023.20 577.919  19
 -11   3   6 374.095 322.061   5
  11   3  -6 544.990 387.540   9
  11   3   6 380.557 265.311  18
  11   3  -6 429.603 271.812  18
 -11  -3   6-159.862 448.732   4
 -11  -3  -6 455.177 403.563  17
  11   3   6 607.890 531.645   8
 -11  -3   6 544.227 495.504  17
 -11   3  -6 893.366 566.990   4
  11   3  -6 616.784 374.797   8
  11  -3   6 1487.21 711.783   8
 -11   3   6 320.546 230.023   4
  11   3   6 378.289 262.891  16
  11   3  -6 957.492 527.490   1
  11   3  -6 454.935 300.184  14
  11  -3   7 724.491 479.823  14
 -11   3  -7-36.3681 243.891   3
  11  -3   7 756.373 436.055   6
  11  -3   7 1328.11 530.926   1
  11   3  -7 355.509 237.611  13
 -11   3  -7 1532.75 605.274  12
 -11  -3   7 156.460 207.805   5
  11   3  -7 202.317 199.987  11
 -11   3  -7 422.266 334.051   5
 -11   3  -7 231.962 162.936  20
 -11  -3  -7 231.117 411.383  19
 -11  -3   7 335.753 327.941   2
 -11  -3   7 201.472 243.843  19
 -11   3  -7 486.441 401.978  19
  11   3  -7 108.395 233.575   9
  11   3   7 322.305 196.561  18
  11   3  -7 206.618 123.959  18
 -11  -3   7-101.279 334.179   4
  11   3   7 637.828 539.547   8
 -11   3  -7 228.641 346.992   4
 -11  -3   7 385.947 426.233  17
  11   3  -7 675.360 360.211   8
  11  -3   7 1547.22 815.579   8
  11   3  -7 444.849 340.230   1
  11   3  -7 61.1841 162.434  14
  11  -3   8 269.199 240.020   1
  11   3  -8-14.3521 141.597   1
  11  -3   8-8.12958 84.7033  14
  11  -3   8 158.641 40.9268   6
 -11   3  -8 119.705 133.123   3
  11   3  -8 122.204 46.6010  13
 -11   3  -8-8.11625 178.367  12
 -11  -3   8 131.426 311.205   5
  11   3  -8 853.343 464.858  11
 -11   3  -8 183.962 72.3461   5
 -11   3  -8-10.8258 156.956  20
 -11  -3  -8 79.9456 288.499  19
 -11  -3   8 52.6818 114.505   2
 -11  -3   8-53.2828 161.088  19
 -11   3  -8-128.496 165.397  19
  11   3  -8 368.472 311.372   9
  11   3  -8 141.052 185.305  18
 -11  -3   8-231.782 404.079   4
  11   3   8-448.138 508.204   8
 -11   3  -8 188.434 201.968   4
 -11  -3   8-0.62807 191.044  17
  11  -3   8 213.201 171.911   8
  11   3  -8 355.382 223.650   8
 -11   3  -8 531.695 522.215   7
 -11   3  -8 740.061 570.736  15
  11   3  -8 77.4241 86.9343  14
  11  -3   9 159.828 264.250  14
  11   3  -9 206.927 279.141   1
  11  -3   9 173.263 240.072   6
 -11   3  -9 50.0906 90.0898   3
  11   3  -9 160.928 204.565  13
 -11   3  -9 58.7214 199.019  12
 -11   3  -9 84.1630 151.964   5
 -11  -3   9 209.547 259.108   5
  11   3  -9 458.791 478.651  11
 -11   3  -9 93.2449 168.758  20
 -11  -3  -9 52.9500 212.979  19
 -11   3  -9 344.350 378.948  19
 -11  -3   9 59.7309 86.8495  19
 -11  -3   9 334.392 334.169   2
  11   3  -9-211.074 294.387   9
  11   3  -9 140.668 270.390  18
 -11  -3   9-191.391 356.220   4
  11   3   9 238.399 454.242   8
 -11   3  -9 27.6020 112.703   4
 -11  -3   9 9.77962 144.488  17
  11  -3   9 138.890 99.1837   8
  11   3  -9-82.1594 226.079   8
  11  -3   9 287.074 273.632   1
 -11   3  -9 317.899 530.428   7
 -11   3  -9 374.893 372.767  15
  11   3  -9-58.9281 215.255  14
  11  -4   0 129.861 182.088  14
 -11   4   0 162.613 96.9486   2
  11  -4   0 76.4794 117.403   6
 -11  -4   0 92.7903 296.520  19
  11   4   0 173.060 130.236   1
 -11   4   0 130.385 100.301   5
 -11   4   0 53.4744 98.1036  19
  11   4   0-5.85508 53.0198  18
  11  -4   0 42.3494 74.2233   1
 -11  -4   0-70.7784 173.599  17
  11   4   0 158.229 361.259   8
  11  -4   0-391.742 323.074   8
 -11   4   0 286.977 262.661   4
  11  -4   1 949.423 440.282  14
  11  -4  -1 761.230 355.849  14
  11   4  -1 2341.81 871.619   1
  11  -4   1 1082.94 391.262   6
  11  -4  -1 669.722 320.013   6
  11   4   1 1985.96 796.266   1
 -11   4  -1 1160.71 291.079   2
 -11   4   1 1516.21 558.713  19
 -11  -4  -1 177.893 349.573  19
 -11  -4   1 122.520 101.918  19
  11  -4   1 1196.62 474.847   1
 -11   4  -1 1036.84 480.580   5
 -11   4   1 1564.07 633.582   5
 -11   4  -1 1323.34 495.653  19
  11   4   1 1978.84 652.705  18
  11   4  -1 1962.93 668.430  18
  11   4   1 2051.94 816.250   8
 -11  -4  -1 9.49745 177.399  17
 -11  -4   1 701.652 468.227  17
  11   4  -1 2337.95 842.121   8
 -11   4  -1 1427.97 568.894   4
  11  -4   1 541.902 310.714   8
  11  -4  -1 7.91504 283.717   8
 -11   4   1 1506.11 568.363   4
  11  -4  -1 936.116 413.035   1
  11  -4   2 194.659 177.404  14
  11  -4  -2 245.912 240.049  14
  11  -4  -2 107.013 149.000   1
  11  -4   2 211.054 198.072   6
  11  -4   2 229.140 224.714   1
 -11  -4  -2 43.3655 212.881  19
 -11  -4   2 164.245 250.798  19
 -11   4  -2 39.0302 161.062   5
 -11   4  -2 69.9154 153.316  19
 -11   4   2 106.383 183.997   5
 -11   4   2 46.1201 187.963  19
  11   4   2 358.070 413.215  18
  11   4  -2 56.8312 197.106   1
  11   4  -2 180.775 139.148  18
  11   4   2 436.191 553.073   8
 -11  -4  -2 12.0859 178.599  17
 -11  -4   2 672.916 489.745  17
  11   4  -2-13.9879 88.4786   8
 -11   4  -2 147.546 211.231   4
  11  -4   2 152.272 220.997   8
 -11   4   2 222.616 258.821   4
  11  -4   3 234.861 253.947  14
  11  -4  -3 273.984 279.702  14
  11  -4   3 319.124 255.082   1
  11  -4   3 183.758 176.559   6
 -11   4  -3 30.2702 69.2867  12
  11  -4  -3 155.057 244.572   1
 -11  -4  -3-109.987 234.295  19
 -11   4  -3 515.760 394.014   5
 -11  -4   3-229.146 310.233  19
 -11   4  -3 292.295 240.092  19
 -11   4   3 498.289 395.846   5
  11   4   3 640.472 405.681  18
  11   4  -3 179.050 324.020  18
  11   4  -3 570.814 442.579   1
  11   4   3 275.586 305.334   8
 -11  -4  -3 167.735 260.843  17
 -11  -4   3-39.8382 157.929  17
  11   4  -3 946.899 484.120   8
 -11   4  -3 473.174 300.785   4
  11  -4   3 225.628 137.798   8
 -11   4   3 102.351 144.836   4
  11  -4   4 567.275 348.898  14
  11  -4   4 553.398 310.195   6
 -11   4  -4 116.562 108.616  12
 -11  -4  -4 15.1009 173.757  19
 -11   4  -4 472.269 384.904   5
 -11  -4   4 190.913 103.202  19
 -11   4  -4 337.434 217.887  19
  11   4   4 768.001 395.832  18
  11   4  -4 552.144 359.654  18
  11   4   4 557.796 551.735   8
  11   4  -4 768.949 479.139   1
 -11  -4   4 551.781 443.799  17
  11   4  -4 940.306 436.794   8
 -11   4  -4 499.637 357.780   4
  11  -4   4 831.553 484.402   8
  11  -4   4 584.227 323.791   1
  11  -4   5 18.9325 103.004  14
  11  -4   5 155.136 148.879   6
 -11   4  -5 387.524 281.405  12
  11   4  -5 1087.31 688.285  11
 -11   4  -5 97.0729 219.056   5
 -11  -4  -5-100.426 212.815  19
 -11  -4   5 48.9118 288.940  19
 -11   4  -5 78.3036 140.029  19
  11   4   5-325.083 436.957  18
  11   4  -5 136.088 229.442  18
  11   4   5-11.5803 219.538   8
 -11  -4   5 464.718 417.129  17
  11   4  -5 124.665 233.251   1
  11  -4   5-223.952 246.643   1
  11   4  -5 617.305 436.677   8
 -11   4  -5 4.84425 123.255   4
  11  -4   5-80.2205 273.502   8
 -11   4  -6 18.3173 118.683   3
  11  -4   6 422.177 342.724  14
  11   4  -6 405.526 242.128  13
  11  -4   6 253.355 240.188   6
 -11   4  -6-8.14783 129.591  12
  11   4  -6 1072.55 589.542  11
 -11   4  -6 631.099 408.848   5
 -11  -4  -6-239.178 478.712  19
 -11  -4   6-83.0820 118.654  19
 -11   4  -6 316.687 250.924  19
  11  -4   6 636.005 292.250   1
  11   4  -6 403.850 286.059  18
  11   4   6 430.030 607.627   8
 -11  -4   6-180.642 321.472  17
  11   4  -6 669.866 360.447   8
  11   4  -6 657.409 421.930   1
 -11   4  -6 619.499 425.070   4
  11  -4   6 532.576 419.241   8
  11  -4   7-65.8111 204.398  14
 -11   4  -7-69.5215 121.056   3
  11   4  -7-2.43712 93.0039  13
  11  -4   7-19.2315 64.9584   6
 -11   4  -7 31.7538 106.905  12
  11   4  -7-3.24755 75.9441  11
  11  -4   7-75.5708 152.665   1
 -11   4  -7-9.13078 31.1652   5
 -11  -4   7 272.849 236.974  19
 -11   4  -7-81.3061 176.301  19
  11   4  -7 49.8125 168.290  18
 -11  -4   7-268.264 270.144  17
 -11   4  -7-139.881 202.041   4
  11   4  -7 168.983 213.208   8
  11   4  -7 40.2564 92.9852   1
  11  -4   7 128.450 237.604   8
  11   4  -7-520.440 363.820  14
 -11   4  -8 647.100 371.704  20
 -11  -4   8 443.639 294.512  19
 -11   4  -8 204.757 177.876  19
 -11  -4   8 231.959 292.752  17
 -11  -5   0 397.342 439.720  19
 -11   5   0 872.509 473.353   5
 -11   5   0 836.181 362.360  19
  11   5   0 1205.10 574.704  18
  11   5   0 1576.97 857.945   8
 -11  -5   0 144.500 232.035  17
 -11   5   0 786.850 440.267   4
  11  -5   1 93.7261 185.999  14
  11  -5   1 220.787 235.642   1
  11  -5   1 252.949 231.090   6
  11   5  -1 13.5136 319.851   1
 -11  -5  -1 129.556 38.8155  19
 -11  -5   1-326.213 320.245  19
 -11   5  -1 180.643 203.349   5
 -11   5  -1 33.5524 48.6787  19
  11   5   1-19.3169 130.465  18
  11   5  -1 365.536 317.469  18
  11   5   1-44.1154 97.2457   8
 -11  -5  -1-222.692 311.598  17
  11   5  -1 451.333 397.306   8
 -11  -5   1-358.643 405.963  17
 -11   5  -1 191.391 218.005   4
  11  -5   2 431.648 302.009  14
  11  -5   2 619.229 345.697   6
  11   5  -2 1219.69 668.826   1
 -11  -5  -2 91.6117 185.463  19
 -11  -5   2 315.915 371.564  19
 -11   5  -2 1071.22 506.022   5
 -11   5  -2 928.495 441.314  19
  11   5   2 1189.99 527.453  18
  11   5  -2 1333.92 634.235  18
  11   5   2 1219.15 627.359   8
  11   5  -2 1501.96 640.392   8
 -11  -5   2-248.880 392.874  17
  11  -5   2 601.315 345.214   1
  11  -5   2-333.631 306.112   8
 -11   5  -2 1003.37 470.212   4
  11  -5   3 136.297 150.790  14
  11  -5   3-39.6131 155.979   6
 -11  -5  -3-143.987 391.798  19
 -11  -5   3 29.1531 214.858  19
  11   5  -3 308.245 227.031   1
 -11   5  -3 233.095 276.422   5
 -11   5  -3 354.112 246.350  19
  11   5  -3 287.352 184.687  18
  11  -5   3 17.2611 64.9353   1
  11   5   3 337.907 444.568   8
 -11  -5   3-143.111 267.121  17
  11   5  -3 290.077 49.0700   8
 -11   5  -3 335.007 324.316   4
  11  -5   3 126.601 133.626   8
  11  -5   4-216.268 198.133  14
  11  -5   4 159.199 141.364   6
 -11   5  -4-8.47926 84.2437  12
  11  -5   4 119.898 116.988   1
 -11  -5   4-229.955 354.155  19
 -11   5  -4-188.032 214.739   5
  11   5  -4-83.9152 244.521   1
 -11   5  -4 143.851 161.768  19
  11   5  -4-33.8232 209.780  18
 -11  -5   4-16.3352 68.0099  17
  11   5  -4-92.8209 241.728   8
 -11   5  -4 44.8753 181.362   4
  11  -5   4-137.731 195.427   8
  11  -5   5 210.651 277.477  14
  11  -5   5 349.939 256.410   1
  11  -5   5 179.806 159.162   6
 -11   5  -5 167.570 195.322  12
 -11  -5   5 64.4897 226.450  19
 -11   5  -5 371.522 281.745   5
 -11   5  -5 438.760 294.398  19
  11   5  -5 387.444 377.964   1
  11   5  -5 676.837 465.354  18
 -11  -5   5 56.2786 103.830  17
  11   5  -5 826.069 492.105   8
 -11   5  -5 356.750 306.473   4
  11  -5   5 536.720 368.282   8
 -11   5  -6 59.3583 133.533  12
 -11  -5   6 316.161 349.282  19
 -11   5  -6 52.1800 99.5357  19
 -11  -5   6-3.59388 170.172  17
 -11  -6   0 70.3461 238.579  19
  11   6   0 1002.73 691.773  18
  11   6   0 695.406 632.904   8
 -11  -6   0 595.772 628.254  17
 -11  -6   1-17.2170 183.098  19
  11   6  -1 887.644 480.204  18
  11   6  -1 553.915 490.334   8
 -11  -6   1 468.399 623.828  17
 -11  -6   2 404.306 359.313  19
 -11  -6   2 317.127 431.304  17
  12   0   0 439.797 308.013  14
  12   0   0 311.990 180.661   6
  12   0   0 503.198 346.358   1
 -12   0   0 127.521 182.087  12
 -12   0   0 496.699 457.250   5
  12   0   0 465.473 203.541  11
 -12   0   0 259.984 275.976  19
  12   0   0 340.623 224.960  18
 -12   0   0 386.839 371.386   4
 -12   0   0 70.8110 292.000  17
  12   0   0 383.654 436.918   8
 -12   0   0 29.4243 275.565   7
 -12   0   0 197.078 102.248  15
  12   0   1 211.079 266.781  14
  12   0  -1 164.301 186.223  14
  12   0   1 70.8047 206.923   1
  12   0   1 136.350 139.465   6
  12   0  -1-33.9284 68.6590   6
  12   0  -1 24.0832 93.6390   1
 -12   0  -1 243.234 280.956  12
 -12   0   1 240.970 169.419  12
 -12   0  -1 364.517 420.659   5
 -12   0   1-16.0844 273.023   5
  12   0   1 225.205 244.194  11
  12   0  -1 574.123 301.803  11
 -12   0   1 50.3153 101.391   2
 -12   0  -1 171.810 389.472  19
 -12   0   1 157.371 357.209  19
  12   0   1-76.2243 88.7043  18
  12   0  -1 3.35377 83.4274  18
 -12   0  -1 241.899 255.241   4
 -12   0   1 154.065 312.614   4
 -12   0  -1 7.67339 174.397  17
 -12   0   1-14.4434 167.441  17
  12   0   1 39.5526 224.639   8
  12   0  -1-15.2287 29.2671   8
 -12   0  -1-408.903 454.872   7
 -12   0   1 173.933 148.966   7
 -12   0  -1-325.719 451.062  15
 -12   0   1-109.183 135.592  15
  12   0   2 517.004 357.742  14
  12   0  -2 453.162 317.488  14
  12   0   2 589.053 348.764   6
  12   0  -2 648.520 284.025   6
 -12   0  -2 401.271 279.557  12
  12   0  -2 668.300 416.180   1
 -12   0   2-119.075 116.787  12
 -12   0  -2 501.046 401.073   5
 -12   0   2 298.534 378.069   5
  12   0   2 412.026 222.338  11
  12   0  -2 390.665 293.488  11
 -12   0  -2 94.8612 140.973  19
 -12   0   2 391.604 292.584  19
 -12   0   2 575.769 323.047   2
  12   0   2 756.391 416.562  18
  12   0  -2 345.564 247.639  18
 -12   0  -2 100.440 161.102   4
 -12   0   2 276.707 271.207   4
 -12   0  -2-471.069 220.801  17
 -12   0   2-86.8058 91.2665  17
  12   0   2 769.857 467.800   8
  12   0  -2 596.142 360.856   8
 -12   0   2 605.267 367.155   7
 -12   0  -2-776.332 459.291  15
 -12   0   2 353.198 219.516  15
  12   0   2 997.177 495.695   1
  12   0   3 234.522 321.101  14
  12   0  -3 66.1532 120.664  14
  12   0   3 367.639 348.736   6
  12   0  -3 145.615 157.078   6
 -12   0  -3 268.975 339.086  12
 -12   0  -3-45.8291 266.850   5
  12   0  -3 151.436 281.822   1
 -12   0   3-56.3890 186.355   5
  12   0  -3 65.7648 140.351  11
 -12   0  -3 232.785 469.241  19
 -12   0   3-69.6174 50.0887  19
 -12   0   3-49.4726 85.9641   2
  12   0   3 200.481 426.504  18
  12   0  -3 41.5201 79.8990  18
 -12   0  -3 34.5114 234.306   4
 -12   0   3 104.923 227.474   4
 -12   0  -3 184.697 517.404  17
  12   0   3 234.723 350.753   8
 -12   0   3-7.59266 94.2178  17
  12   0  -3 24.0349 93.3291   8
  12   0   3 189.992 255.630   1
 -12   0   3 581.908 438.539   7
 -12   0   3 270.439 343.010  15
  12   0   4 3144.92 850.550   1
 -12   0  -4 174.073 260.145  12
  12   0  -4 2883.73 837.546   1
 -12   0   4 1958.18 557.874   2
 -12   0   4 1601.46 707.430   5
  12   0  -4 255.530 95.2923  11
 -12   0  -4 309.161 341.953  19
 -12   0   4 1548.34 569.958  19
  12   0   4 2045.10 543.744  18
  12   0  -4 1182.50 474.893  18
 -12   0  -4 279.265 210.048   4
 -12   0  -4 54.2830 187.009  17
 -12   0   4 1853.99 721.871   4
  12   0   4 2792.21 926.390   8
 -12   0   4 552.458 455.359  17
  12   0  -4 1888.47 708.557   8
 -12   0   4 2923.50 754.647   7
 -12   0   4 2755.33 726.785  15
  12   0   4 2279.07 629.538   6
  12   0  -4 2527.80 502.201   6
  12   0   4 2890.81 878.449  14
  12   0  -4 2076.92 693.221  14
  12   0   5-108.411 197.460  14
  12   0   5-42.3408 126.399   6
  12   0  -5 5.07634 83.1409  14
 -12   0  -5-48.7109 137.021   3
 -12   0  -5 24.5668 190.551  12
 -12   0   5 134.601 372.947   5
  12   0  -5-307.451 347.913  11
 -12   0  -5 17.5986 240.422  19
  12   0  -5 48.3407 155.875   1
 -12   0   5 60.9465 156.026  19
  12   0   5 62.5739 77.3183  18
 -12   0  -5-514.128 539.699   4
 -12   0   5 311.464 267.470   2
  12   0  -5-68.4470 196.053  18
  12   0   5 25.3610 186.952   1
 -12   0  -5 35.2220 108.170  17
  12   0   5-187.138 212.660   8
 -12   0   5 9.56476 66.8052   4
 -12   0   5-2.39585 112.749  17
  12   0  -5-130.023 278.542   8
  12   0   6 4811.69 1035.93   1
 -12   0  -6 349.605 377.471  12
 -12   0  -6 269.752 199.946   3
  12   0  -6 3226.86 867.205   1
 -12   0   6 3205.61 969.260   5
 -12   0   6 3297.50 736.559   2
  12   0  -6 380.598 309.247  11
 -12   0   6 2707.48 738.892  19
 -12   0  -6 621.508 465.680  19
 -12   0   6 2702.98 807.129   4
  12   0   6 5100.94 1210.38   8
  12   0  -6 2106.10 767.771   8
  12   0  -6 1574.13 595.321  18
 -12   0   6 1362.35 603.082  17
  12   0   6 3401.96 826.192   6
  12   0   6 4594.61 1091.97  14
  12   0  -6 2372.15 739.439  14
  12   1   0 341.863 307.577  14
  12   1   0 28.9126 106.176   6
  12  -1   0 133.579 197.499  14
  12  -1   0 187.120 145.305   6
 -12  -1   0 480.197 266.010  12
 -12   1   0-56.1146 142.910  12
 -12  -1   0 28.4054 287.892   5
  12  -1   0 102.834 90.4241   1
  12   1   0 254.247 148.200  11
 -12   1   0 313.093 420.196   5
 -12  -1   0 265.583 330.483  19
 -12   1   0 150.267 128.179   2
 -12   1   0-14.2704 134.602  19
  12   1   0 143.560 180.478  18
  12  -1   0 26.8610 60.8129  18
 -12  -1   0-16.3920 195.431   4
 -12  -1   0 310.374 390.865  17
 -12   1   0 192.565 142.465   4
  12   1   0 229.374 362.035   8
 -12   1   0-412.108 303.288  17
  12  -1   0 308.458 300.983   8
  12   1   0 135.162 128.724   1
  12   1   1 233.182 193.636  14
  12   1   1 28.7333 38.0447   6
  12   1  -1 127.694 159.735  14
  12   1  -1-26.5886 128.977   6
  12  -1   1 305.135 268.307  14
  12  -1  -1-10.3324 127.235  14
  12  -1   1 150.478 174.201   6
  12  -1  -1 242.488 165.987   6
 -12  -1  -1 53.6585 144.250  12
  12  -1   1 35.8857 126.459   1
 -12  -1   1 116.667 162.106  12
 -12   1  -1 78.5924 87.1427  12
 -12   1   1-126.925 171.139  12
 -12  -1   1 373.181 436.377   5
  12   1   1-75.6671 150.710  11
  12   1  -1-415.763 350.332  11
 -12   1  -1 169.001 236.963   5
 -12   1   1-59.1368 242.802   5
  12  -1  -1 204.422 191.021   1
 -12  -1  -1-28.6394 225.809  19
 -12  -1   1 312.186 463.661  19
 -12   1  -1 101.816 175.989  19
 -12   1   1 87.4415 226.115  19
 -12   1   1 235.658 165.622   2
  12   1   1-40.4893 195.495  18
  12   1  -1 15.8628 183.921  18
 -12  -1  -1-347.086 430.614   4
  12  -1   1 49.2087 126.995  18
  12  -1  -1 18.6759 74.4669  18
 -12  -1   1 206.198 231.873   4
 -12   1  -1 122.182 252.655   4
 -12  -1  -1-150.264 249.104  17
 -12  -1   1 516.337 501.358  17
 -12   1   1-148.698 250.051   4
  12   1   1 564.555 381.305   8
  12   1  -1 190.000 284.404   8
 -12   1  -1-41.9425 94.5488  17
 -12   1   1-102.649 161.542  17
  12  -1   1 94.4225 204.854   8
  12  -1  -1 272.356 292.711   8
  12   1   1 210.013 213.785   1
 -12   1  -1 532.431 456.227   7
 -12   1  -1 399.022 517.503  15
  12   1  -1 67.7257 162.909   1
  12   1  -2 72.5145 129.988  14
  12   1  -2-39.6375 112.098   6
  12  -1   2-49.2908 169.081  14
  12  -1  -2 170.970 165.907  14
  12   1  -2 116.178 182.896   1
  12  -1   2 89.5128 156.888   6
  12  -1  -2 121.498 101.851   6
  12  -1   2 118.637 208.029   1
 -12  -1  -2-109.791 147.004  12
 -12   1  -2 141.147 208.100  12
 -12  -1   2-29.4057 44.4843  12
 -12  -1   2 148.011 199.581   5
  12   1   2 295.641 208.762  11
 -12   1  -2 150.080 216.870   5
  12   1  -2 129.700 90.3128  11
 -12   1   2-28.3432 187.023   5
 -12  -1  -2 198.231 210.549  19
 -12  -1   2 31.0219 92.0901  19
 -12   1  -2 158.562 296.781  19
 -12   1   2 65.8054 129.783  19
  12  -1  -2 134.255 69.6282   1
  12   1   2 191.666 260.339  18
  12   1  -2 8.74325 199.253  18
 -12   1   2 99.2462 118.424   2
 -12  -1  -2-309.084 578.379   4
  12  -1   2 82.3195 169.304  18
  12  -1  -2-52.1700 158.618  18
 -12  -1   2-70.7525 230.632   4
 -12   1  -2 311.686 376.100   4
 -12  -1  -2-251.162 231.636  17
 -12  -1   2 26.7599 237.722  17
  12   1   2 266.663 377.069   8
 -12   1   2 155.112 184.389   4
 -12   1  -2 316.641 244.198  17
  12   1  -2 233.063 319.217   8
 -12   1   2-53.3398 171.205  17
  12  -1   2 185.112 398.061   8
  12   1   2 223.965 317.769   1
  12  -1  -2 74.8368 160.946   8
 -12   1  -2 610.022 561.110   7
 -12   1  -2 345.581 430.874  15
  12   1   2 109.691 118.909   6
  12   1   2-16.3591 188.577  14
  12   1  -3 932.586 499.851  14
  12  -1   3 762.495 420.978  14
  12  -1  -3 690.628 383.945  14
  12  -1   3 1339.85 490.008   1
  12  -1   3 1038.11 420.134   6
  12   1  -3 1188.73 510.761   1
 -12  -1  -3 159.558 224.061  12
 -12   1  -3 196.817 202.815  12
 -12  -1   3-176.936 146.307  12
  12   1   3 1184.27 377.798  11
 -12   1  -3 520.723 505.687   5
 -12  -1   3 683.876 524.315   5
  12   1  -3 783.690 417.807  11
 -12   1   3 814.921 488.887   5
 -12  -1   3 602.787 350.205   2
 -12  -1  -3-102.450 107.546  19
 -12   1  -3 306.894 368.510  19
 -12  -1   3 382.127 240.621  19
 -12   1   3 797.814 416.484  19
  12  -1  -3 854.377 430.833   1
  12   1   3 896.110 385.721  18
  12   1  -3 805.715 385.064  18
  12  -1   3 275.205 215.587  18
  12  -1  -3 178.946 180.038  18
 -12   1   3 916.200 336.313   2
 -12  -1   3 321.237 218.999   4
 -12   1  -3 478.945 401.717   4
  12   1   3 1317.38 613.046   1
 -12  -1  -3-101.834 228.445  17
  12   1   3 1218.14 668.400   8
 -12  -1   3 456.606 389.185  17
 -12   1  -3-76.5467 125.474  17
 -12   1   3 822.577 492.369   4
  12  -1   3 777.433 474.834   8
 -12   1   3 234.341 261.604  17
  12   1  -3 1033.41 506.591   8
  12  -1  -3 669.864 361.028   8
 -12   1  -3 633.709 508.853   7
 -12   1  -3 525.919 358.806  15
  12  -1  -3 1207.80 381.014   6
  12   1   3 572.248 313.977   6
  12   1   3 1021.67 535.203  14
  12   1  -4-34.9628 56.6959  14
  12  -1   4 28.6032 84.8817  14
  12  -1  -4-45.7419 145.979  14
  12  -1   4 6.74935 107.034   6
 -12   1  -4-90.9723 160.006   3
  12  -1  -4-22.3972 113.401   6
  12   1  -4 66.7801 190.264   1
 -12  -1  -4 461.544 383.335  12
 -12   1  -4-229.476 189.270  12
 -12   1  -4-212.210 344.508   5
 -12  -1   4-69.0626 178.254   5
  12   1  -4-154.532 272.291  11
 -12   1   4 61.6010 180.608   5
 -12  -1  -4 23.9931 183.193  19
 -12   1  -4-269.147 290.529  19
 -12  -1   4-45.7514 202.725  19
 -12  -1   4 52.6631 121.155   2
 -12   1   4 44.1251 140.975  19
  12   1   4 22.8881 124.202  18
  12   1  -4-32.8079 207.110  18
  12  -1   4-61.3609 144.859  18
  12  -1  -4-0.19719 62.4257  18
  12   1   4 18.3078 156.436   1
 -12   1  -4 60.8991 106.762   4
  12  -1  -4-170.002 233.658   1
 -12  -1   4-46.8966 39.4297   4
 -12   1   4 110.595 141.852   2
 -12  -1  -4-114.337 217.240  17
  12   1   4 278.626 377.314   8
 -12  -1   4 131.723 247.159  17
 -12   1  -4-11.7946 92.7504  17
  12  -1   4-172.900 179.655   8
 -12   1   4 94.2215 231.197  17
 -12   1   4 55.4300 157.249   4
  12   1  -4-144.315 247.642   8
  12  -1  -4 209.385 350.166   8
 -12   1  -4-273.818 314.965   7
 -12   1  -4 80.4569 157.974  15
  12  -1   4-260.662 300.137   1
  12   1   4-205.070 282.629   6
  12   1   4 69.1043 126.686  14
  12   1  -5 1746.63 641.205  14
  12  -1  -5 1459.06 570.274  14
 -12   1  -5 125.798 132.638   3
  12   1   5 2739.39 889.034   1
  12  -1   5 3262.47 836.068   1
  12   1  -5 2066.34 687.907   1
 -12   1  -5 208.257 141.801  12
 -12   1  -5 1018.35 454.049   5
 -12  -1   5 1199.80 616.594   5
  12   1  -5 1111.39 451.706  11
 -12   1   5 1765.10 723.056   5
 -12  -1  -5 138.649 338.807  19
 -12   1  -5 987.222 426.104  19
 -12  -1   5 1571.97 513.054  19
 -12   1   5 1810.78 593.692  19
 -12  -1   5 1475.71 509.329   2
  12   1   5 2303.00 565.942  18
  12   1  -5 1860.94 614.204  18
  12  -1  -5 299.981 250.776  18
 -12   1  -5 564.937 418.999   4
 -12  -1   5 1383.90 554.011   4
 -12  -1  -5 124.135 78.3309  17
  12   1   5 3263.52 1016.99   8
 -12   1   5 1572.46 488.579   2
 -12  -1   5 534.787 345.029  17
  12  -1   5 3351.52 1009.25   8
  12  -1  -5 1663.27 605.692   1
 -12   1   5 583.502 360.666  17
 -12   1   5 1774.66 684.896   4
  12   1  -5 2140.39 723.430   8
  12  -1  -5 1125.34 540.565   8
 -12   1  -5 571.756 226.858   7
 -12   1  -5 784.293 369.825  15
  12  -1   5 2566.96 691.804   6
  12   1   5 2490.82 880.729  14
  12  -1  -5 2201.81 460.875   6
  12  -1   5 2324.06 778.897  14
  12   1   5 1270.71 474.852   6
  12  -1   6 102.609 225.745  14
  12   1  -6 35.0519 76.3561  14
  12  -1  -6 58.7545 75.3122  14
  12  -1   6 40.9792 126.691   6
 -12   1  -6 115.811 173.465   3
  12   1  -6 134.600 73.4767  13
 -12   1  -6 78.8043 113.205  12
  12   1  -6 67.8223 195.482   1
 -12  -1   6-158.199 292.176   5
  12   1  -6 185.134 251.287  11
 -12   1   6 112.823 262.025   5
 -12  -1  -6 301.222 374.300  19
 -12   1  -6 14.1967 161.520  19
 -12  -1   6 120.733 101.647  19
  12   1   6 60.5670 139.106   1
 -12   1   6 79.1773 91.4381  19
 -12  -1   6 144.740 172.412   2
  12   1   6 33.8421 93.7174  18
  12   1  -6-108.515 239.128  18
  12  -1  -6-134.253 327.974  18
 -12   1  -6-98.6892 257.825   4
 -12  -1  -6 200.954 191.187  17
 -12  -1   6-93.2134 218.255   4
  12   1   6-81.5394 200.981   8
 -12  -1   6 226.063 278.067  17
  12  -1   6-80.4098 98.9139   8
 -12   1   6-207.670 210.908   2
 -12   1   6-18.6573 107.316  17
 -12   1   6 8.14284 192.379   4
  12  -1   6 62.4066 171.949   1
  12   1  -6-211.277 312.594   8
  12  -1  -6-160.079 421.030   8
  12  -1  -6-17.8833 158.982   1
 -12   1  -6-839.059 513.583   7
 -12   1  -6-77.0825 350.026  15
  12   1   6-278.621 286.241   6
  12   1   6 16.7219 148.799  14
  12  -2   0 26.1717 117.640  14
  12  -2   0 80.7572 89.3561   6
 -12  -2   0-131.721 137.996  12
 -12   2   0-148.193 205.353  12
  12   2   0-32.0480 97.5664  11
 -12   2   0 82.5488 302.110   5
 -12  -2   0 128.503 88.9082  19
 -12   2   0-68.3601 189.329  19
  12   2   0-188.250 237.717  18
  12  -2   0 90.0337 189.552   1
 -12   2   0 136.223 146.863   2
 -12  -2   0 258.868 264.361  17
  12   2   0 154.075 396.181   8
  12   2   0 139.418 225.080   1
 -12   2   0-227.256 306.387   4
  12  -2   0-150.502 238.418   8
  12   2   0-87.9189 205.685  14
  12  -2   1 127.793 148.295  14
  12  -2  -1 97.9367 105.461  14
  12  -2   1 173.138 173.868   6
  12  -2  -1 240.833 195.101   6
 -12  -2  -1 181.703 187.314  12
 -12  -2   1-132.856 107.671  12
 -12   2  -1 68.7648 25.3744  12
  12   2   1 792.976 403.171  11
  12   2  -1 21.7657 79.4830  11
 -12   2  -1-6.92991 97.0656   5
 -12   2   1 285.651 230.143   5
 -12  -2  -1 25.6923 197.326  19
 -12  -2   1 326.959 254.015  19
  12  -2   1 310.156 265.626   1
 -12   2  -1 57.7727 149.981  19
 -12   2   1 183.429 285.697  19
  12   2   1 101.620 129.393  18
  12   2  -1 185.180 192.586  18
 -12   2   1 204.997 157.737   2
  12   2   1 13.0463 190.290   1
  12  -2  -1-28.9175 146.395   1
 -12  -2  -1-31.0079 38.3195  17
 -12  -2   1-20.1352 144.004  17
  12   2   1 18.8141 242.168   8
  12   2  -1-5.32297 247.295   8
 -12   2  -1 131.374 249.854   4
 -12   2   1 109.419 141.087   4
  12  -2   1 180.889 260.678   8
  12   2  -1 184.427 194.441   1
  12  -2  -1 157.609 164.618   8
  12   2   1 134.134 185.216  14
  12   2  -1 213.971 222.729  14
  12  -2   2 4.37586 99.7084  14
  12  -2  -2 72.6376 80.4932  14
  12  -2   2-114.390 114.171   6
  12  -2  -2 29.2327 61.7790   6
 -12  -2  -2 727.757 381.439  12
 -12  -2   2-48.7932 69.7624  12
 -12   2  -2-73.2162 123.973  12
  12   2   2 489.803 367.805  11
  12   2  -2-4.74556 111.782  11
 -12   2  -2 26.6892 240.288   5
  12  -2   2-151.804 254.358   1
 -12   2   2-125.616 191.328   5
 -12  -2  -2 62.8809 76.6786  19
 -12  -2   2 91.1913 171.114  19
 -12   2  -2-46.7958 129.099  19
 -12   2   2 83.9611 157.449  19
  12   2   2-66.1819 134.319  18
  12   2  -2-20.0140 180.523  18
 -12  -2   2-386.327 528.355   4
  12   2   2-51.7515 113.023   1
 -12  -2  -2 35.9544 263.444  17
  12   2   2 126.649 362.548   8
 -12  -2   2-44.3384 86.2550  17
 -12   2   2-0.53599 75.5859   2
 -12   2  -2 95.4417 145.576   4
  12   2  -2 19.5341 131.298   8
 -12   2   2 1.99912 86.8640   4
  12  -2   2 86.9530 280.806   8
  12  -2  -2-64.5904 231.616   1
  12  -2  -2-92.0597 188.849   8
  12   2  -2 1.82473 188.678   1
  12   2   2 27.3670 54.6750  14
  12   2  -2-52.0940 145.131  14
  12  -2   3 146.255 191.591  14
  12  -2  -3 43.7179 66.1884  14
  12  -2   3 145.711 115.059   6
  12  -2  -3 179.360 147.936   6
 -12   2  -3-2.16604 55.8888  12
  12  -2   3 186.284 215.101   1
 -12  -2   3 79.3586 148.945   5
  12   2  -3-73.2359 163.286  11
 -12   2  -3 29.7541 135.305   5
 -12   2   3 257.013 336.736   5
 -12  -2  -3 253.820 351.360  19
 -12  -2   3 24.4927 129.680  19
 -12   2  -3-97.9791 138.990  19
 -12   2   3 97.6386 203.593  19
  12   2   3 92.2334 244.147   1
  12   2   3 221.866 269.411  18
  12   2  -3 73.2020 203.492  18
 -12  -2   3-238.368 411.248   4
 -12  -2  -3 177.025 219.352  17
  12   2   3 163.462 256.804   8
 -12  -2   3-83.8153 148.859  17
 -12   2  -3 132.815 275.574   4
  12   2  -3-34.4165 220.563   8
 -12   2   3 215.602 174.404   2
  12  -2   3-184.543 300.034   8
 -12   2   3 273.431 321.974   4
  12  -2  -3 14.2102 51.4878   8
  12   2  -3 94.3777 62.0159   1
  12  -2  -3-6.43045 122.257   1
  12   2   3 259.061 288.280  14
  12   2  -3 154.845 77.2593  14
 -12   2  -4-26.7395 139.616   3
  12  -2   4 861.547 461.093  14
  12  -2  -4 585.459 401.501   1
  12  -2  -4 332.590 255.838  14
  12  -2   4 652.173 341.451   6
  12  -2   4 750.686 412.390   1
  12  -2  -4 553.038 236.085   6
 -12   2  -4-7.15744 135.110  12
 -12  -2   4 308.200 393.033   5
  12   2  -4 416.991 206.312  11
 -12   2  -4 301.808 241.000   5
 -12   2   4 531.995 418.561   5
 -12  -2  -4 12.4431 237.361  19
 -12  -2   4 15.3388 138.273  19
 -12   2  -4 370.281 311.258  19
  12   2   4 786.164 452.086   1
 -12   2   4 597.589 316.552  19
  12   2   4 589.383 342.457  18
  12   2  -4 450.209 288.650  18
 -12  -2   4 45.8829 219.795   4
 -12  -2  -4 12.3534 47.6614  17
  12   2   4 991.189 646.524   8
 -12   2  -4 141.547 152.109   4
 -12  -2   4 185.573 212.076  17
  12   2  -4 874.869 500.700   8
  12  -2   4 963.223 560.258   8
 -12   2   4 636.307 304.962   2
 -12   2   4 643.630 383.482   4
  12  -2  -4-7.88847 180.454   8
 -12   2  -4 1048.00 686.848  15
  12   2  -4 603.396 350.671   1
  12   2   4 535.980 415.878  14
  12   2  -4 416.009 317.686  14
  12   2  -5 7.32196 62.5281  14
  12  -2   5 131.063 241.757  14
  12   2  -5 291.636 328.774   1
  12  -2  -5 28.3481 215.513  14
 -12   2  -5 50.3592 195.916   3
  12  -2   5 84.2072 212.703   1
  12  -2   5 15.9342 12.7350   6
  12   2  -5 40.9770 20.4005  13
  12  -2  -5 176.981 245.743   1
  12  -2  -5 61.5174 65.9097   6
 -12   2  -5 306.093 330.329  12
 -12  -2   5 121.588 227.847   5
  12   2  -5 19.3001 154.440  11
 -12   2  -5-5.19871 188.377   5
  12   2   5-25.1935 137.324   1
 -12  -2   5 542.341 367.437   2
 -12  -2  -5 274.737 438.759  19
 -12   2   5 42.7223 281.856   5
 -12  -2   5 101.781 127.026  19
 -12   2  -5 157.050 285.861  19
 -12   2   5-67.4866 95.1576  19
  12   2   5 23.8082 55.2051  18
  12   2  -5 20.0555 55.4945  18
 -12  -2   5-79.1400 214.817   4
 -12  -2  -5 103.091 231.557  17
 -12   2  -5-95.4397 203.942   4
  12   2   5 113.891 108.332   8
 -12  -2   5 23.9502 37.4404  17
  12  -2   5 50.4690 224.461   8
  12   2  -5 35.3610 57.2205   8
 -12   2   5-99.0901 141.617   4
 -12   2   5 80.3391 148.493   2
  12  -2  -5-212.292 460.440   8
 -12   2  -5 598.322 526.200   7
 -12   2  -5 303.779 449.570  15
  12   2   5-173.924 325.102  14
  12  -3   0-15.6652 43.8068  14
  12  -3   0 33.0199 29.8567   6
 -12   3   0 210.609 278.715   5
 -12  -3   0 119.270 231.313  19
 -12   3   0-41.6011 105.321  19
  12   3   0-73.7145 224.358  18
  12   3   0-128.555 225.441   1
 -12  -3   0 230.164 240.217  17
  12   3   0 176.550 324.061   8
 -12   3   0-25.7584 91.1533   4
  12  -3   0-84.0022 180.999   8
  12  -3   0 202.354 250.032   1
  12   3   0-110.005 257.071  14
  12  -3   1 305.166 293.060  14
  12  -3  -1 477.056 338.802  14
  12  -3  -1 425.151 322.204   1
  12  -3   1 536.254 317.556   6
  12  -3  -1 341.175 226.170   6
 -12  -3   1 234.542 164.591  12
 -12   3  -1-23.3332 130.197  12
  12   3  -1 1996.65 699.351  11
 -12   3  -1 374.520 366.713   5
 -12   3   1 697.583 502.953   5
 -12  -3  -1 20.8490 343.129  19
 -12  -3   1-155.727 76.9548  19
 -12   3  -1 542.210 355.944  19
 -12   3   1 329.263 305.755  19
  12   3   1 971.744 576.561   1
  12   3   1 618.281 436.124  18
  12   3  -1 403.202 285.671  18
  12   3  -1 573.553 461.696   1
 -12  -3  -1 103.856 106.444  17
 -12  -3   1-63.2074 193.132  17
  12   3   1 742.092 625.507   8
  12   3  -1 480.974 237.321   8
 -12   3  -1 451.824 343.871   4
  12  -3   1 471.993 280.624   1
 -12   3   1 569.221 412.360   4
  12  -3   1 330.538 336.731   8
 -12   3   1 495.782 222.753   2
  12  -3  -1 263.990 344.495   8
  12   3   1 283.589 108.740  14
  12   3  -1 175.089 205.013  14
  12  -3   2 81.5003 134.916  14
  12  -3  -2 159.606 260.936  14
  12  -3   2 55.3626 97.2777   6
  12  -3  -2 191.101 198.181   6
  12  -3  -2 26.8750 159.576   1
 -12   3  -2-76.9206 150.109  12
  12   3  -2 822.672 503.192  11
 -12   3  -2 185.654 238.451   5
 -12  -3  -2-86.5994 322.925  19
 -12   3   2 139.349 248.707   5
 -12  -3   2 66.8071 168.023  19
  12   3   2 57.0468 215.882   1
 -12   3  -2 173.141 225.556  19
 -12   3   2 67.8939 161.277  19
  12   3   2 144.118 185.737  18
  12   3  -2 81.2055 31.9084  18
  12  -3   2 179.283 206.210   1
 -12  -3  -2 101.641 292.339  17
  12   3   2 365.642 459.452   8
 -12  -3   2-49.2351 210.317  17
  12   3  -2 143.860 217.572   1
  12   3  -2 170.777 296.121   8
 -12   3  -2 149.735 220.746   4
  12  -3   2 158.184 178.091   8
 -12   3   2 79.0135 167.475   4
  12  -3  -2-12.9506 274.866   8
 -12   3   2 69.7188 131.492   2
  12   3  -2 224.577 248.615  14
  12  -3   3 50.7852 167.717  14
  12  -3  -3 86.0363 73.0924  14
  12  -3   3 39.4204 96.5846   6
  12  -3  -3 112.820 116.090   6
 -12   3  -3 29.4069 120.451  12
  12   3  -3 146.757 223.079  11
  12  -3  -3 48.1121 123.616   1
 -12   3  -3 50.9111 98.4098   5
  12   3   3 102.268 186.606   1
 -12  -3  -3 84.0426 202.684  19
 -12  -3   3-226.207 261.150  19
 -12   3   3 8.39605 151.502   5
 -12   3  -3-62.2246 21.7445  19
 -12   3   3 43.8826 51.4481  19
  12  -3   3 71.5812 131.670   1
  12   3   3-18.2569 107.945  18
  12   3  -3-138.182 220.698  18
 -12  -3  -3 443.471 337.233  17
  12   3   3 227.781 345.842   8
 -12  -3   3 132.275 235.776  17
  12   3  -3 118.839 311.909   8
  12   3  -3-51.5195 194.962   1
 -12   3  -3-59.5690 178.374   4
  12  -3   3 15.2883 166.835   8
 -12   3   3 86.6412 218.020   4
  12  -3  -3-204.726 454.114   8
 -12   3   3 105.752 125.945   2
  12   3  -3-15.2711 173.181  14
 -12  -3  -4 271.803 327.363  19
 -12  -3   4-72.9939 126.986  19
 -12  -3  -4 479.247 425.489  17
 -12  -3   4 23.0330 87.0978  17
   0   0   0    0.00    0.00   0

TITL HFMOF_48 in P4/mnc
REM P4/mnc (#128 in standard setting)
CELL 0.71073  18.844533  18.844533  32.895653  90.0000  90.0000  90.0000
ZERR   16.00   0.001308   0.001308   0.002678   0.0000   0.0000   0.0000
LATT  1
SYMM -x,-y, z
SYMM -y, x, z
SYMM  y,-x, z
SYMM -x+1/2, y+1/2,-z+1/2
SYMM  x+1/2,-y+1/2,-z+1/2
SYMM  y+1/2, x+1/2,-z+1/2
SYMM -y+1/2,-x+1/2,-z+1/2
SFAC C H O Hf
UNIT 704.00 576.00 128.00 16.00
TREF
HKLF 4
END
;
_shelx_hkl_checksum              73857
_shelx_shelxl_version_number     2014/7
_olex2_submission_special_instructions 'No special instructions were received'
_oxdiff_exptl_absorpt_empirical_details
;
Empirical correction (ABSPACK) includes:
- Absorption correction using spherical harmonics
- Frame scaling
;
_oxdiff_exptl_absorpt_empirical_full_max 2.070
_oxdiff_exptl_absorpt_empirical_full_min 0.589
loop_
_space_group_symop_operation_xyz
'x, y, z'
'-x, -y, z'
'-y, x, z'
'y, -x, z'
'-x+1/2, y+1/2, -z+1/2'
'x+1/2, -y+1/2, -z+1/2'
'y+1/2, x+1/2, -z+1/2'
'-y+1/2, -x+1/2, -z+1/2'
'-x, -y, -z'
'x, y, -z'
'y, -x, -z'
'-y, x, -z'
'x-1/2, -y-1/2, z-1/2'
'-x-1/2, y-1/2, z-1/2'
'-y-1/2, -x-1/2, z-1/2'
'y-1/2, x-1/2, z-1/2'
loop_
_atom_site_label
_atom_site_type_symbol
_atom_site_fract_x
_atom_site_fract_y
_atom_site_fract_z
_atom_site_U_iso_or_equiv
_atom_site_adp_type
_atom_site_occupancy
_atom_site_site_symmetry_order
_atom_site_calc_flag
_atom_site_refinement_flags_posn
_atom_site_refinement_flags_adp
_atom_site_refinement_flags_occupancy
_atom_site_disorder_assembly
_atom_site_disorder_group
Hf1 Hf -0.0463(3) 0.1231(3) 0.0000 0.034(5) Uani 1 2 d DS TU P . .
Hf2 Hf 0.0000 0.0000 0.0732(2) 0.025(5) Uani 1 4 d DS TU P . .
O1 O -0.030(2) 0.0898(16) 0.1082(12) 0.033(16) Uiso 1 1 d D U . . .
O4 O -0.084(3) 0.035(3) 0.0378(16) 0.054(19) Uiso 1 1 d . U . . .
O13 O -0.066(3) 0.173(2) 0.0573(8) 0.039(17) Uiso 1 1 d D U . . .
O19 O -0.147(4) 0.160(4) 0.0000 0.06(3) Uiso 1 2 d S TU P . .
O20 O 0.009(4) 0.227(4) 0.0000 0.06(3) Uiso 1 2 d S TU P . .
C3 C -0.0717(11) 0.317(2) 0.1934(13) 0.07(2) Uiso 1 1 d D U . . .
C4 C -0.093(2) 0.336(2) 0.1486(19) 0.10(3) Uiso 1 1 d D U . . .
H4 H -0.1087 0.3805 0.1410 0.115 Uiso 1 1 calc R . . . .
C5 C -0.087(2) 0.280(3) 0.1211(12) 0.09(3) Uiso 1 1 d D U . . .
H5 H -0.1001 0.2906 0.0944 0.111 Uiso 1 1 calc R . . . .
C6 C -0.0656(12) 0.211(3) 0.1277(15) 0.08(2) Uiso 1 1 d D U . . .
C7 C -0.044(2) 0.193(2) 0.1725(19) 0.11(3) Uiso 1 1 d D U . . .
H7 H -0.0286 0.1477 0.1801 0.128 Uiso 1 1 calc R . . . .
C8 C -0.0499(19) 0.248(3) 0.2001(11) 0.09(3) Uiso 1 1 d D U . . .
H8 H -0.0372 0.2377 0.2267 0.110 Uiso 1 1 calc R . . . .
C9 C -0.0779(12) 0.3742(15) 0.2209(7) 0.02(2) Uiso 1 1 d D U . . .
C16 C -0.0267(18) 0.427(2) 0.2218(13) 0.00(3) Uiso 0.5 1 d DG U . A -2
C15 C -0.028(4) 0.473(3) 0.251(2) 0.00(3) Uiso 1 2 d DG U . A .
C15D C -0.080(5) 0.475(5) 0.282(3) 0.050 Uiso 0 1 d DG . . A .
C9D C -0.131(4) 0.422(4) 0.281(2) 0.050 Uiso 0 1 d DG . . A .
C10 C -0.1301(16) 0.3703(15) 0.2502(7) 0.04(3) Uiso 1 2 d DG U . A .
C11 C -0.1809(11) 0.3191(11) 0.2500 0.08(4) Uiso 1 2 d DS TU P . .
H11A H -0.1675 0.2817 0.2683 0.115 Uiso 0.5 1 calc GR . . A -1
H11B H -0.1857 0.3004 0.2230 0.115 Uiso 0.5 1 calc GR . . A -1
H11C H -0.2252 0.3392 0.2586 0.115 Uiso 0.5 1 calc GR . . A -1
C12 C -0.0605(15) 0.156(2) 0.0988(11) 0.03(2) Uiso 1 1 d D U . . .
C17 C 0.0241(17) 0.434(2) 0.1947(14) 0.16(4) Uiso 1 1 d D U . A -2
H H 0.0560 0.3944 0.1968 0.236 Uiso 1 1 calc GR . . . .
HA H 0.0497 0.4772 0.1996 0.236 Uiso 1 1 calc GR . . . .
HB H 0.0038 0.4352 0.1679 0.236 Uiso 1 1 calc GR . . . .
loop_
_atom_site_aniso_label
_atom_site_aniso_U_11
_atom_site_aniso_U_22
_atom_site_aniso_U_33
_atom_site_aniso_U_23
_atom_site_aniso_U_13
_atom_site_aniso_U_12
Hf1 0.048(7) 0.034(6) 0.021(7) 0.000 0.000 0.010(5)
Hf2 0.029(6) 0.029(6) 0.018(8) 0.000 0.000 0.000
loop_
_atom_type_symbol
_atom_type_description
_atom_type_scat_dispersion_real
_atom_type_scat_dispersion_imag
_atom_type_scat_source
C C 0.0033 0.0016 'International Tables Vol C Tables 4.2.6.8 and 6.1.1.4'
H H 0.0000 0.0000 'International Tables Vol C Tables 4.2.6.8 and 6.1.1.4'
Hf Hf -0.5830 6.1852 'International Tables Vol C Tables 4.2.6.8 and 6.1.1.4'
O O 0.0106 0.0060 'International Tables Vol C Tables 4.2.6.8 and 6.1.1.4'
loop_
_exptl_crystal_face_index_h
_exptl_crystal_face_index_k
_exptl_crystal_face_index_l
_exptl_crystal_face_perp_dist
0 -5 -4 0.0262
0 5 4 0.0262
5 0 2 0.0502
1 -2 5 0.0464
-1 2 -5 0.0460
-5 1 -4 0.0464
2 2 -5 0.0533
-5 -1 1 0.0414
-3 -2 5 0.0489
5 2 -5 0.0567
-1 -2 5 0.0510
loop_
_geom_angle_atom_site_label_1
_geom_angle_atom_site_label_2
_geom_angle_atom_site_label_3
_geom_angle
_geom_angle_site_symmetry_1
_geom_angle_site_symmetry_3
Hf1 Hf1 Hf1 90.0 3 11
Hf2 Hf1 Hf1 59.53(6) 9 3
Hf2 Hf1 Hf1 59.53(6) . 3
Hf2 Hf1 Hf1 59.53(6) . 11
Hf2 Hf1 Hf1 59.53(6) 9 11
Hf2 Hf1 Hf2 88.36(19) . 9
O4 Hf1 Hf1 36.2(14) 4 11
O4 Hf1 Hf1 36.2(14) 11 11
O4 Hf1 Hf1 88.9(15) 11 3
O4 Hf1 Hf1 34.5(14) . 3
O4 Hf1 Hf1 34.5(14) 10 3
O4 Hf1 Hf1 89.0(14) 10 11
O4 Hf1 Hf1 89.0(14) . 11
O4 Hf1 Hf1 88.9(15) 4 3
O4 Hf1 Hf2 33.9(15) 4 .
O4 Hf1 Hf2 88.1(15) . 9
O4 Hf1 Hf2 33.9(15) 11 9
O4 Hf1 Hf2 89.6(14) 4 9
O4 Hf1 Hf2 34.8(14) . .
O4 Hf1 Hf2 34.8(14) 10 9
O4 Hf1 Hf2 89.6(14) 11 .
O4 Hf1 Hf2 88.1(14) 10 .
O4 Hf1 O4 108(3) 11 .
O4 Hf1 O4 72(3) 4 11
O4 Hf1 O4 108(3) 4 10
O4 Hf1 O4 69(3) 4 .
O4 Hf1 O4 69(3) . 10
O4 Hf1 O4 69(3) 11 10
O4 Hf1 O13 75.9(19) 11 10
O4 Hf1 O13 143(2) 11 .
O4 Hf1 O13 143(2) 4 10
O4 Hf1 O13 75.9(19) 4 .
O4 Hf1 O20 88(2) 4 .
O4 Hf1 O20 145.2(14) . .
O4 Hf1 O20 88(2) 11 .
O4 Hf1 O20 145.2(14) 10 .
O13 Hf1 Hf1 109.2(13) 10 3
O13 Hf1 Hf1 109.2(13) . 3
O13 Hf1 Hf1 109.7(13) . 11
O13 Hf1 Hf1 109.7(13) 10 11
O13 Hf1 Hf2 73.9(13) . .
O13 Hf1 Hf2 162.2(13) . 9
O13 Hf1 Hf2 73.9(13) 10 9
O13 Hf1 Hf2 162.2(13) 10 .
O13 Hf1 O4 140.9(19) 10 .
O13 Hf1 O4 140.9(19) . 10
O13 Hf1 O4 77.1(18) 10 10
O13 Hf1 O4 77.1(18) . .
O13 Hf1 O13 124(3) . 10
O13 Hf1 O20 72.1(15) . .
O13 Hf1 O20 72.1(15) 10 .
O19 Hf1 Hf1 176(2) . 11
O19 Hf1 Hf1 86(2) . 3
O19 Hf1 Hf2 117.8(13) . .
O19 Hf1 Hf2 117.8(13) . 9
O19 Hf1 O4 143.4(15) . 11
O19 Hf1 O4 143.4(15) . 4
O19 Hf1 O4 87(2) . 10
O19 Hf1 O4 87(2) . .
O19 Hf1 O13 71.9(15) . 10
O19 Hf1 O13 71.9(15) . .
O19 Hf1 O20 98(3) . .
O20 Hf1 Hf1 86.4(19) . 11
O20 Hf1 Hf1 176.4(19) . 3
O20 Hf1 Hf2 118.3(12) . .
O20 Hf1 Hf2 118.3(12) . 9
Hf1 Hf2 Hf1 91.65(19) . 9
Hf1 Hf2 Hf1 60.94(11) . 3
Hf1 Hf2 Hf1 60.95(11) 3 9
Hf1 Hf2 Hf1 91.65(19) 3 11
Hf1 Hf2 Hf1 60.95(11) 9 11
Hf1 Hf2 Hf1 60.95(11) . 11
O1 Hf2 Hf1 77.0(12) 3 3
O1 Hf2 Hf1 110.9(12) . 11
O1 Hf2 Hf1 77.0(12) 2 9
O1 Hf2 Hf1 113.5(12) . 3
O1 Hf2 Hf1 113.5(12) 3 9
O1 Hf2 Hf1 113.5(12) 2 11
O1 Hf2 Hf1 110.9(12) 2 3
O1 Hf2 Hf1 77.0(12) . .
O1 Hf2 Hf1 110.9(12) 4 9
O1 Hf2 Hf1 77.0(12) 4 11
O1 Hf2 Hf1 168.5(12) 4 3
O1 Hf2 Hf1 113.5(12) 4 .
O1 Hf2 Hf1 168.5(12) . 9
O1 Hf2 Hf1 168.5(12) 2 .
O1 Hf2 Hf1 110.9(12) 3 .
O1 Hf2 Hf1 168.5(12) 3 11
O1 Hf2 O1 114(2) 4 3
O1 Hf2 O1 73.0(12) 4 2
O1 Hf2 O1 114(2) . 2
O1 Hf2 O1 73.0(12) . 3
O1 Hf2 O1 73.0(12) . 4
O1 Hf2 O1 73.0(12) 3 2
O4 Hf2 Hf1 92.3(15) 3 .
O4 Hf2 Hf1 92.3(14) 4 9
O4 Hf2 Hf1 34.4(15) 2 11
O4 Hf2 Hf1 34.4(15) 3 9
O4 Hf2 Hf1 90.8(16) 3 11
O4 Hf2 Hf1 37.1(14) 4 11
O4 Hf2 Hf1 34.4(15) . 3
O4 Hf2 Hf1 34.4(15) 4 .
O4 Hf2 Hf1 37.1(14) 3 3
O4 Hf2 Hf1 37.1(14) 2 9
O4 Hf2 Hf1 90.8(16) 4 3
O4 Hf2 Hf1 90.8(16) 2 .
O4 Hf2 Hf1 92.3(15) 2 3
O4 Hf2 Hf1 92.3(15) . 11
O4 Hf2 Hf1 37.1(14) . .
O4 Hf2 Hf1 90.8(16) . 9
O4 Hf2 O1 77.3(19) 4 .
O4 Hf2 O1 140(2) 4 3
O4 Hf2 O1 77.3(19) 2 4
O4 Hf2 O1 140(2) 3 4
O4 Hf2 O1 146(2) 2 3
O4 Hf2 O1 77.4(19) . 3
O4 Hf2 O1 81(2) 3 3
O4 Hf2 O1 140(2) 2 .
O4 Hf2 O1 140(2) . 2
O4 Hf2 O1 146(2) 4 2
O4 Hf2 O1 81(2) 2 2
O4 Hf2 O1 146(2) 3 .
O4 Hf2 O1 146(2) . 4
O4 Hf2 O1 77.3(19) 3 2
O4 Hf2 O1 81(2) 4 4
O4 Hf2 O1 81(2) . .
O4 Hf2 O4 112(3) 2 .
O4 Hf2 O4 71.5(15) 4 .
O4 Hf2 O4 112(3) 3 4
O4 Hf2 O4 71.5(15) 4 2
O4 Hf2 O4 71.5(15) 3 .
O4 Hf2 O4 71.5(15) 3 2
C12 O1 Hf2 134(3) . .
Hf1 O4 Hf1 109(2) 3 .
Hf2 O4 Hf1 108(2) . .
Hf2 O4 Hf1 112(3) . 3
C12 O13 Hf1 138(3) . .
C8 C3 C4 115.9(12) . .
C8 C3 C9 130(4) . .
C9 C3 C4 114(4) . .
C3 C4 H4 122.4 . .
C5 C4 C3 115(4) . .
C5 C4 H4 122.4 . .
C4 C5 H5 115.5 . .
C6 C5 C4 129(4) . .
C6 C5 H5 115.5 . .
C5 C6 C7 115.9(13) . .
C5 C6 C12 127(4) . .
C12 C6 C7 117(4) . .
C6 C7 H7 122.5 . .
C8 C7 C6 115(4) . .
C8 C7 H7 122.4 . .
C3 C8 C7 129(4) . .
C3 C8 H8 115.5 . .
C7 C8 H8 115.5 . .
C16 C9 C3 120.3(9) . .
C16 C9 C10 121.2 . .
C10 C9 C3 117.8(12) . .
C9 C16 C15 119.4 . .
C17 C16 C9 124.1(2) . .
C17 C16 C15 116.5(2) . .
C15 C15 C16 116(6) 8 .
C15 C15 C16 28(10) 7_455 .
C15 C15 C16 117(5) 2_565 .
C15 C15 C15 2(5) 2_565 8
C15 C15 C15 89(10) 7_455 8
C15 C15 C15 89(9) 7_455 2_565
C9 C10 C9 114.0(19) 7_455 .
C9 C10 C11 123.5(19) 7_455 .
C11 C10 C9 122.5(2) . .
C10 C11 H11A 111.1 . .
C10 C11 H11B 111.0 . .
C10 C11 H11C 111.0 . .
H11A C11 H11B 107.9 . .
H11A C11 H11C 107.9 . .
H11B C11 H11C 107.9 . .
O1 C12 C6 122(4) . .
O13 C12 O1 116(4) . .
O13 C12 C6 119(3) . .
C16 C17 H 110.8 . .
C16 C17 HA 110.8 . .
C16 C17 HB 110.8 . .
H C17 HA 108.1 . .
H C17 HB 108.1 . .
HA C17 HB 108.1 . .
loop_
_geom_bond_atom_site_label_1
_geom_bond_atom_site_label_2
_geom_bond_distance
_geom_bond_site_symmetry_2
Hf1 Hf1 3.506(8) 11
Hf1 Hf1 3.506(8) 3
Hf1 Hf2 3.457(6) 9
Hf1 Hf2 3.457(6) .
Hf1 O4 2.10(5) 11
Hf1 O4 2.19(5) .
Hf1 O4 2.10(5) 4
Hf1 O4 2.19(5) 10
Hf1 O13 2.135(19) 10
Hf1 O13 2.135(19) .
Hf1 O19 2.01(8) .
Hf1 O20 2.22(8) .
Hf2 Hf1 3.457(6) 11
Hf2 Hf1 3.457(6) 3
Hf2 Hf1 3.457(6) 9
Hf2 O1 2.124(19) 2
Hf2 O1 2.124(19) 3
Hf2 O1 2.124(19) .
Hf2 O1 2.124(19) 4
Hf2 O4 2.07(5) 2
Hf2 O4 2.07(5) 4
Hf2 O4 2.07(5) .
Hf2 O4 2.07(5) 3
O1 C12 1.408(9) .
O4 Hf1 2.10(5) 3
O13 C12 1.406(9) .
C3 C4 1.57(6) .
C3 C8 1.38(6) .
C3 C9 1.411(6) .
C4 H4 0.9300 .
C4 C5 1.390(10) .
C5 H5 0.9300 .
C5 C6 1.38(6) .
C6 C7 1.57(6) .
C6 C12 1.411(6) .
C7 H7 0.9300 .
C7 C8 1.391(10) .
C8 H8 0.9300 .
C9 C16 1.3900 .
C9 C10 1.3775 .
C16 C15 1.2857 .
C16 C17 1.314(4) .
C15 C15 1.45(6) 2_565
C15 C15 1.45(6) 8
C15 C15 0.05(9) 7_455
C10 C9 1.36(2) 7_455
C10 C11 1.359(4) .
C11 H11A 0.9736 .
C11 H11B 0.9735 .
C11 H11C 0.9735 .
C17 H 0.9716 .
C17 HA 0.9716 .
C17 HB 0.9716 .
loop_
_geom_torsion_atom_site_label_1
_geom_torsion_atom_site_label_2
_geom_torsion_atom_site_label_3
_geom_torsion_atom_site_label_4
_geom_torsion
_geom_torsion_site_symmetry_4
Hf1 O13 C12 O1 5(7) .
Hf1 O13 C12 C6 167(3) .
Hf2 O1 C12 O13 -9(6) .
Hf2 O1 C12 C6 -170(2) .
C3 C4 C5 C6 0.0(5) .
C3 C9 C16 C15 -170(5) .
C3 C9 C16 C17 9(5) .
C3 C9 C10 C9 171(4) 7_455
C3 C9 C10 C11 -9(5) .
C4 C3 C8 C7 0.0(4) .
C4 C3 C9 C16 -78(3) .
C4 C3 C9 C10 111(3) .
C4 C5 C6 C7 0.0(4) .
C4 C5 C6 C12 -180.0(3) .
C5 C6 C7 C8 0.0(4) .
C5 C6 C12 O1 173(3) .
C5 C6 C12 O13 12(3) .
C6 C7 C8 C3 0.0(5) .
C7 C6 C12 O1 -7(3) .
C7 C6 C12 O13 -168(3) .
C8 C3 C4 C5 0.0(3) .
C8 C3 C9 C16 102(3) .
C8 C3 C9 C10 -69(3) .
C9 C3 C4 C5 -180.0(2) .
C9 C3 C8 C7 180.0(3) .
C9 C16 C15 C15 -179(5) 8
C9 C16 C15 C15 -177(100) 7_455
C9 C16 C15 C15 179(9) 2_565
C16 C9 C10 C9 0(5) 7_455
C16 C9 C10 C11 179.8(6) .
C10 C9 C16 C15 0.6 .
C10 C9 C16 C17 -179.70(16) .
C12 C6 C7 C8 180.0(2) .
C17 C16 C15 C15 -1(9) 2_565
C17 C16 C15 C15 3(100) 7_455
C17 C16 C15 C15 1(5) 8
loop_
_exptl_oxdiff_crystal_face_indexfrac_h
_exptl_oxdiff_crystal_face_indexfrac_k
_exptl_oxdiff_crystal_face_indexfrac_l
_exptl_oxdiff_crystal_face_x
_exptl_oxdiff_crystal_face_y
_exptl_oxdiff_crystal_face_z
-0.0043 -4.9988 -3.9948 -0.2060 0.0127 0.0117
0.0043 4.9988 3.9948 0.2060 -0.0127 -0.0117
5.0001 -0.0009 1.9971 0.0127 -0.1681 0.0943
1.0008 -1.9989 5.0024 -0.0156 0.0051 0.1359
-1.0008 1.9989 -5.0024 0.0156 -0.0051 -0.1359
-5.0003 1.0003 -3.9985 -0.0005 0.1504 -0.1474
1.9988 1.9981 -5.0043 0.0108 -0.1125 -0.1010
-4.9994 -0.9983 1.0045 -0.0146 0.1913 -0.0231
-2.9986 -1.9979 5.0050 -0.0092 0.1483 0.0894
4.9983 1.9974 -5.0063 0.0061 -0.2199 -0.0662
-0.9989 -1.9984 5.0037 -0.0124 0.0767 0.1126
