#------------------------------------------------------------------------------
#$Date: 2019-11-25 22:32:00 +0200 (Mon, 25 Nov 2019) $
#$Revision: 241968 $
#$URL: file:///home/coder/svn-repositories/cod/cif/4/13/18/4131865.cif $
#------------------------------------------------------------------------------
#
# This file is available in the Crystallography Open Database (COD),
# http://www.crystallography.net/
#
# All data on this site have been placed in the public domain by the
# contributors.
#
data_4131865
loop_
_publ_author_name
'Yan, Yong'
'O'Connor, Alice E'
'Kanthasamy, Gopikkaa'
'Atkinson, George'
'Allan, David R.'
'Blake, Alexander J.'
'Schr\"oder, Martin'
_publ_section_title
;
 Unusual and Tunable Negative Linear Compressibility in the Metal-Organic
 Framework MFM-133(M) (M = Zr, Hf).
;
_journal_issue                   11
_journal_name_full               'Journal of the American Chemical Society'
_journal_page_first              3952
_journal_page_last               3958
_journal_paper_doi               10.1021/jacs.7b11747
_journal_volume                  140
_journal_year                    2018
_chemical_formula_moiety         '0.25(C184 H136 O64 Zr12)'
_chemical_formula_sum            'C46 H34 O16 Zr3'
_chemical_formula_weight         1116.39
_space_group_crystal_system      tetragonal
_space_group_IT_number           128
_space_group_name_Hall           '-P 4 2n'
_space_group_name_H-M_alt        'P 4/m n c'
_atom_sites_solution_hydrogens   geom
_atom_sites_solution_primary     direct
_audit_creation_date             2016-09-01
_audit_creation_method
;
Olex2 1.2
(compiled 2016.08.25 svn.r3337 for OlexSys, GUI svn.r5221)
;
_cell_angle_alpha                90
_cell_angle_beta                 90
_cell_angle_gamma                90
_cell_formula_units_Z            4
_cell_length_a                   19.1734(16)
_cell_length_b                   19.1734(16)
_cell_length_c                   33.032(6)
_cell_measurement_reflns_used    1455
_cell_measurement_temperature    293.15
_cell_measurement_theta_max      21.5810
_cell_measurement_theta_min      2.0630
_cell_volume                     12143(3)
_computing_cell_refinement
;
CrysAlisPro, Agilent Technologies,
Version 1.171.37.34 (release 22-05-2014 CrysAlis171 .NET)
(compiled May 22 2014,16:03:01)
;
_computing_data_collection
;
CrysAlisPro, Agilent Technologies,
Version 1.171.37.34 (release 22-05-2014 CrysAlis171 .NET)
(compiled May 22 2014,16:03:01)
;
_computing_data_reduction
;
CrysAlisPro, Agilent Technologies,
Version 1.171.37.34 (release 22-05-2014 CrysAlis171 .NET)
(compiled May 22 2014,16:03:01)
;
_computing_molecular_graphics    'Olex2 (Dolomanov et al., 2009)'
_computing_publication_material  'Olex2 (Dolomanov et al., 2009)'
_computing_structure_refinement  'ShelXL (Sheldrick, 2015)'
_computing_structure_solution    'ShelXS (Sheldrick, 2008)'
_diffrn_ambient_temperature      293.15
_diffrn_detector                 Dectris
_diffrn_detector_area_resol_mean 5.81395
_diffrn_detector_type            'Pilatus 300K detector'
_diffrn_measured_fraction_theta_full 0.761
_diffrn_measured_fraction_theta_max 0.761
_diffrn_measurement_details
;
#__ type_ start__ end____ width___ exp.time_
  1 omega -105.00  -74.00   0.2000    0.9970
omega____ theta____ kappa____ phi______ frames
    -       20.0000   70.0000  155.7700 155

#__ type_ start__ end____ width___ exp.time_
  2 omega -105.00  -74.00   0.2000    0.9970
omega____ theta____ kappa____ phi______ frames
    -       20.0000   70.0000  -24.2300 155

#__ type_ start__ end____ width___ exp.time_
  3 omega -106.00  -66.00   0.2000    0.9970
omega____ theta____ kappa____ phi______ frames
    -      -20.0000  -70.0000 -155.7700 200

#__ type_ start__ end____ width___ exp.time_
  4 omega -106.00  -66.00   0.2000    0.9970
omega____ theta____ kappa____ phi______ frames
    -      -20.0000  -70.0000   24.2300 200

#__ type_ start__ end____ width___ exp.time_
  5 omega -150.00  -94.00   0.2000    0.9970
omega____ theta____ kappa____ phi______ frames
    -      -20.0000   70.0000  -24.2319 280

#__ type_ start__ end____ width___ exp.time_
  6 omega -150.00  -94.00   0.2000    0.9970
omega____ theta____ kappa____ phi______ frames
    -      -20.0000   70.0000  155.7681 280

#__ type_ start__ end____ width___ exp.time_
  7 omega  -96.00  -30.00   0.2000    0.9970
omega____ theta____ kappa____ phi______ frames
    -       20.0000  -70.0000   24.2300 330

#__ type_ start__ end____ width___ exp.time_
  8 omega  -96.00  -30.00   0.2000    0.9970
omega____ theta____ kappa____ phi______ frames
    -       20.0000  -70.0000 -155.7700 330
;
_diffrn_measurement_device       'k-geometry diffractometer'
_diffrn_measurement_device_type
'Newport 4-circle kappa geometry diffractometer'
_diffrn_measurement_method       'oscillation method'
_diffrn_orient_matrix_UB_11      0.0023404000
_diffrn_orient_matrix_UB_12      0.0321989000
_diffrn_orient_matrix_UB_13      0.0091325000
_diffrn_orient_matrix_UB_21      -0.0169731000
_diffrn_orient_matrix_UB_22      -0.0129029000
_diffrn_orient_matrix_UB_23      0.0167964000
_diffrn_orient_matrix_UB_31      0.0315928000
_diffrn_orient_matrix_UB_32      -0.0092823000
_diffrn_orient_matrix_UB_33      0.0083479000
_diffrn_radiation_collimation    '0.5 mm pinhole'
_diffrn_radiation_monochromator  'Si 111 double-crystal monochromator'
_diffrn_radiation_probe          x-ray
_diffrn_radiation_wavelength     0.6889
_diffrn_reflns_av_R_equivalents  0.5126
_diffrn_reflns_av_unetI/netI     0.4567
_diffrn_reflns_Laue_measured_fraction_full 0.761
_diffrn_reflns_Laue_measured_fraction_max 0.761
_diffrn_reflns_limit_h_max       21
_diffrn_reflns_limit_h_min       -21
_diffrn_reflns_limit_k_max       13
_diffrn_reflns_limit_k_min       -13
_diffrn_reflns_limit_l_max       35
_diffrn_reflns_limit_l_min       -35
_diffrn_reflns_number            25151
_diffrn_reflns_point_group_measured_fraction_full 0.761
_diffrn_reflns_point_group_measured_fraction_max 0.761
_diffrn_reflns_theta_full        22.734
_diffrn_reflns_theta_max         22.734
_diffrn_reflns_theta_min         1.884
_diffrn_source                   'Synchrotron U21 undulator'
_diffrn_source_type              'Synchrotron Diamond Light Source'
_exptl_absorpt_coefficient_mu    0.258
_exptl_absorpt_correction_T_max  0.4269
_exptl_absorpt_correction_T_min  0.3127
_exptl_absorpt_correction_type   multi-scan
_exptl_absorpt_process_details
;
SADABS-2014/5 (Bruker,2014/5) was used for absorption correction. 
wR2(int) was 0.1374 before and 0.1171 after correction. 
The Ratio of minimum to maximum transmission is 0.7325.
The \l/2 correction factor is Not present.
;
_exptl_crystal_colour            'clear colourless'
_exptl_crystal_colour_lustre     clear
_exptl_crystal_colour_primary    colourless
_exptl_crystal_density_diffrn    0.611
_exptl_crystal_description       octahedral
_exptl_crystal_F_000             2232
_exptl_crystal_size_max          0.046
_exptl_crystal_size_mid          0.046
_exptl_crystal_size_min          0.033
_refine_diff_density_max         0.582
_refine_diff_density_min         -0.834
_refine_diff_density_rms         0.111
_refine_ls_extinction_method     none
_refine_ls_goodness_of_fit_ref   1.135
_refine_ls_hydrogen_treatment    constr
_refine_ls_matrix_type           full
_refine_ls_number_parameters     75
_refine_ls_number_reflns         3502
_refine_ls_number_restraints     66
_refine_ls_restrained_S_all      1.141
_refine_ls_R_factor_all          0.2984
_refine_ls_R_factor_gt           0.1407
_refine_ls_shift/su_max          0.000
_refine_ls_shift/su_mean         0.000
_refine_ls_structure_factor_coef Fsqd
_refine_ls_weighting_details
'w=1/[\s^2^(Fo^2^)+(0.2000P)^2^] where P=(Fo^2^+2Fc^2^)/3'
_refine_ls_weighting_scheme      calc
_refine_ls_wR_factor_gt          0.3593
_refine_ls_wR_factor_ref         0.4563
_reflns_Friedel_coverage         0.000
_reflns_number_gt                976
_reflns_number_total             3502
_reflns_threshold_expression     'I > 2\s(I)'
_cod_data_source_file            ZrMOF_All.cif
_cod_data_source_block           27.6kbar
_cod_database_code               4131865
_chemical_oxdiff_formula         'C46 H42 O16 Zr3'
_shelx_space_group_comment
;
The symmetry employed for this shelxl refinement is uniquely defined
by the following loop, which should always be used as a source of
symmetry information in preference to the above space-group names.
They are only intended as comments.
;
_reflns_odcompleteness_completeness 75.11
_reflns_odcompleteness_iscentric 1
_reflns_odcompleteness_theta     22.85
_olex2_refinement_description
;
1. Fixed Uiso
 At 1.2 times of:
  All C(H) groups
 At 1.5 times of:
  All C(H,H,H) groups
2. Restrained distances
 C3-C2 = C4-C3
 1.39 with sigma of 0.01
 C8-C5 = C2-C1 = C9-C10 = C13-C11
 1.5 with sigma of 0.01
 C7-C2 = C6-C5 = C5-C4
 1.39 with sigma of 0.01
 C12-C11 = C8-C11 = C9-C8
 1.39 with sigma of 0.02
 C2-C7
 1.39 with sigma of 0.01
 C6-C5
 1.39 with sigma of 0.01
 C4-C3
 1.39 with sigma of 0.01
 C6-C7
 1.39 with sigma of 0.01
 C8-C5
 1.5 with sigma of 0.01
 C13-C11
 1.5 with sigma of 0.01
 C9-C8 \\sim C8-C11 \\sim C12-C11
 with sigma of 0.02
3. Restrained planarity
 C1_$1, C2_$1, C3_$1, C4_$1, C5_$1, C6_$1, C7_$1, C8_$1, C11, C13
 with sigma of 0.1
 C1, C2, C7, C6, C5, C4, C3, C8, C11_$1, C13_$1
 with sigma of 0.1
 C1_$2, C2_$2, C7_$2, C3_$2, C6_$2, C4_$2, C5_$2, C8_$2, C11_$3, C13_$3
 with sigma of 0.1
 C1_$3, C2_$3, C3_$3, C4_$3, C5_$3, C6_$3, C7_$3, C8_$3, C11_$2, C13_$2
 with sigma of 0.1
 C10, C9, C12, C12_$3, C9_$3, C10_$3
 with sigma of 0.1
4. Uiso/Uaniso restraints and constraints
All non-hydrogen atoms have similar U: within 2A with sigma of 0.02 and sigma
for terminal atoms of 0.04
5. Others
 Fixed Sof: H10A(0.5) H10B(0.5) H10C(0.5)
6.a Me refined with riding coordinates:
 C10(H10A,H10B,H10C)
6.b Aromatic/amide H refined with riding coordinates:
 C3(H3), C4(H4), C7(H7), C6(H6)
6.c Idealised Me refined as rotating group:
 C13(H13A,H13B,H13C)
;
_shelx_res_file
;
    27.6kbardecomp.res created by SHELXL-2014/7

TITL g2yy_14xnew in P4/mnc
CELL 0.6889 19.17336 19.17336 33.03204 90 90 90
ZERR 4 0.00157 0.00157 0.0057 0 0 0
LATT 1
SYMM -X,-Y,+Z
SYMM -Y,+X,+Z
SYMM +Y,-X,+Z
SYMM 0.5-X,0.5+Y,0.5-Z
SYMM 0.5+X,0.5-Y,0.5-Z
SYMM 0.5+Y,0.5+X,0.5-Z
SYMM 0.5-Y,0.5-X,0.5-Z
SFAC C H O Zr
DISP C 0.003 0.001 10.848
DISP H -0 0 0.623
DISP O 0.011 0.006 30.192
DISP Zr -11.605 0.551 2275.752
UNIT 184 136 64 12
EQIV $1 -0.5+Y,0.5+X,0.5-Z
EQIV $2 0.5-Y,0.5-X,0.5-Z
EQIV $3 -X,1-Y,+Z
DFIX 1.39 0.01 C3 C2 C4 C3
DFIX 1.5 0.01 C8 C5 C2 C1 C9 C10 C13 C11
DFIX 1.39 0.01 C7 C2 C6 C5 C5 C4
DFIX 1.39 C12 C11 C8 C11 C9 C8
DFIX 1.39 0.01 C2 C7
DFIX 1.39 0.01 C6 C5
DFIX 1.39 0.01 C4 C3
DFIX 1.39 0.01 C6 C7
DFIX 1.5 0.01 C8 C5
DFIX 1.5 0.01 C13 C11
SADI C9 C8 C8 C11 C12 C11
FLAT C1_$1 C2_$1 C3_$1 C4_$1 C5_$1 C6_$1 C7_$1 C8_$1 C11 C13
FLAT C1 C2 C7 C6 C5 C4 C3 C8 C11_$1 C13_$1
FLAT C1_$2 C2_$2 C7_$2 C3_$2 C6_$2 C4_$2 C5_$2 C8_$2 C11_$3 C13_$3
FLAT C1_$3 C2_$3 C3_$3 C4_$3 C5_$3 C6_$3 C7_$3 C8_$3 C11_$2 C13_$2
FLAT C10 C9 C12 C12_$3 C9_$3 C10_$3
SIMU 0.02 0.04 2

L.S. 5 0 230
PLAN  20
TEMP 20
BOND
MORE -1
BOND $H
CONF
ABIN
fmap 2
acta
REM <olex2.extras>
REM <HklSrc "%.\\27.6kbar%20decomp.hkl">
REM </olex2.extras>

WGHT    0.200000
FVAR       0.22687
ZR1   4    0.123159    0.043364    0.000000    10.50000    0.05429    0.08854 =
         0.04113    0.00000    0.00000   -0.00334
ZR2   4    0.000000    0.000000    0.073822    10.25000    0.06338    0.06338 =
         0.02730    0.00000    0.00000    0.00000
O5    3   -0.028598    0.092485    0.109580    11.00000    0.11090
O2    3    0.172329    0.062008   -0.060814    11.00000    0.12574
O4    3    0.040035    0.082514    0.036128    11.00000    0.12774
O3    3    0.168247    0.148904    0.000000    10.50000    0.17343
O1    3    0.226214   -0.022287    0.000000    10.50000    0.16742
C11   1   -0.024747    0.415177    0.222557    11.00000    0.14468
C3    1   -0.042769    0.197753    0.171050    11.00000    0.20985
AFIX  43
H3    2   -0.024671    0.153237    0.174876    11.00000   -1.20000
AFIX   0
C12   1   -0.028492    0.471508    0.250000    10.50000    0.12813
C1    1   -0.057417    0.152177    0.101282    11.00000    0.16347
C4    1   -0.044168    0.238809    0.205885    11.00000    0.21322
AFIX  43
H4    2   -0.030606    0.226351    0.231931    11.00000   -1.20000
AFIX   0
C8    1   -0.077037    0.364021    0.221905    11.00000    0.16005
C13   1    0.035997    0.411278    0.193252    11.00000    0.15854
AFIX 137
H13A  2    0.060367    0.455017    0.193135    11.00000   -1.50000
H13B  2    0.018852    0.401515    0.166541    11.00000   -1.50000
H13C  2    0.067233    0.374835    0.201525    11.00000   -1.50000
AFIX   0
C2    1   -0.064048    0.212021    0.130994    11.00000    0.20402
C5    1   -0.070759    0.303400    0.192708    11.00000    0.21752
C7    1   -0.091019    0.274509    0.115700    11.00000    0.26343
AFIX  43
H7    2   -0.104339    0.287085    0.089631    11.00000   -1.20000
AFIX   0
C9    1   -0.132413    0.367587    0.250000    10.50000    0.16518
C6    1   -0.091631    0.312419    0.152314    11.00000    0.26781
AFIX  43
H6    2   -0.111713    0.356105    0.148600    11.00000   -1.20000
AFIX   0
C10   1   -0.187706    0.312294    0.250000    10.50000    0.20287
PART -1
AFIX  33
H10A  2   -0.177727    0.278712    0.229236    10.50000   -1.50000
H10B  2   -0.188492    0.289477    0.275866    10.50000   -1.50000
H10C  2   -0.232303    0.333289    0.244898    10.50000   -1.50000
AFIX   0
HKLF 4

REM  g2yy_14xnew in P4/mnc
REM R1 =  0.1407 for     976 Fo > 4sig(Fo)  and  0.2984 for all    3502 data
REM     75 parameters refined using     66 restraints

END

WGHT      0.2000      0.0000

REM Highest difference peak  0.582,  deepest hole -0.834,  1-sigma level  0.111
Q1    1   0.0000  0.0000  0.0890  10.25000  0.05    0.58
Q2    1   0.1518  0.0351  0.0000  10.50000  0.05    0.57
Q3    1   0.1317  0.0150  0.0000  10.50000  0.05    0.55
Q4    1   0.2164  0.0116  0.0000  10.50000  0.05    0.54
Q5    1   0.1294  0.1361  0.0000  10.50000  0.05    0.51
Q6    1  -0.0006  0.0242  0.0780  11.00000  0.05    0.50
Q7    1   0.2144  0.1247  0.0000  10.50000  0.05    0.46
Q8    1   0.1966  0.1460  0.0000  10.50000  0.05    0.46
Q9    1   0.0628  0.1231  0.0314  11.00000  0.05    0.46
Q10   1   0.1504  0.1560  0.0000  10.50000  0.05    0.45
Q11   1   0.2024  0.0380  0.0000  10.50000  0.05    0.43
Q12   1  -0.0059  0.0580  0.1301  11.00000  0.05    0.41
Q13   1   0.2091 -0.1042 -0.0188  11.00000  0.05    0.40
Q14   1   0.0000  0.0000  0.0624  10.25000  0.05    0.38
Q15   1   0.1913 -0.0736  0.0000  10.50000  0.05    0.37
Q16   1   0.1928  0.1795 -0.0292  11.00000  0.05    0.36
Q17   1  -0.1018  0.2634  0.0573  11.00000  0.05    0.36
Q18   1   0.0190  0.1069  0.0513  11.00000  0.05    0.35
Q19   1   0.2233  0.0891 -0.0193  11.00000  0.05    0.35
Q20   1   0.2003  0.1935  0.0245  11.00000  0.05    0.35
;
_shelx_res_checksum              58444
_shelx_hkl_file
;
   2   0   0    0.95    0.79
   3   1   0   39.74    9.96
   3   0   0    2.36    5.22
   3   0   0   -1.09    3.14
  -3   1   0   37.39    8.55
   3  -1   0   68.72    9.83
   3  -1   0   77.49   11.38
   3  -1   0   30.56   11.29
  -3   1   0   48.14    9.18
   3  -1   0   41.34    9.73
   3  -2   0   15.07    6.50
  -3   2   0    7.83    4.92
   3  -2   0    9.65    4.92
   4   1   0 1877.19  296.26
   4   0   0  183.11   36.28
   4   0   0  193.02   33.31
   4   0   0  189.37   37.65
   4   0   0  205.65   36.98
  -4   0   0  161.47   38.43
  -4   1   0 1734.82  262.89
  -4   1   0 1355.45  268.63
   4  -1   0 1775.03  317.34
   4  -1   0 1775.44  295.53
   4  -1   0 1913.85  334.41
   4  -1   0 1686.13  300.61
  -4   2   0  234.87   37.54
   4  -2   0  282.41   47.46
   4  -2   0  213.77   43.27
   4  -3   0   -0.80   11.43
   5   1   0   66.74   15.44
   5   1   0   73.42   13.28
   5   1   0   55.75   14.45
   5   0   0   -0.66   10.43
   5   0   0    0.30    5.42
  -5   0   0    1.01   12.37
   5   0   0    1.89    7.29
   5   0   0   -2.13   10.14
  -5   0   0   -0.72    8.39
   5  -1   0   26.78   16.28
   5  -1   0   73.30   12.10
   5  -1   0   43.54   14.46
  -5   1   0   57.97   14.16
   5  -1   0   42.88   13.32
  -5   1   0   69.54   11.39
  -5   2   0 2204.45  349.02
   5  -2   0 2362.46  398.59
  -5   2   0 2338.31  343.99
   5  -2   0 2527.12  439.49
   5  -2   0 2072.96  458.15
   5  -3   0   -5.26    9.12
  -5   3   0    7.17    9.61
   6   1   0 2011.73  374.44
   6   0   0   19.94    7.72
  -6   0   0   28.65   18.31
   6   0   0   14.34   15.14
   6  -1   0 1706.57  353.49
  -6   1   0 1832.16  298.98
   6  -1   0 1943.89  336.89
  -6   1   0 1971.46  377.76
   6  -2   0  339.34   54.39
   6  -2   0  170.25   59.55
   6  -2   0  305.91   59.47
  -6   3   0  216.56   32.75
   6  -3   0  218.87   35.72
   6  -3   0  128.79   39.09
   6  -4   0    2.22   18.49
  -6   4   0   13.60   15.05
   7   2   0  620.04  103.34
   7   1   0  297.40   58.84
   7   1   0  320.34   53.22
   7   1   0  333.15   60.46
   7   0   0    8.38   16.64
   7   0   0    0.77    7.43
  -7   0   0    3.10    9.18
  -7   0   0   -8.52   14.73
   7   0   0   -2.88   19.07
   7   0   0   -1.83   12.08
  -7   0   0  -13.44   22.36
   7  -1   0  229.86   57.20
   7  -1   0  218.63   51.73
   7  -1   0  367.41   62.57
  -7   1   0  339.94   60.60
  -7   1   0  318.43   46.39
  -7   1   0  426.74   49.79
   7  -2   0  497.73  108.99
  -7   2   0  727.45   90.68
   7  -2   0  542.24  100.74
   7  -2   0  581.86  116.72
   7  -2   0  490.19  103.73
  -7   2   0  636.09   85.99
  -7   3   0  537.38   96.02
   7  -3   0  647.20  117.57
   7  -4   0  284.11   56.24
   7  -4   0  244.29   51.11
  -7   4   0  287.84   46.33
  -8  -4   0  887.35  135.12
   8   4   0  807.01  146.21
   8   3   0  108.39   30.80
   8   2   0  531.57  107.39
   8   2   0  494.57  116.92
  -8  -2   0  609.95   99.56
   8   1   0   54.46   21.69
  -8  -1   0   28.53   13.52
   8   1   0   52.13   16.49
   8   1   0   63.39   14.80
  -8   0   0   79.36   37.92
  -8   0   0  162.20   27.80
   8   0   0  166.36   32.02
  -8   0   0  104.29   22.36
   8   0   0  147.35   26.80
   8   0   0  160.18   36.78
   8   0   0  134.63   25.73
  -8   0   0  123.94   26.16
   8  -1   0   45.16   24.86
  -8   1   0   21.11   26.12
  -8   1   0   61.28   13.02
  -8   1   0   46.66   18.88
   8  -1   0   42.14   12.40
   8  -1   0   81.23   19.66
   8  -1   0   67.01   18.44
  -8   2   0  732.76   90.92
   8  -2   0  399.40   99.10
   8  -2   0  592.91  104.10
  -8   2   0  536.36   83.81
   8  -2   0  604.34  101.35
  -8   3   0  233.49   31.67
   8  -4   0  789.07  142.14
  -8   4   0  783.11  123.84
   8  -5   0   21.19   27.74
   9   4   0  212.31   45.28
   9   3   0 1365.52  213.71
  -9  -2   0   50.15   16.81
   9   2   0   57.13   18.12
   9   2   0   57.82   23.37
  -9  -1   0  102.64   22.59
   9   1   0   85.86   23.88
   9   1   0   79.28   29.91
   9   1   0   90.74   22.79
  -9   0   0   -6.18   35.27
   9   0   0   23.34   24.68
   9   0   0    1.88   10.22
  -9   0   0   -1.38   13.55
  -9   0   0   26.05   21.04
  -9   0   0    4.12   10.38
   9   0   0  -16.98   38.44
   9   0   0    6.19   16.11
  -9   1   0  126.94   27.10
  -9   1   0   84.89   18.99
   9  -1   0  111.62   20.08
  -9   1   0   64.60   36.43
   9  -1   0  123.21   31.33
   9  -1   0  113.57   24.26
   9  -1   0  128.95   27.81
  -9   2   0   54.20   22.64
  -9   2   0   30.47   26.47
   9  -2   0   36.05   13.33
  -9   2   0   51.42   13.89
   9  -2   0   25.88   20.68
   9  -2   0   86.40   27.70
   9  -2   0   84.12   20.22
  -9   3   0 1203.63  187.27
   9  -3   0 1357.28  207.52
   9  -3   0 1032.67  221.09
   9  -3   0 1037.05  236.80
  -9   4   0  202.74   41.89
   9  -4   0  247.10   49.07
   9  -4   0  212.46   44.00
   9  -5   0  715.40  128.91
  -9   5   0  643.57  104.68
   9  -5   0  567.98  127.11
   9  -5   0  652.52  116.85
  10   3   0   -1.44   26.24
  10   3   0    2.92   19.03
 -10  -2   0  483.52   77.69
  10   2   0  376.76   77.74
  10   2   0  432.95   90.78
  10   1   0    8.36   18.34
 -10  -1   0   10.99   15.65
  10   1   0  -20.47   25.62
 -10  -1   0   41.72   25.56
  10   0   0    5.61   19.40
 -10   0   0   61.30   25.09
  10   0   0   37.40   27.09
 -10   0   0   14.13   16.29
  10  -1   0    4.34   28.39
  10  -1   0   21.66   19.72
 -10   1   0   26.85   26.38
  10  -2   0  472.81   76.60
  10  -2   0  466.97   91.76
 -10   2   0  394.55   72.20
  10  -3   0   32.69   29.84
 -10   3   0   38.47   26.03
  10  -3   0   23.87   21.29
 -10   4   0 1040.88  143.71
  10  -4   0  787.59  156.31
  10  -5   0   82.40   37.94
  10  -5   0   61.72   34.33
 -10   5   0   53.94   31.79
  10  -5   0   83.43   28.43
  10  -6   0  222.71   61.06
  11   4   0    3.58   24.41
 -11  -3   0  423.25   74.19
  11   3   0  429.49   75.22
  11   3   0  409.46   88.25
  11   2   0  -20.09   21.25
  11   2   0   52.87   30.01
 -11  -2   0    3.75   18.24
 -11  -1   0    1.78   16.23
  11   1   0   17.26   22.30
  11   1   0   33.63   31.60
 -11  -1   0  -17.10   29.09
  11   0   0    1.57   22.73
 -11   0   0   13.22   28.72
 -11   0   0    5.35   18.78
  11   0   0   -9.38   30.05
 -11   1   0   16.93   19.61
  11  -1   0   55.64   24.24
  11  -1   0   15.94   31.92
 -11   1   0   42.14   30.64
  11  -2   0   41.93   22.75
 -11   2   0   -1.88   27.62
  11  -2   0    5.05   36.16
  11  -3   0  391.40   88.36
  11  -3   0  381.97   73.59
 -11   3   0  437.55   69.77
 -11   4   0   14.03   27.34
  11  -4   0   -5.10   33.40
  11  -4   0    5.36   24.87
  11  -5   0   83.48   40.17
 -11   5   0   82.01   35.07
  11  -5   0  112.90   34.03
  11  -6   0  106.54   47.96
  12   4   0  240.45   57.01
  12   3   0   24.95   32.57
  12   3   0   63.36   24.28
 -12  -3   0  -19.99   23.01
 -12  -2   0   25.30   23.15
  12   2   0   -6.95   25.10
  12   2   0    5.23   34.42
 -12  -1   0   44.09   26.11
  12   1   0   -6.84   37.82
  12   1   0   47.58   26.67
 -12  -1   0  139.45   36.83
  12   0   0   56.22   26.29
  12   0   0   31.07   36.47
 -12   0   0   74.81   37.74
 -12   0   0   18.16   22.55
  12  -1   0  101.57   40.25
 -12   1   0  157.22   41.68
 -12   1   0   78.98   24.25
  12  -1   0   58.35   31.01
  12  -2   0   23.60   37.26
 -12   2   0   19.09   35.05
  12  -2   0   18.08   26.86
  12  -3   0  -71.86   40.04
  12  -3   0    1.83   23.68
 -12   3   0   12.53   29.34
 -12   4   0  391.69   57.36
  12  -4   0  269.13   68.21
  12  -4   0  279.24   57.30
  12  -5   0    3.93   39.49
 -12   5   0   -9.53   33.58
  12  -5   0   -6.57   30.78
 -12   6   0  164.10   50.85
  12  -6   0  199.22   57.58
  13   3   0   -1.94   30.78
  13   2   0   23.16   29.30
 -13  -2   0   -2.37   19.08
  13   2   0   -1.94   34.13
 -13  -2   0   39.28   38.20
 -13  -1   0   -9.67   38.67
 -13  -1   0   22.68   22.53
  13   1   0  -23.50   27.38
  13   1   0  -32.29   39.90
 -13   0   0   26.44   40.46
 -13   0   0    9.04   24.05
  13   0   0  -21.19   38.98
  13   0   0   27.53   29.42
 -13   1   0  -24.18   37.66
 -13   1   0    4.59   25.53
  13  -1   0    6.10   28.13
  13  -1   0  -23.45   40.62
 -13   2   0   87.63   37.56
  13  -2   0   70.77   43.44
 -13   2   0  -12.23   26.27
  13  -2   0   18.14   28.31
  13  -3   0   51.88   41.20
  13  -3   0  105.43   31.86
 -13   3   0  104.90   40.08
 -13   4   0   58.70   38.27
  13  -4   0  182.41   46.43
  13  -4   0   -2.14   33.24
  13  -5   0  117.69   40.97
 -13   5   0  121.59   44.30
  14   5   0   54.86   38.54
  14   4   0   99.09   46.43
 -14  -4   0  -20.44   31.49
  14   4   0   38.45   32.44
  14   3   0    8.61   31.61
 -14  -3   0   21.98   25.83
  14   3   0   30.51   38.82
 -14  -2   0   -5.31   28.21
  14   2   0  -19.40   42.39
  14   2   0  162.40   32.40
 -14  -2   0  199.10   43.38
 -14  -1   0  -25.50   26.79
  14   1   0  -58.65   43.34
 -14   0   0   12.60   26.46
  14   0   0   -2.10   43.30
 -14   1   0   -2.57   27.05
 -14   2   0  -21.37   28.44
  14  -3   0    8.88   46.61
  14  -4   0   14.04   49.36
  14  -4   0   -2.34   29.83
 -14   5   0  -14.16   43.04
  14  -5   0  100.01   56.92
  14  -5   0   27.89   36.93
  14  -6   0   62.73   53.17
  14  -6   0   59.82   41.95
 -14   6   0   78.37   49.83
  14  -7   0   17.06   59.68
  15   5   0   16.92   36.08
 -15  -4   0   -3.23   34.11
  15   4   0   25.40   51.14
  15   4   0   34.83   35.38
  15   3   0  103.43   50.95
 -15  -3   0  105.98   54.22
 -15  -3   0   58.07   34.44
  15   3   0   85.58   35.08
  15   2   0   -2.36   35.42
 -15  -2   0    5.93   33.03
  15   2   0   -2.38   49.85
 -15  -2   0   55.66   50.43
  15   1   0   -7.07   32.75
 -15  -1   0   48.72   47.37
 -15  -1   0  -34.68   32.60
  15   1   0   66.82   50.23
 -15   0   0   21.34   47.72
  15   0   0  -13.98   52.42
  15   0   0  -69.33   40.62
 -15   0   0   -2.83   29.46
  15  -1   0  -12.38   37.71
 -15   1   0   48.70   30.33
  15  -1   0   -2.33   50.46
 -15   1   0   -9.01   50.74
  15  -2   0   14.16   52.31
 -15   2   0  -50.19   46.38
  15  -2   0   32.14   35.30
 -15   2   0   -2.93   33.16
  15  -3   0  -16.69   54.35
 -15   3   0  -18.92   35.68
 -15   3   0   69.94   46.60
  15  -3   0   34.68   35.58
 -15   4   0  -30.06   45.04
  15  -4   0  -23.15   36.75
  15  -4   0    2.53   49.71
  15  -5   0   32.97   39.77
  15  -5   0  -81.47   54.93
 -15   5   0   -3.11   43.81
  15  -6   0  -24.14   42.30
 -15   6   0   -7.03   47.01
  15  -6   0   38.41   55.71
  15  -7   0  -60.55   64.01
 -16  -5   0  -52.26   42.66
  16   5   0    3.07   42.83
 -16  -4   0   54.23   56.61
  16   4   0  131.80   56.32
 -16  -4   0    3.60   37.56
  16   4   0   27.57   40.42
  16   3   0   20.97   38.72
 -16  -3   0   79.69   55.77
 -16  -3   0  -61.22   35.52
  16   3   0   21.25   53.77
 -16  -2   0   -3.46   53.88
 -16  -2   0   -3.31   36.47
  16   2   0    7.88   51.38
  16   2   0   36.15   37.10
 -16  -1   0   -3.25   37.83
  16   1   0   10.40   41.15
  16   1   0  -95.05   54.37
 -16  -1   0   27.22   52.54
  16   0   0  -78.95   49.49
 -16   0   0   61.37   53.65
 -16   0   0   56.63   36.77
  16   0   0    8.16   37.79
 -16   1   0  -43.38   51.72
  16  -1   0  -13.65   37.16
  16  -1   0  -61.72   50.82
 -16   1   0  -15.89   34.30
  16  -2   0    5.47   37.49
  16  -2   0   23.19   53.12
 -16   2   0  -19.49   37.58
 -16   2   0   16.51   54.14
 -16   3   0  -16.28   51.06
  16  -3   0    5.25   52.82
  16  -3   0  -13.66   38.87
 -16   3   0   10.30   38.91
 -16   4   0    3.34   49.90
  16  -4   0  -24.27   57.79
  16  -4   0  -19.82   41.55
  16  -5   0  -48.66   59.62
 -16   5   0  -37.80   48.85
  16  -5   0   35.99   43.43
  16  -6   0  184.43   61.83
 -16   6   0  103.22   65.96
  16  -6   0  229.21   75.75
  16  -7   0    9.83   68.29
  17   5   0   78.20   50.35
 -17  -4   0   16.03   42.73
  17   4   0   15.50   59.69
  17   4   0    3.04   45.37
 -17  -4   0  -35.05   68.12
  17   3   0    2.89   41.72
  17   3   0   -2.93   59.79
 -17  -3   0   28.48   65.75
 -17  -3   0    7.57   40.14
  17   2   0  236.42   69.48
  17   2   0   81.75   46.16
 -17  -2   0   31.26   66.28
 -17  -2   0   33.29   45.90
  17   1   0   28.39   63.80
  17   1   0  -43.09   41.59
 -17  -1   0  -19.10   58.75
 -17  -1   0    3.62   37.27
 -17   0   0  -34.16   65.30
 -17   0   0    3.54   39.20
  17   0   0   -2.97   42.45
  17   0   0    2.78   61.81
 -17   1   0  -14.09   35.12
  17  -1   0  -53.71   43.22
 -17   1   0   22.28   61.20
  17  -1   0  -80.81   65.47
  17  -2   0  186.97   53.25
 -17   2   0   65.13   39.39
  17  -2   0  184.41   67.72
 -17   2   0   43.94   60.07
  17  -3   0  -99.34   62.43
  17  -3   0  -27.42   45.52
 -17   3   0  -22.54   43.12
 -17   3   0   54.58   59.62
  17  -4   0   12.48   45.34
  17  -4   0  -83.89   63.17
 -17   4   0   45.83   49.44
 -17   4   0    3.72   57.72
  17  -5   0  -21.24   62.54
  17  -5   0   -9.87   48.59
 -17   5   0  117.85   60.46
 -17   6   0  -29.34   59.97
  17  -6   0    7.01   54.99
  17  -6   0  -63.09   70.99
  17  -7   0   21.51   74.61
  18   4   0    6.88   68.88
  18   4   0  -13.48   45.67
 -18  -4   0  -22.47   46.28
 -18  -4   0   49.80   83.41
 -18  -3   0   -4.22   46.99
 -18  -3   0   22.99   70.37
  18   3   0   29.19   69.98
  18   3   0  -37.95   44.75
  18   2   0   12.29   45.21
  18   2   0 -110.74   66.80
 -18  -2   0    4.39   72.42
 -18  -2   0   37.20   44.90
  18   1   0   65.96   62.54
 -18  -1   0  -30.35   74.62
  18   1   0   74.32   48.47
 -18  -1   0   16.24   41.72
  18   0   0  -27.31   65.96
 -18   0   0  -37.90   68.35
  18   0   0   16.18   44.47
 -18   0   0  -15.89   45.53
 -18   1   0  -41.23   65.55
 -18   1   0  -15.74   42.16
  18  -1   0   45.61   63.55
  18  -1   0  -45.88   46.31
 -18   2   0   28.09   41.74
  18  -2   0  -61.30   68.39
  18  -2   0   49.67   48.47
 -18   2   0  -85.48   70.17
 -18   3   0  -32.35   65.65
  18  -3   0  -30.91   66.48
 -18   3   0   -8.37   45.50
  18  -3   0   20.24   47.65
 -18   4   0   77.40   56.97
  18  -4   0  -58.41   47.51
  18  -4   0  -25.01   70.96
 -18   4   0    8.29   66.24
 -18   5   0   -5.28   57.55
 -18   5   0  -25.33   63.83
  18  -5   0   -6.50   67.98
  18  -5   0   32.67   53.88
  18  -6   0  -15.33   58.15
 -18   6   0  -88.04   71.96
  18  -6   0  -78.62   79.50
  18  -7   0 -114.34   92.68
 -19  -4   0 -108.23   95.00
  19   4   0 -152.93   80.84
 -19  -4   0   75.93   55.14
  19   4   0   14.92   55.24
  19   3   0  -24.25   56.65
 -19  -3   0    4.73   57.11
 -19  -3   0  -31.43   87.52
  19   3   0 -261.98   70.58
 -19  -2   0   83.08   70.61
 -19  -2   0  144.02   90.91
  19   2   0  201.90   71.02
  19   2   0  343.99   98.14
 -19  -1   0   33.87   79.04
 -19  -1   0    4.54   54.01
  19   1   0  -20.99   57.30
  19   1   0 -141.17   77.60
 -19   0   0   17.94   52.15
  19   0   0 -113.22   55.62
 -19   0   0  126.37   80.57
 -19   1   0   -8.83   50.62
  19  -1   0 -118.08   57.14
 -19   1   0   91.77   75.96
 -19   2   0  402.07   90.79
  19  -2   0  389.29   74.10
 -19   2   0  182.79   72.57
  19  -2   0  526.65   95.35
  19  -3   0 -193.90   75.89
 -19   3   0    9.37   56.34
 -19   3   0  -49.76   79.10
  19  -3   0 -119.33   64.74
 -19   4   0  -30.20   58.54
  19  -4   0   -3.81   55.98
 -19   4   0  -46.29   67.26
  19  -4   0   -3.41   71.01
 -19   5   0  -32.99   72.78
  19  -5   0    4.01   54.31
 -19   5   0    5.82   58.44
  19  -5   0  118.11   79.88
 -19   6   0  -72.19   72.82
  19  -6   0  -25.35   63.44
  19  -6   0  -15.26   80.28
 -19   6   0  103.70   83.46
  19  -7   0  -72.01   93.07
  20   4   0 -102.41   63.68
 -20  -4   0    6.58  109.30
  20   3   0   34.57   50.89
 -20  -3   0   23.93   95.51
  20   3   0  163.15   87.16
  20   2   0   15.28   81.68
 -20  -2   0   79.85   92.47
  20   2   0   42.60   57.29
 -20  -2   0  -30.96   57.95
 -20  -1   0   37.92   83.65
 -20  -1   0  -20.32   58.88
  20   1   0 -113.01   80.96
  20   1   0  -80.13   57.45
 -20   0   0  -47.09   81.65
 -20   0   0  -70.28   57.71
  20   0   0   33.41   76.16
  20   0   0  -23.02   55.05
 -20   1   0  -40.90   80.25
  20  -1   0   57.75   83.82
  20  -1   0   -3.92   59.54
 -20   1   0   49.65   56.49
 -20   2   0   40.15   80.17
 -20   2   0    5.00   53.54
  20  -2   0   79.60   60.72
  20  -2   0   68.71   81.19
  20  -3   0  -54.37   79.66
 -20   3   0   73.09   59.74
 -20   3   0  -45.54   76.50
  20  -3   0    4.15   60.03
  20  -4   0   -4.21   60.64
 -20   4   0   73.80   63.01
  20  -4   0   60.01   82.58
 -20   4   0    5.18   82.38
  20  -5   0    4.43   56.02
 -20   5   0  -68.74   81.42
  20  -5   0 -174.46   85.97
 -20   5   0    6.49   71.15
  20  -6   0   28.16   60.99
 -20   6   0   23.13   85.89
  -1   1  -1    2.85    1.40
  -1   1  -1    0.17    0.50
   1  -1   1    0.22    0.27
   1  -1   1   -0.52    1.03
   2   1  -1 1074.60   17.49
   2   1  -1 1044.82   19.11
  -2  -1   1 1129.94   16.57
   2   0  -1   -0.78    1.02
  -2   0  -1   -1.02    1.56
  -2   0   1   -0.29    0.94
   2   0   1    0.48    0.53
   2   0   1   -1.17    2.58
  -2   2  -1    3.11    2.89
   3   2  -1    6.17    5.67
  -3  -2   1    2.70    3.30
   3   1  -1  379.77   58.83
   3   1  -1  397.14   64.91
   3   1   1  238.98   66.96
  -3  -1   1  369.35   55.59
   3   0  -1  185.66   35.57
   3   0   1  159.77   38.80
   3   0   1  264.38   38.69
   3   0   1  224.47   34.91
  -3   0   1  160.99   32.50
   3   0   1  226.00   39.60
   3  -1  -1  415.00   58.79
  -3   1  -1  361.90   52.38
   3  -1  -1  327.52   64.79
  -3   1   1  271.10   50.71
   3  -1   1  301.53   66.42
   3  -1   1  264.28   58.80
   3  -1   1  391.56   61.63
  -3   2  -1   -0.84    3.50
   3  -2  -1    1.18    6.85
   3  -2  -1    0.58    4.76
  -3   2  -1    3.78    4.33
   3  -2   1    0.36    3.79
   3  -2   1    3.13    5.76
   3  -2   1    3.27    4.05
  -3   2   1    4.84    4.78
   4   2  -1  549.50   91.25
   4   2  -1  450.64   81.39
   4   1  -1   61.03   12.97
  -4  -1  -1   70.31   12.27
   4   1   1   50.68   14.90
   4   1   1   62.78   13.06
  -4   0  -1   -7.81   10.31
   4   0  -1   -1.53    5.07
  -4   0  -1    0.54    3.99
   4   0   1    1.45    4.98
   4   0   1    0.37    5.22
   4   0   1   -0.44    8.38
  -4   0   1    0.59    5.91
   4   0   1    3.90    6.91
  -4   1  -1   67.07   11.69
  -4   1  -1   61.30   12.53
   4  -1  -1   85.66   13.34
   4  -1  -1   60.23   15.22
   4  -1   1   73.90   12.66
   4  -1   1   73.17   15.47
   4  -1   1   76.37   13.17
   4  -1   1   46.37   14.07
  -4   1   1   58.73   12.17
  -4   2  -1  436.25   70.52
   4  -2  -1  487.99   79.12
  -4   2  -1  355.27   68.54
  -4   2   1  450.30   69.71
   4  -2   1  434.69   82.60
   4  -2   1  484.45   92.23
   4  -2   1  505.71   79.10
   4  -2   1  399.88   87.40
  -4   3  -1   26.34    9.76
   4  -3   1   31.76   11.80
   5   2  -1  422.66   63.01
   5   1  -1 1370.23  255.77
   5   1   1 1394.57  250.85
   5   1   1 1519.62  241.22
   5   0  -1   53.52   13.43
  -5   0  -1   79.04   19.84
  -5   0  -1   91.55   12.97
   5   0  -1   63.82   12.54
   5   0  -1   50.91   14.75
  -5   0   1   48.71   10.98
   5   0   1   54.57   16.33
   5   0   1   70.04   14.90
   5   0   1   79.39   17.37
  -5   0   1   62.69   16.61
  -5   0   1  111.27   13.95
   5   0   1   73.01   13.31
  -5   1  -1 1487.10  268.89
   5  -1  -1 1451.24  272.59
  -5   1  -1 1488.63  218.22
   5  -1  -1 1453.74  240.27
   5  -1  -1 1336.12  259.55
  -5   1  -1 1444.13  216.92
  -5   1   1  953.71  213.04
   5  -1   1 1471.93  251.58
  -5   1   1 1325.82  209.64
   5  -1   1 1514.47  274.73
   5  -1   1 1500.18  234.14
   5  -1   1 1024.41  252.12
  -5   2  -1  320.00   54.39
  -5   2  -1  357.05   54.94
   5  -2   1  341.30   63.53
   5  -2   1  289.20   68.95
   5  -2   1  358.05   70.49
  -5   3  -1  781.06   74.43
   5  -3   1  770.44   86.40
   6   3  -1    6.80   11.32
   6   3  -1    4.47   14.24
  -6  -3   1    5.43    8.58
   6   2  -1 1871.61  232.53
   6   2   1 1873.70  264.82
  -6  -1  -1  223.07   31.05
   6   1  -1  136.26   35.09
   6   1   1  172.19   35.40
   6   1   1  167.21   37.33
  -6   0  -1    1.56   20.85
   6   0  -1   -5.05    5.53
   6   0  -1    0.43   12.67
   6   0  -1    3.35   13.39
   6   0   1   10.73   15.92
  -6   0   1    1.28    5.33
   6   0   1    4.06    7.80
  -6   0   1   -1.97   14.76
   6  -1  -1  164.82   33.11
   6  -1  -1  129.05   37.86
   6  -1  -1  205.64   32.16
  -6   1  -1  213.65   38.00
  -6   1  -1  156.14   28.94
   6  -1   1  121.83   35.89
  -6   1   1  166.20   27.01
   6  -1   1  207.37   32.82
   6  -2  -1 1807.47  259.19
   6  -2   1 1676.21  231.49
   6  -2   1 1707.66  247.57
   6  -3  -1    4.19   12.38
  -6   3  -1    4.58    9.27
   6  -3  -1   -6.66   16.10
   6  -3   1    1.73   15.00
  -6   3   1   -7.46   13.09
   6  -3   1    1.69   17.63
   6  -4  -1   27.67   19.64
  -6   4  -1   14.79   15.13
   6  -4   1    8.13   13.91
   6  -4   1   -7.10   16.86
   7   4  -1  373.51   74.56
  -7  -4   1  429.49   68.30
   7   3  -1    8.08   16.70
   7   3  -1   25.73   13.58
  -7  -3   1   13.71   11.06
   7   3   1   21.67   15.12
   7   3   1   -1.07   17.14
  -7  -2  -1  415.44   78.75
   7   2   1  445.78   80.77
   7   2   1  476.57   92.77
   7   1  -1  173.62   26.53
   7   1  -1  119.91   27.54
  -7  -1  -1  175.89   24.96
   7   1   1  174.43   26.26
   7   1   1  173.47   29.02
   7   1   1  112.96   30.32
  -7   0  -1    1.05   14.21
  -7   0  -1   -3.96    8.90
   7   0  -1    1.20    6.42
   7   0  -1   20.52   11.41
   7   0  -1    4.30   17.51
   7   0  -1   29.90   18.76
  -7   0  -1   13.18   24.62
   7   0   1    9.95   12.44
  -7   0   1   -0.39    6.86
   7   0   1    8.85    9.33
   7   0   1    2.49   20.46
  -7   0   1    9.73   14.47
  -7   0   1    2.57   18.94
   7   0   1   10.87   16.88
   7  -1  -1  106.81   27.46
   7  -1  -1  146.13   24.40
   7  -1  -1  118.36   27.08
  -7   1  -1  168.08   26.36
  -7   1  -1  125.43   22.95
  -7   1  -1   81.67   33.25
   7  -1  -1  101.28   31.60
  -7   1   1  122.00   20.82
   7  -1   1  129.67   32.23
  -7   1   1  153.55   30.46
   7  -1   1  110.49   25.51
   7  -1   1  107.30   25.64
   7  -1   1  108.96   29.14
  -7   1   1  139.38   26.05
   7  -2  -1  436.87   86.84
   7  -2  -1  377.55   79.49
   7  -2  -1  490.49   90.14
  -7   2  -1  427.07   71.04
  -7   2  -1  358.56   68.66
   7  -2   1  446.01   83.20
   7  -2   1  516.93   91.87
   7  -2   1  516.57   78.18
  -7   2   1  521.28   71.30
   7  -2   1  452.96   79.08
   7  -3  -1    4.19   17.95
  -7   3  -1    7.91   15.51
   7  -3  -1   27.52   14.79
  -7   3  -1   10.89   11.07
   7  -3   1   14.71   17.75
   7  -3   1   33.07   20.98
   7  -3   1   19.26   13.24
  -7   3   1  -14.72   15.78
   7  -4  -1  374.59   78.23
  -7   4  -1  404.14   63.38
   7  -4  -1  428.33   70.76
   7  -4   1  419.14   71.74
   7  -4   1  358.32   77.32
  -7   4   1  359.74   62.53
   7  -5   1   64.56   28.45
   8   4  -1  110.72   32.71
   8   4  -1  105.24   30.07
  -8  -4   1  118.44   26.02
   8   3  -1  664.46  159.79
   8   3  -1  793.13  182.09
   8   3   1  815.18  159.61
   8   2  -1  106.34   25.21
   8   2  -1  124.01   26.30
  -8  -2  -1  134.87   24.47
   8   2   1  121.83   25.65
   8   2   1  105.83   29.07
   8   2   1   82.04   31.79
  -8  -1  -1   15.42   12.90
   8   1  -1   29.86   20.79
   8   1  -1   23.38   10.21
   8   1  -1   39.06   15.35
   8   1   1   45.45   14.51
   8   1   1   32.46   14.78
   8   1   1   31.17   20.20
   8   0  -1   -2.19   20.48
   8   0  -1    3.81    7.29
  -8   0  -1    8.12   11.21
  -8   0  -1  -27.20   18.56
  -8   0  -1   -6.78   30.82
   8   0  -1   -6.51   14.16
   8   0  -1    5.62   27.06
   8   0   1   -5.18   10.36
   8   0   1  -10.53   26.79
   8   0   1  -19.90   19.34
  -8   0   1    6.32   16.50
  -8   0   1    8.85   10.17
  -8   0   1   13.36   25.86
   8   0   1   -6.35   13.84
  -8   0   1    2.31    8.42
   8  -1  -1   28.31   21.10
  -8   1  -1   40.94   28.23
   8  -1  -1   31.62    9.70
  -8   1  -1   26.89   12.24
   8  -1  -1   56.15   16.02
  -8   1  -1    7.41   17.93
   8  -1  -1   35.37   16.57
  -8   1   1   48.38    9.46
   8  -1   1   49.57   21.55
  -8   1   1   66.21   19.39
  -8   1   1   34.26   21.10
   8  -1   1   30.56   11.80
   8  -1   1    6.39   19.53
   8  -1   1   38.76   13.84
   8  -2  -1  103.86   32.08
   8  -2  -1   88.01   26.86
  -8   2  -1  107.58   21.60
   8  -2  -1  150.94   25.88
  -8   2  -1   96.82   33.09
  -8   2  -1   82.73   25.88
   8  -2   1  105.79   28.49
   8  -2   1  129.86   22.81
   8  -2   1  157.80   32.21
   8  -2   1  104.08   24.54
  -8   2   1  129.29   26.08
  -8   3  -1  873.43  139.45
   8  -3  -1 1077.45  173.12
   8  -3  -1 1013.56  170.29
   8  -3  -1  726.04  158.70
   8  -3   1  836.93  155.37
  -8   3   1  879.98  140.66
   8  -3   1 1248.27  169.71
   8  -3   1 1424.78  179.01
  -8   4  -1   96.97   26.94
   8  -4  -1  124.52   32.63
   8  -4  -1  148.51   29.64
  -8   4   1   85.10   27.33
   8  -4   1  146.75   27.98
   8  -4   1  144.35   32.60
   8  -5  -1  418.16  110.41
  -8   5  -1  488.96   90.02
   8  -5   1  667.22  109.05
   8  -5   1  580.74  113.30
   9   4  -1 1217.69  246.53
  -9  -4   1 1257.06  203.43
   9   4   1 1254.03  217.65
   9   3  -1    1.33   17.83
  -9  -3  -1   -8.16   14.18
   9   3   1   12.12   18.45
   9   3   1    7.86   22.74
   9   2  -1  392.88   76.58
   9   2   1  466.33   76.75
   9   2   1  523.52   89.59
   9   2   1  380.80   82.69
   9   1  -1    3.67   23.57
   9   1  -1  -13.70   16.08
  -9  -1  -1  -10.90   12.70
   9   1   1    8.32   21.20
  -9  -1   1    1.39   12.49
   9   1   1  -24.07   16.26
   9   1   1   -0.63   13.25
  -9  -1   1    2.94   20.89
   9   0  -1  -19.85   17.19
  -9   0  -1   16.51   38.43
   9   0  -1   -7.57   22.96
  -9   0  -1   14.76   13.06
  -9   0  -1   -1.44   21.39
   9   0   1    9.63   35.18
   9   0   1    3.62   23.84
  -9   0   1   14.31   14.06
  -9   0   1   -9.04    9.68
  -9   0   1   -4.51   35.74
   9   0   1   18.38   17.14
  -9   0   1  -24.87   22.43
   9   0   1   16.64   11.48
  -9   1  -1   -7.87   13.13
   9  -1  -1   -1.24    8.43
   9  -1  -1   13.90   18.74
   9  -1  -1   -2.68   24.78
  -9   1  -1    8.54   13.52
   9  -1  -1   16.68   17.79
  -9   1  -1    7.16   20.71
  -9   1  -1    2.33   33.26
  -9   1   1   -7.66   27.12
  -9   1   1   -6.07    9.15
   9  -1   1    7.56   24.39
   9  -1   1   -6.09   16.69
  -9   1   1  -37.28   21.95
   9  -1   1    3.47   11.06
   9  -1   1    6.56   22.52
   9  -2  -1  375.04   78.06
   9  -2  -1  581.64   88.58
  -9   2  -1  252.13   87.48
  -9   2  -1  414.91   70.16
  -9   2  -1  445.00   64.25
   9  -2  -1  418.57   75.58
   9  -2   1  391.47   74.79
  -9   2   1  547.06   70.18
   9  -2   1  393.84   82.15
  -9   2   1  316.95   87.43
   9  -2   1  536.83   89.65
   9  -3  -1    1.57   21.54
   9  -3  -1   -6.67   24.98
  -9   3  -1   26.05   20.05
   9  -3  -1   -8.40   17.69
  -9   3   1  -12.31   20.51
   9  -3   1   14.48   17.67
   9  -3   1   19.69   24.77
   9  -4  -1 1249.52  212.60
  -9   4  -1 1171.23  190.70
   9  -4   1 1142.35  209.38
  -9   4   1 1153.21  186.93
   9  -4   1 1269.76  230.27
   9  -4   1 1208.65  225.26
   9  -5  -1  151.48   39.41
  -9   5  -1  188.10   34.21
   9  -5   1  146.34   34.70
   9  -5   1   90.74   38.74
   9  -5   1  198.89   43.01
  -9   5   1   66.24   34.22
   9  -6   1  108.95   40.79
  10   4  -1   99.15   30.08
  10   4  -1   13.04   22.52
 -10  -4   1   44.80   21.11
  10   4   1   27.38   24.19
 -10  -3  -1  712.17  122.76
  10   3  -1  615.42  126.56
  10   3   1  793.61  126.47
 -10  -2  -1    1.68   16.11
  10   2  -1  -11.21   17.93
  10   2   1    8.29   18.78
  10   2   1   20.97   24.72
 -10  -1  -1    4.68   13.20
  10   1  -1   35.64   26.43
  10   1  -1   42.41   20.40
 -10  -1   1   22.21   14.96
  10   1   1   27.52   19.79
  10   1   1   40.39   26.52
 -10  -1   1    1.68   24.29
  10   0  -1   29.55   27.32
  10   0  -1  -12.66   18.72
 -10   0  -1  -14.84   24.98
 -10   0  -1   44.69   15.49
  10   0   1   11.19   18.81
 -10   0   1    8.12   15.13
  10   0   1   -8.15   25.19
 -10   0   1  -18.47   25.06
  10  -1  -1   38.07   30.30
 -10   1  -1   75.81   26.03
 -10   1  -1   35.53   16.97
  10  -1  -1   23.26   19.37
  10  -1   1   21.07   28.96
  10  -1   1   36.26   19.75
 -10   1   1   49.30   26.16
  10  -2  -1    4.53   30.07
  10  -2  -1   -1.46   19.19
 -10   2  -1   29.58   25.50
 -10   2  -1   13.12   30.97
 -10   2   1  -38.75   24.70
  10  -2   1  -26.84   30.05
  10  -2   1   35.72   20.76
  10  -3  -1  761.48  140.54
 -10   3  -1  770.27  112.39
  10  -3  -1  676.41  123.80
 -10   3  -1  673.90  101.69
  10  -3   1  831.75  122.53
 -10   3   1  558.81  113.13
  10  -3   1  581.84  143.51
 -10   4  -1   38.85   27.48
  10  -4  -1   -8.51   23.81
  10  -4  -1   38.42   30.58
  10  -4   1   38.14   28.86
  10  -4   1   72.75   31.56
 -10   4   1   39.12   26.84
  10  -4   1   27.28   22.86
 -10   5  -1  344.05   47.84
  10  -5  -1  255.76   57.18
  10  -5  -1  272.87   51.81
  10  -5   1  134.25   55.67
  10  -5   1  181.87   48.58
 -10   5   1  296.02   49.52
  10  -5   1  256.29   58.23
  10  -6   1  223.94   57.11
  10  -6   1  172.17   53.71
  11   5  -1   98.32   34.73
 -11  -5   1   65.38   28.66
 -11  -4  -1  335.20   65.30
  11   4  -1  404.08   68.10
  11   4   1  360.43   69.00
  11   4   1  439.84   80.60
 -11  -4   1  254.60   64.29
  11   3  -1   -6.46   22.51
 -11  -3  -1   12.08   16.88
  11   3   1  -19.39   32.29
  11   3   1    6.43   21.65
 -11  -2  -1   28.33   19.09
  11   2  -1   42.65   22.63
  11   2  -1   40.03   32.83
 -11  -2   1   -1.87   18.82
  11   2   1   51.88   22.55
  11   2   1   28.17   29.87
  11   1  -1    9.58   21.45
 -11  -1  -1   65.54   18.91
  11   1  -1   35.51   29.42
 -11  -1  -1   37.97   28.51
  11   1   1   26.35   21.39
  11   1   1   43.97   32.47
 -11  -1   1   62.95   31.79
 -11  -1   1   39.57   19.02
  11   0  -1   34.57   30.88
 -11   0  -1   31.51   19.42
 -11   0  -1    3.75   30.32
  11   0  -1   69.54   25.29
  11   0   1   42.45   23.29
  11   0   1   79.56   33.03
 -11   0   1   40.06   22.02
 -11   0   1   60.82   30.56
 -11   1  -1   28.20   29.64
  11  -1  -1   34.32   24.29
 -11   1  -1    3.60   16.69
  11  -1  -1   -4.91   32.64
  11  -1   1   14.00   30.21
  11  -1   1   28.60   22.14
 -11   1   1   -5.77   29.79
 -11   1   1   40.64   20.24
  11  -2  -1  -12.01   33.72
  11  -2  -1   17.97   22.27
 -11   2  -1   18.64   27.55
  11  -2   1   40.54   33.26
 -11   2   1   41.76   28.22
  11  -2   1   59.42   24.17
  11  -3  -1  -40.28   34.10
  11  -3  -1   23.48   24.84
 -11   3  -1   37.17   28.12
  11  -3   1   -3.25   23.02
 -11   3   1    9.62   27.70
  11  -3   1    3.36   30.66
  11  -4  -1  431.22   67.07
  11  -4  -1  385.24   77.12
 -11   4  -1  331.58   62.91
 -11   4   1  375.43   64.18
  11  -4   1  359.47   65.65
  11  -4   1  278.80   76.75
  11  -5  -1   93.11   34.37
 -11   5  -1   83.15   34.50
  11  -5  -1   48.49   39.35
  11  -5   1   63.89   30.19
 -11   5   1   89.90   35.87
  11  -5   1   84.08   40.70
 -11   6  -1  108.39   39.15
  11  -6  -1   49.59   42.28
  11  -6   1   41.82   42.12
  12   5  -1  171.04   43.72
 -12  -5   1  263.14   38.37
 -12  -4  -1   12.41   25.47
  12   4  -1   -1.90   27.60
  12   4   1  -21.54   37.92
  12   4   1   51.24   25.95
  12   3  -1   88.41   35.47
 -12  -3  -1  102.69   34.53
  12   3   1  186.79   37.26
  12   3   1  125.22   45.33
  12   2  -1    3.53   26.74
  12   2  -1   20.70   36.09
 -12  -2  -1   14.80   22.42
  12   2   1   46.01   24.95
 -12  -2   1    6.36   22.80
 -12  -2   1  -43.42   37.88
  12   2   1    3.49   33.87
 -12  -1  -1   66.06   23.66
  12   1  -1   48.46   36.99
  12   1  -1   49.91   29.31
 -12  -1  -1  122.69   36.26
  12   1   1   37.13   38.12
 -12  -1   1   89.76   27.46
  12   1   1   32.96   28.45
 -12  -1   1  232.59   40.27
 -12   0  -1    7.89   20.61
  12   0  -1  -10.57   36.70
 -12   0  -1   78.82   36.85
  12   0  -1  -35.62   28.43
  12   0   1   -8.47   33.57
 -12   0   1   73.02   37.68
  12   0   1   15.72   25.07
 -12   0   1   32.83   25.15
  12  -1  -1   59.13   38.61
 -12   1  -1  154.26   38.95
  12  -1  -1   53.06   30.96
 -12   1  -1   56.13   26.50
 -12   1   1  132.13   39.37
  12  -1   1  108.35   40.66
 -12   1   1   58.26   28.34
  12  -1   1   36.47   27.67
 -12   2  -1   33.64   33.41
 -12   2  -1   17.13   23.23
  12  -2  -1   32.79   26.91
  12  -2  -1  -24.36   42.01
  12  -2   1    1.80   38.53
 -12   2   1   -8.51   33.13
  12  -2   1   -8.98   25.93
  12  -3  -1  155.60   36.40
  12  -3  -1  163.66   50.33
 -12   3  -1  169.18   41.12
  12  -3   1  137.37   35.15
 -12   3   1  171.25   39.18
  12  -3   1  166.37   48.65
  12  -4  -1    5.99   28.47
  12  -4  -1  -45.30   40.20
 -12   4  -1  -28.04   32.84
 -12   4   1    9.08   34.05
  12  -4   1    1.92   26.88
  12  -4   1  -24.40   40.88
 -12   5  -1  191.59   43.18
  12  -5  -1  112.39   39.14
  12  -5  -1  155.61   52.40
 -12   5   1  168.36   43.41
  12  -5   1   81.29   48.70
  12  -5   1   61.90   38.46
 -12   6  -1   14.09   40.53
  12  -6  -1   46.31   46.21
  12  -6   1    8.30   42.98
  12  -7   1  111.66   54.83
 -13  -5   1    2.95   30.02
  13   3   1    5.76   26.58
 -13  -2  -1  -17.39   39.07
  13   2  -1   37.19   29.81
 -13  -2  -1   54.38   23.57
  13   2   1  184.04   37.04
 -13  -2   1  -17.11   40.38
  13   2   1  -20.96   27.87
  13   1  -1   31.49   29.73
 -13  -1  -1    4.52   24.23
  13   1  -1  164.77   39.37
 -13  -1  -1   31.49   40.88
 -13  -1   1   70.93   23.81
  13   1   1   13.13   37.28
  13   1   1  -11.63   28.48
 -13  -1   1   50.74   38.46
 -13   0  -1   57.63   41.63
 -13   0  -1   37.61   26.63
  13   0  -1   37.87   30.02
  13   0  -1  114.00   43.42
  13   0   1   56.64   41.22
 -13   0   1   29.03   38.90
  13   0   1    9.71   28.21
 -13   0   1   20.78   26.01
 -13   1  -1   15.77   25.30
 -13   1  -1   43.54   36.19
  13  -1  -1  -17.58   41.86
  13  -1  -1  -24.39   30.52
 -13   1   1    7.12   23.27
  13  -1   1  -19.28   41.60
 -13   1   1   70.10   38.86
  13  -1   1    6.09   31.05
  13  -2  -1   28.23   40.39
 -13   2  -1   14.17   35.55
  13  -2  -1   -6.07   28.59
 -13   2  -1  -21.21   25.30
  13  -2   1  -19.65   41.62
  13  -2   1   15.99   27.72
 -13   2   1   16.68   39.37
  13  -3  -1   12.28   28.58
 -13   3  -1   -9.33   36.28
  13  -3   1   18.53   43.31
  13  -3   1   10.02   28.92
 -13   3   1   19.07   36.74
 -13   4  -1   52.52   36.57
  13  -4  -1  136.58   36.68
 -13   4   1  105.02   39.57
  13  -4   1   82.02   34.66
  13  -4   1   69.45   48.92
 -13   5  -1   27.80   37.90
  13  -5   1   22.84   32.07
  14   5  -1  135.30   41.67
 -14  -5   1   58.07   38.44
  14   4  -1    9.05   37.58
 -14  -4  -1   -8.94   29.87
  14   4   1   29.69   32.21
  14   4   1    2.35   43.25
  14   3  -1   54.70   43.83
 -14  -3  -1   38.41   30.56
  14   3  -1   43.60   34.19
 -14  -3   1   24.81   28.20
  14   3   1   40.36   30.75
  14   3   1   56.86   43.17
 -14  -3   1   42.05   45.47
  14   2  -1   21.50   42.31
  14   2  -1   36.95   28.77
 -14  -2  -1   -7.92   27.45
 -14  -2   1  169.58   41.34
 -14  -2   1  -13.32   29.79
  14   2   1   -2.11   25.69
  14   2   1  -60.10   43.19
 -14  -1  -1    5.11   25.23
  14   1  -1    8.47   46.32
 -14  -1   1   23.18   25.29
  14   1   1   29.13   41.92
  14   0  -1   -2.14   46.93
 -14   0   1  -10.31   28.34
  14  -1  -1  -34.29   43.76
 -14   1   1   10.43   27.93
  14  -2  -1   19.55   45.61
 -14   2   1   -8.31   32.37
  14  -3  -1   -4.56   47.65
  14  -4  -1   51.36   50.91
  14  -4  -1   68.84   32.28
  14  -4   1   27.69   48.79
 -14   4   1  118.78   42.65
 -14   5  -1  172.51   44.95
  14  -5  -1   57.08   39.28
  14  -5  -1   -7.16   59.74
  14  -5   1  162.56   40.48
 -14   5   1   78.52   49.74
  14  -5   1   61.38   55.06
  14  -6  -1  -41.48   51.19
 -14   6  -1    9.45   45.06
  14  -6  -1   23.73   40.09
  14  -6   1    9.90   49.68
  14  -6   1  -32.92   37.45
 -14   6   1   68.28   48.84
  14  -7   1  -30.01   56.88
  15   5  -1    2.75   39.06
 -15  -4  -1   55.94   37.69
  15   4  -1   67.70   35.55
  15   4   1   57.19   36.30
  15   4   1   90.58   48.85
 -15  -3  -1   42.95   51.46
 -15  -3  -1   48.78   32.24
  15   3  -1  -24.12   52.16
  15   3  -1  -28.84   34.94
 -15  -3   1    6.14   34.10
 -15  -3   1  -15.74   50.35
  15   3   1  -28.98   50.00
  15   3   1    9.42   33.27
  15   2  -1   -2.39   36.45
 -15  -2  -1   56.50   52.24
 -15  -2  -1   38.29   31.79
  15   2  -1   11.92   49.64
 -15  -2   1   -5.97   33.04
 -15  -2   1  -27.58   50.90
  15   2   1   26.07   46.92
  15   2   1   77.01   34.02
 -15  -1  -1   15.30   49.25
  15   1  -1    4.74   33.47
 -15  -1  -1    2.87   31.85
  15   1  -1  -20.94   49.68
  15   1   1  -44.39   37.02
  15   1   1   -2.32   46.74
 -15  -1   1   17.33   31.51
 -15  -1   1  -33.33   47.24
 -15   0  -1  -16.67   29.38
 -15   0  -1   81.89   49.49
  15   0  -1  -44.32   46.88
  15   0  -1   37.42   37.22
  15   0   1  -13.81   47.79
 -15   0   1    8.58   31.48
  15   0   1    4.82   36.28
 -15   0   1   24.44   49.19
 -15   1  -1    8.42   31.69
  15  -1  -1  -23.70   54.37
 -15   1  -1   27.16   47.95
  15  -1  -1   12.44   34.88
 -15   1   1   17.98   46.58
 -15   1   1    2.90   31.39
  15  -1   1  -32.18   33.27
  15  -1   1   -2.33   50.47
  15  -2  -1    9.43   50.10
 -15   2  -1    8.84   45.39
  15  -2  -1  -22.40   34.25
 -15   2  -1  -20.08   32.39
  15  -2   1    9.87   35.34
 -15   2   1    3.01   32.78
 -15   2   1  -20.82   46.24
  15  -2   1    9.36   46.66
  15  -3  -1  107.33   52.96
 -15   3  -1  -25.85   41.79
  15  -3  -1   15.12   38.41
 -15   3  -1    3.07   33.14
  15  -3   1  -23.89   49.49
  15  -3   1    9.86   33.38
 -15   3   1  -23.68   47.33
 -15   4  -1   76.59   48.81
  15  -4  -1   15.34   52.46
  15  -4  -1   49.47   41.66
  15  -4   1   61.38   54.43
 -15   4   1  -15.29   47.63
  15  -4   1   73.76   35.75
  15  -5  -1    2.64   57.18
  15  -5  -1    5.63   37.24
 -15   5  -1   -3.06   45.60
  15  -5   1   24.08   39.68
 -15   5   1  -15.92   47.90
  15  -5   1  -13.15   54.67
  15  -6  -1  -53.24   45.45
 -15   6  -1 -105.32   48.26
  15  -6  -1  103.79   61.03
  15  -6   1    5.44   55.83
 -15   6   1   32.85   50.36
  15  -6   1   14.57   39.75
  15  -7  -1   25.40   64.35
  15  -7   1   64.20   62.56
  16   5  -1   18.18   45.48
 -16  -4  -1   10.95   36.15
  16   4  -1   35.96   56.18
  16   4  -1   19.37   40.11
  16   4   1 -168.41   57.94
  16   4   1   54.99   38.06
 -16  -4   1  -40.82   60.33
  16   3  -1   39.87   40.38
 -16  -3  -1   81.99   57.36
  16   3  -1    2.66   54.29
 -16  -3  -1  -33.80   35.77
 -16  -3   1  -10.27   37.07
 -16  -3   1   45.82   55.70
  16   3   1   21.35   54.66
  16   3   1   23.34   39.21
 -16  -2  -1  -23.03   35.60
  16   2  -1   28.99   54.47
 -16  -2  -1   59.99   53.69
  16   2  -1   33.79   37.49
 -16  -2   1  -30.89   55.17
  16   2   1   10.26   38.71
 -16  -2   1   -6.69   35.21
  16   2   1  -52.15   52.64
  16   1  -1   35.72   56.63
 -16  -1  -1   57.79   35.98
  16   1  -1   71.15   39.80
 -16  -1  -1   13.73   57.37
 -16  -1   1   32.48   37.79
  16   1   1    2.57   47.24
  16   1   1  -20.47   35.67
 -16  -1   1  -27.16   52.83
 -16   0  -1  -43.80   35.89
  16   0  -1  -10.93   38.13
  16   0  -1   -2.56   56.05
 -16   0  -1  -41.25   55.69
  16   0   1    2.52   49.69
 -16   0   1    9.60   36.90
 -16   0   1   47.52   55.17
  16   0   1  -21.78   38.90
 -16   1  -1   26.85   51.13
  16  -1  -1    2.73   39.62
 -16   1  -1   37.41   36.45
  16  -1  -1   17.98   56.04
  16  -1   1  -16.29   40.96
 -16   1   1    3.24   35.90
 -16   1   1    6.66   49.52
  16  -1   1  169.58   56.88
  16  -2  -1   80.61   56.51
 -16   2  -1   -3.19   34.99
 -16   2  -1   19.72   53.31
  16  -2  -1  -49.47   36.97
  16  -2   1   79.88   56.27
 -16   2   1   19.78   52.84
 -16   2   1  -13.19   35.67
  16  -2   1  -16.33   40.58
 -16   3  -1   -6.42   53.07
 -16   3  -1   26.74   35.91
  16  -3  -1  -44.53   54.68
  16  -3  -1   75.18   44.11
  16  -3   1  -12.90   53.75
 -16   3   1   -3.28   49.95
  16  -3   1    2.72   37.08
 -16   3   1   -7.11   40.12
 -16   4  -1   72.33   54.24
  16  -4  -1  -17.16   41.62
  16  -4  -1   18.96   59.11
 -16   4  -1   -3.65   39.95
  16  -4   1   53.27   40.07
  16  -4   1    5.26   55.71
 -16   4   1   40.69   51.61
 -16   5  -1   20.31   48.34
  16  -5  -1   70.51   45.53
  16  -5  -1   -2.93   62.93
 -16   5   1   21.04   50.17
  16  -5   1    8.78   40.04
  16  -5   1  -22.63   61.06
  16  -6  -1  369.05   78.86
  16  -6  -1  123.93   60.67
 -16   6  -1   85.19   63.32
  16  -6   1  137.98   56.73
  16  -6   1  221.99   74.79
 -16   6   1   35.60   62.51
  16  -7  -1  -57.96   72.11
  16  -7   1   28.87   69.59
  17   5  -1    3.36   48.10
 -17  -5   1 -145.18   76.62
  17   4  -1   45.90   64.00
 -17  -4  -1   23.18   82.12
  17   4  -1    3.05   41.73
 -17  -4  -1   16.27   41.39
 -17  -4   1   71.27   67.54
  17   4   1   85.20   67.07
  17   4   1   42.48   47.76
 -17  -4   1  -31.90   38.52
  17   3  -1    2.92   42.69
 -17  -3  -1   56.53   40.57
 -17  -3  -1  -29.42   67.42
  17   3  -1   23.41   60.32
  17   3   1   14.74   59.74
 -17  -3   1  -38.20   40.96
 -17  -3   1  -19.83   64.99
  17   3   1  -14.35   41.14
  17   2  -1  173.99   66.39
 -17  -2  -1 -131.01   63.10
 -17  -2  -1  -77.05   42.48
  17   2  -1   22.73   44.03
  17   2   1   20.06   62.87
 -17  -2   1   -3.73   40.22
 -17  -2   1  -69.15   65.34
  17   2   1   25.15   40.87
  17   1  -1  -56.71   64.07
 -17  -1  -1   57.94   61.21
 -17  -1  -1   10.80   36.71
  17   1  -1   50.42   42.00
 -17  -1   1   76.98   40.07
 -17  -1   1   19.08   58.60
  17   1   1   39.55   39.59
  17   1   1   -2.85   61.77
 -17   0  -1  -72.61   66.24
 -17   0  -1  -42.21   37.11
  17   0  -1  -53.23   62.89
  17   0  -1   -2.98   44.33
 -17   0   1   17.77   38.65
 -17   0   1   90.29   62.13
  17   0   1   26.64   44.70
  17   0   1   13.82   64.18
  17  -1  -1   97.48   64.15
  17  -1  -1   96.09   47.12
 -17   1  -1   78.32   58.62
 -17   1  -1   27.88   40.72
 -17   1   1   10.73   41.44
  17  -1   1  -36.01   62.25
  17  -1   1   38.85   47.55
 -17   1   1  -33.46   57.51
  17  -2  -1  151.19   45.85
  17  -2  -1   84.86   66.09
 -17   2  -1   25.72   58.59
 -17   2  -1  -32.00   39.93
 -17   2   1   58.64   58.33
 -17   2   1   14.64   39.92
  17  -2   1  108.16   44.75
  17  -3  -1  -46.24   45.96
  17  -3  -1   -5.66   64.40
 -17   3  -1   25.75   40.12
 -17   3  -1    7.21   57.49
  17  -3   1 -123.86   63.98
 -17   3   1   47.53   56.09
  17  -3   1   -9.00   40.86
 -17   3   1   -3.87   43.59
 -17   4  -1  -40.33   56.73
  17  -4  -1  -22.16   44.54
 -17   4  -1  -15.93   45.67
  17  -4  -1  -17.74   60.63
  17  -4   1  -55.07   66.04
 -17   4   1  -42.83   47.37
  17  -4   1   27.81   41.73
 -17   4   1   26.41   59.71
 -17   5  -1  -26.22   57.66
  17  -5  -1   91.16   66.68
  17  -5  -1    6.72   48.05
  17  -5   1    3.22   49.50
 -17   5   1  -31.04   60.82
  17  -5   1   18.07   63.94
  17  -6  -1   61.07   71.59
 -17   6  -1 -113.93   61.84
  17  -6  -1  -61.60   50.94
  17  -6   1  100.50   67.84
 -17   6   1   21.65   64.63
  17  -6   1   44.24   49.64
  17  -7  -1  -59.37   81.82
  17  -7   1   94.91   75.23
  18   5  -1   14.89   54.24
 -18  -5   1  -56.89   85.44
  18   4  -1   47.36   46.01
 -18  -4  -1   40.99   48.82
  18   4  -1  -47.51   69.80
 -18  -4  -1   15.89   86.52
 -18  -4   1   47.35   78.23
  18   4   1  -73.50   73.86
 -18  -4   1    4.46   51.32
  18   4   1    3.36   48.66
  18   3  -1 -135.67   65.34
 -18  -3  -1   47.69   75.90
  18   3  -1    3.18   46.05
 -18  -3  -1    8.44   45.18
 -18  -3   1   46.87   44.94
 -18  -3   1 -156.59   66.41
  18   3   1   29.36   67.84
  18   3   1  -85.20   42.88
  18   2  -1   21.96   45.90
  18   2  -1  -69.98   66.98
 -18  -2  -1   -4.48   74.91
 -18  -2  -1  -12.29   44.05
 -18  -2   1    4.17   42.82
  18   2   1   81.92   65.89
 -18  -2   1  -69.29   71.96
  18   2   1   -3.05   45.71
 -18  -1  -1   40.24   44.62
 -18  -1  -1   17.41   75.03
  18   1  -1    3.24   46.68
  18   1  -1  -84.39   62.56
 -18  -1   1   28.64   43.91
  18   1   1    3.14   45.27
  18   1   1   -3.13   65.54
 -18  -1   1   -4.28   64.23
 -18   0  -1  131.06   46.98
 -18   0  -1  -25.57   72.23
  18   0  -1    3.26   47.24
  18   0  -1  -73.26   65.44
  18   0   1   29.04   43.70
  18   0   1 -189.71   66.78
 -18   0   1  -58.55   68.51
 -18   0   1  -79.91   41.96
  18  -1  -1    3.05   61.17
  18  -1  -1   -3.29   50.92
 -18   1  -1  -23.38   46.64
 -18   1  -1   45.65   62.70
  18  -1   1   19.55   50.83
 -18   1   1  -27.94   44.31
 -18   1   1    4.10   64.38
  18  -1   1   63.58   65.51
 -18   2  -1    4.08   64.05
  18  -2  -1  -69.89   46.18
 -18   2  -1  -55.10   43.18
  18  -2  -1  -64.19   67.10
 -18   2   1   -4.08   40.25
 -18   2   1   93.13   64.08
  18  -2   1  -90.76   65.65
  18  -2   1  -99.20   46.43
 -18   3  -1   44.38   65.07
  18  -3  -1  -98.57   70.44
  18  -3  -1  -20.43   47.45
 -18   3  -1    4.10   48.19
  18  -3   1  -39.76   67.73
 -18   3   1    8.16   64.76
 -18   3   1   12.76   48.54
  18  -3   1    3.34   44.88
 -18   4  -1   39.32   49.70
 -18   4  -1   57.39   63.27
  18  -4  -1   27.90   51.59
  18  -4  -1   44.65   62.34
 -18   4   1  -21.02   63.30
  18  -4   1   13.64   46.88
  18  -4   1 -100.18   65.82
 -18   4   1  -46.98   52.67
 -18   5  -1   37.45   64.05
 -18   5  -1   -5.02   52.97
  18  -5  -1   13.39   67.38
  18  -5  -1   -7.38   52.85
  18  -5   1   46.17   50.51
 -18   5   1  -47.44   64.30
  18  -5   1  139.25   73.70
 -18   6  -1   85.45   67.91
  18  -6  -1  -58.48   81.74
  18  -6  -1   47.49   54.70
  18  -6   1  -52.16   54.94
 -18   6   1   -9.55   76.91
  18  -6   1   -6.88   74.25
  18  -7  -1   12.21   86.01
  18  -7   1  -64.61   83.46
  19   5  -1   58.22   60.72
 -19  -5   1  -29.65   93.90
 -19  -5   1    5.52   58.20
 -19  -4  -1  -66.80   98.80
  19   4  -1    3.72   56.76
  19   4  -1 -101.75   73.08
 -19  -4  -1  -10.25   54.89
 -19  -4   1 -124.02   91.39
 -19  -4   1   40.16   54.50
  19   4   1 -126.77   53.56
  19   3  -1 -108.00   58.53
  19   3  -1 -110.68   81.46
 -19  -3  -1  -66.36   49.07
 -19  -3  -1  114.26   86.05
  19   3   1  -72.28   48.07
 -19  -3   1  -30.36   81.80
 -19  -3   1   14.24   55.92
  19   3   1  -86.83   79.70
 -19  -2  -1   59.45   64.48
  19   2  -1  181.68   68.72
  19   2  -1  508.96   92.70
 -19  -2  -1  234.14   94.88
 -19  -2   1   41.94   66.17
 -19  -2   1  166.31   90.41
  19   2   1  346.92   91.02
  19   2   1  134.95   65.76
 -19  -1  -1   22.48   53.61
  19   1  -1  -14.12   57.17
 -19  -1  -1   29.54   78.78
  19   1   1 -188.68   78.63
 -19  -1   1   85.96   78.45
 -19  -1   1   13.75   49.81
  19   1   1    3.49   50.11
 -19   0  -1  115.33   53.89
 -19   0  -1  -33.19   79.20
  19   0  -1  -99.19   53.76
  19   0  -1 -289.87   82.46
 -19   0   1  -31.55   54.90
  19   0   1 -222.93   73.01
 -19   0   1   -9.28   74.19
  19   0   1 -119.24   52.70
 -19   1  -1   21.85   50.97
  19  -1  -1   -3.60   55.23
 -19   1  -1  -64.56   73.95
  19  -1  -1 -282.81   84.02
 -19   1   1    4.43   46.03
 -19   1   1   -4.59   73.70
  19  -1   1  -53.56   58.17
  19  -1   1 -234.03   78.44
  19  -2  -1  492.37   75.55
 -19   2  -1  149.91   66.00
 -19   2  -1  231.35   89.00
 -19   2   1   86.00   65.14
  19  -2   1  227.76   89.41
  19  -2   1  373.22   71.42
 -19   2   1  296.43   85.12
 -19   3  -1  -59.46   50.78
 -19   3  -1   -4.49   74.25
  19  -3  -1 -172.89   62.02
 -19   3   1  -95.67   78.11
 -19   3   1   19.03   56.18
  19  -3   1   22.20   58.61
  19  -3   1 -134.02   80.97
 -19   4  -1  -58.69   57.18
  19  -4  -1   46.15   56.22
  19  -4  -1    3.45   76.55
 -19   4  -1   54.92   69.41
  19  -4   1   15.04   53.64
 -19   4   1    4.69   69.30
  19  -4   1 -109.16   76.48
 -19   4   1  -15.56   58.32
  19  -5  -1  -28.82   75.13
 -19   5  -1  138.05   63.12
 -19   5  -1   -4.63   70.29
  19  -5  -1    4.07   53.57
 -19   5   1  -86.65   76.50
  19  -5   1   43.31   57.44
  19  -5   1  -94.34   75.34
 -19   5   1 -154.42   72.49
 -19   6  -1    5.01   78.34
 -19   6  -1  -13.59   77.76
  19  -6  -1   17.43   59.22
  19  -6  -1   23.34   82.11
  19  -6   1   51.59   78.33
  19  -6   1   -4.10   57.52
 -19   6   1  -47.88   80.49
  19  -7  -1 -153.45   95.08
  19  -7   1  -24.17   86.12
  20   4  -1   16.42   60.48
 -20  -4  -1  -63.42  110.21
 -20  -4   1   62.10  104.01
  20   4   1  -45.27   53.11
  20   3  -1    7.77   59.55
 -20  -3  -1   53.46   58.52
 -20  -3  -1   24.96  101.53
  20   3   1   20.10   82.75
 -20  -3   1  104.01   92.14
  20   3   1  -11.35   54.83
  20   2  -1   66.07   58.49
 -20  -2  -1   40.67   93.31
  20   2  -1   -3.83   78.21
 -20  -2  -1   25.50   57.92
  20   2   1 -187.78   78.70
  20   2   1    3.76   53.65
 -20  -2   1  -31.25   54.60
 -20  -2   1  -27.75   86.51
  20   1  -1    7.56   83.36
 -20  -1  -1   10.07   53.07
 -20  -1  -1   -5.53   87.08
  20   1  -1   30.73   59.27
 -20  -1   1   25.63   57.53
  20   1   1   19.00   56.18
 -20  -1   1   63.86   86.79
  20   1   1   82.51   75.32
 -20   0  -1   42.33   80.42
  20   0  -1   33.25   76.10
 -20   0  -1  -59.80   56.74
  20   0  -1  -77.49   55.78
 -20   0   1   67.21   84.48
  20   0   1 -111.51   78.89
 -20   0   1  -45.56   54.02
  20   0   1  -19.13   56.56
 -20   1  -1  -29.74   49.36
  20  -1  -1 -159.08   79.37
 -20   1  -1   67.04   82.89
  20  -1  -1   51.21   57.21
  20  -1   1    3.61   72.21
  20  -1   1  -27.26   58.18
 -20   1   1  -40.75   78.33
 -20   1   1  -49.93   52.72
 -20   2  -1  -69.86   75.82
  20  -2  -1  -71.85   57.98
  20  -2  -1  -76.31   76.89
 -20   2  -1  -44.50   56.03
 -20   2   1   15.24   56.52
 -20   2   1  100.91   76.42
  20  -2   1    3.61   76.85
  20  -2   1   35.75   58.92
  20  -3  -1   54.23   59.80
 -20   3  -1  -61.22   55.63
  20  -3  -1  -11.01   82.47
 -20   3  -1    5.02   82.74
 -20   3   1    5.11   76.38
  20  -3   1   20.44   56.94
  20  -3   1 -123.20   75.65
 -20   3   1  -26.72   56.59
 -20   4  -1  -10.24   76.37
  20  -4  -1  109.17   78.86
 -20   4  -1   33.02   64.22
  20  -4  -1  -46.94   58.50
  20  -4   1 -147.74   79.35
  20  -4   1   91.80   59.03
 -20   4   1  -40.92   67.04
 -20   4   1  -15.66   79.46
  20  -5  -1 -113.00   85.70
 -20   5  -1  -18.48   69.60
 -20   5  -1  -25.90   78.18
  20  -5  -1   18.01   65.26
  20  -5   1  -74.29   66.86
 -20   5   1   10.82   80.18
 -20   5   1   13.78   67.23
  20  -5   1  -61.06   83.92
  20  -6  -1 -116.17   72.98
 -20   6  -1  -16.86   86.52
  20  -6   1 -103.83   90.14
  20  -6   1  -95.76   69.61
 -20   6   1   53.72   87.47
   0   1  -2   -0.46    1.28
  -1   0  -2   -0.35    1.75
   0   1  -2    0.19    0.38
  -1   0  -2   -0.31    1.11
   0  -1   2   -0.73    1.55
   1   0   2    1.57    1.84
   0  -1   2    0.23    0.66
   1   0   2    0.31    1.27
   0  -1   2   -0.24    1.19
   1  -1   2   -0.29    1.25
   2   1  -2   95.07    8.80
   2   1  -2  126.06   10.02
  -2  -1   2   87.03    8.22
   2   0  -2  656.96   15.64
   2   0  -2  550.22   13.89
  -2   0  -2  619.57   17.54
  -2   0  -2  590.84   12.78
   2   0   2  672.49   14.79
   2   0   2  600.41   16.20
   2  -1  -2  127.83    9.05
  -2   1  -2   80.54    8.32
  -2   1  -2   88.77    8.02
   2  -1   2  114.63    9.65
  -2   1   2  110.71    7.75
   2  -1   2  107.01   10.07
  -2   2  -2  102.56   15.62
  -2  -2   2  117.43   15.86
   2  -2   2   57.52   17.42
   2  -2   2  114.09   18.63
   3   2  -2  563.26  116.32
  -3  -2   2  666.74   97.82
   3   1  -2   29.41    5.65
   3   1  -2   15.62    6.79
  -3  -1  -2   22.77    5.13
   3   1   2   19.17    6.52
  -3  -1   2   25.09    4.96
  -3   0  -2   -2.18    8.89
   3   0  -2    1.29    5.63
   3   0  -2    0.40    3.44
  -3   0  -2   -1.56    2.46
  -3   0   2   -1.39    4.19
   3   0   2    1.74    4.49
   3   0   2   -0.94    6.98
   3   0   2    3.20    5.29
   3   0   2    1.47    3.19
   3  -1  -2   29.43    6.03
  -3   1  -2   16.15    5.56
  -3   1   2   22.84    5.63
   3  -1   2   18.56    5.13
   3  -1   2   18.16    6.93
   3  -1   2   24.30    5.98
   3  -1   2   18.20    7.27
  -3   2  -2  579.87   92.10
  -3   2  -2  588.73   87.92
   3  -2   2  572.18  104.06
   3  -2   2  660.51  101.88
   3  -2   2  593.79  117.94
   3  -2   2  478.77  112.38
  -3   3  -2   -4.87    5.61
   3  -3   2    2.04    5.36
   4   2  -2  209.89   38.56
   4   2  -2  239.35   33.86
  -4  -2   2  204.47   32.15
   4   1  -2    6.38    7.14
  -4  -1  -2    0.63    3.61
   4   1  -2    3.20    5.52
   4   1   2    7.76    6.49
   4   1   2    2.19    5.33
  -4  -1   2   -1.16    3.70
  -4   0  -2   23.70    5.60
   4   0  -2   20.96    6.96
  -4   0  -2   48.16   13.50
   4   0   2   29.03   10.86
  -4   0   2   12.85    7.45
   4   0   2   42.46    8.51
   4   0   2   24.72    8.03
   4   0   2   14.62    6.51
  -4   1  -2   -5.44   10.78
   4  -1  -2    7.18    6.36
  -4   1  -2    8.08    6.24
   4  -1   2    4.95    5.57
   4  -1   2   -0.47    8.67
   4  -1   2    5.11    7.70
   4  -1   2    6.19    5.19
  -4   1   2   -2.61    6.88
   4  -2  -2  180.23   37.34
  -4   2  -2  130.30   29.86
  -4   2  -2  134.61   28.97
   4  -2   2  157.54   33.06
   4  -2   2  245.54   38.30
   4  -2   2  183.40   33.79
   4  -2   2  188.24   37.30
  -4   2   2  208.81   29.08
  -4   3  -2  662.20  111.19
  -4   3  -2  697.70  106.81
   4  -3   2  738.33  134.08
   4  -3   2  667.11  138.77
   4  -3   2  776.44  122.91
   5   2  -2  766.70  107.91
   5   1  -2  102.62   15.77
  -5  -1  -2   85.35   14.95
   5   1   2   53.81   15.73
   5   1   2   92.93   18.72
  -5  -1   2  101.61   14.61
   5   1   2  117.67   19.00
  -5   0  -2   -2.67    5.40
   5   0  -2    0.66    7.43
  -5   0  -2    3.15   17.14
   5   0   2   -8.48    9.33
  -5   0   2   -6.13    9.05
   5   0   2    1.23    6.92
   5   0   2   -3.32    8.57
   5   0   2    0.66   13.12
  -5   1  -2   61.19   20.79
  -5   1  -2   99.73   15.39
   5  -1  -2   72.49   16.11
   5  -1   2   73.59   15.96
   5  -1   2   73.03   14.94
   5  -1   2   71.08   19.24
  -5   1   2   61.23   15.11
   5  -1   2   78.83   19.13
  -5   2  -2  715.18   95.02
  -5   2  -2  730.36   93.24
   5  -2   2  666.74  105.01
   5  -2   2  702.78  121.83
   5  -2   2  714.69  116.22
   5  -2   2  833.86  108.03
  -5   3  -2  223.37   41.61
  -5   3  -2  260.00   42.88
   5  -3   2  314.77   48.05
   5  -3   2  248.58   52.89
   5  -3   2  281.43   49.58
   5  -3   2  248.51   57.37
   6   3  -2  979.32  169.76
   6   2  -2   70.64   24.33
  -6  -2  -2  103.52   19.42
   6   2  -2   66.91   20.77
   6   2   2  108.03   24.36
   6   2   2  128.93   20.99
  -6  -2   2  106.29   18.82
  -6  -1  -2  101.96   18.20
   6   1  -2  115.12   23.40
   6   1   2  129.24   22.95
   6   1   2   64.34   23.09
  -6  -1   2  118.79   18.25
  -6   0  -2   75.43   30.94
   6   0   2  110.26   27.41
   6   0   2  118.00   23.46
   6  -1  -2  101.20   24.24
  -6   1  -2  120.31   26.33
   6  -1  -2  125.62   19.78
  -6   1  -2   90.98   17.25
   6  -1   2   79.60   23.17
   6  -1   2  117.48   19.39
   6  -2  -2   62.02   24.32
  -6   2  -2   59.49   18.26
   6  -2  -2  131.55   20.97
   6  -2   2   83.31   23.67
  -6   2   2  134.75   20.16
   6  -2   2  100.94   19.06
  -6   3  -2  959.03  125.78
   6  -3  -2  942.11  159.12
   6  -3   2 1094.50  166.88
   6  -3   2  985.84  149.83
  -6   4  -2   44.66   14.89
   6  -4   2    3.82   17.78
   6  -4   2   50.35   13.40
   7   4  -2   -9.28   19.14
   7   4  -2    2.50   16.07
  -7  -4   2    2.84   12.56
   7   3  -2  220.57   45.75
  -7  -3  -2  215.65   37.37
   7   3  -2  201.96   39.67
  -7  -3   2  202.13   37.21
   7   2  -2   83.17   16.38
   7   2  -2   62.99   20.38
  -7  -2  -2   70.18   14.73
   7   2   2   86.26   20.97
   7   2   2   64.83   16.43
  -7  -2   2   52.59   14.34
   7   1  -2   -2.53    4.76
   7   1  -2    3.80   12.53
  -7  -1  -2    8.46   10.08
  -7  -1   2    9.95   15.46
   7   1   2   -0.89   14.83
   7   1   2    6.42   11.69
   7   1   2    6.97   15.36
  -7   0  -2    5.86    8.81
   7   0  -2    2.56   14.57
   7   0  -2   -4.68   12.03
   7   0  -2   -0.22    4.42
  -7   0  -2    9.85   28.22
   7   0   2   -2.64   15.17
  -7   0   2    2.56    4.33
  -7   0   2    0.49   14.57
   7   0   2    8.49   20.61
  -7   0   2   -3.31   14.96
   7   0   2   16.06   11.13
   7   0   2    1.23   10.77
  -7   1  -2  -14.44   13.11
  -7   1  -2   -6.75   10.02
   7  -1  -2   -7.16   19.18
   7  -1  -2   -3.95   12.30
  -7   1  -2   -1.90   24.04
   7  -1  -2    4.70   10.67
   7  -1   2    8.89   11.23
   7  -1   2   -6.48   17.15
   7  -1   2    1.14   10.11
   7  -1   2    2.86   17.55
  -7   1   2   23.91   15.77
  -7   2  -2   -5.38   26.61
   7  -2  -2   29.42   16.38
   7  -2  -2   50.39   22.44
   7  -2  -2   75.55   19.66
  -7   2  -2   82.19   15.28
  -7   2  -2   82.37   17.50
   7  -2   2   59.45   14.71
   7  -2   2   47.05   15.98
   7  -2   2   15.51   22.94
  -7   2   2   81.63   17.78
   7  -2   2   20.39   22.06
   7  -3  -2  170.77   39.60
  -7   3  -2  228.40   35.23
   7  -3  -2  171.58   44.14
   7  -3   2  165.10   44.70
   7  -3   2  261.49   44.72
  -7   3   2  291.36   36.59
   7  -3   2  211.31   38.78
  -7   4  -2   -6.52   13.06
  -7   4  -2   18.47   16.18
   7  -4  -2   -6.76   22.24
   7  -4   2    6.14   15.67
   7  -4   2  -13.54   19.34
  -7   4   2  -39.32   19.94
   7  -5   2  -13.88   23.48
   7  -5   2   14.23   28.53
   8   4  -2  772.74  139.33
  -8  -4   2  774.36  130.81
   8   3  -2   72.24   23.38
  -8  -3  -2   18.63   15.96
   8   3  -2   70.56   17.57
  -8  -3   2   60.12   15.36
   8   3   2   23.42   21.80
   8   3   2   17.86   18.13
   8   2  -2   38.92   23.50
   8   2  -2   64.86   18.70
   8   2  -2   46.12   14.51
  -8  -2  -2   66.16   15.66
  -8  -2   2  101.07   16.32
   8   2   2   69.91   23.45
   8   2   2   55.86   23.39
   8   2   2   64.52   18.23
   8   1  -2    1.96    5.55
  -8  -1  -2   -8.47   10.07
   8   1  -2    9.94   14.13
   8   1   2   -1.05   13.09
  -8  -1   2    2.58   17.72
   8   1   2    6.18   16.81
   8   1   2    6.65   15.73
   8   0  -2  128.18   33.59
  -8   0  -2   87.15   21.57
  -8   0  -2   42.45   37.27
  -8   0  -2   49.24   16.85
   8   0  -2   65.76   13.89
   8   0  -2   81.75   19.91
   8   0   2  123.10   24.10
  -8   0   2   73.93   12.24
   8   0   2   59.87   19.18
   8   0   2   75.84   18.69
  -8   0   2   64.32   25.75
  -8   0   2   72.37   21.84
   8   0   2  111.97   30.93
  -8   1  -2   -3.59   11.20
   8  -1  -2    8.31   21.40
   8  -1  -2   -2.27   14.85
  -8   1  -2   34.14   16.77
  -8   1  -2   -4.53   29.98
   8  -1  -2   -8.34   13.38
  -8   1  -2   -6.72   11.32
   8  -1   2   18.78   12.77
  -8   1   2   -9.23   18.28
   8  -1   2   -3.68   11.45
   8  -1   2  -25.34   19.78
   8  -1   2    2.47   21.12
  -8   1   2   -0.51   16.85
  -8   2  -2   16.33   29.73
   8  -2  -2   44.10   18.92
   8  -2  -2   47.35   17.78
   8  -2  -2   24.82   24.69
  -8   2  -2   88.62   15.25
  -8   2  -2   81.56   20.53
   8  -2   2   95.71   14.69
   8  -2   2   14.13   19.89
   8  -2   2    6.50   26.67
   8  -2   2  -44.34   27.73
  -8   2   2   48.18   19.34
   8  -3  -2    3.59   23.01
   8  -3  -2   68.27   20.41
  -8   3  -2   37.59   19.89
   8  -3   2   -1.15   20.86
  -8   3   2   42.99   20.22
   8  -4  -2  837.27  145.82
   8  -4  -2  715.01  135.06
  -8   4  -2  723.54  122.94
   8  -4   2  903.15  148.45
  -8   4   2  648.14  119.75
   8  -4   2  760.63  151.00
  -8   5  -2  584.83   92.56
   8  -5   2  554.03  119.06
   8  -5   2  576.15  112.74
   9   5  -2  318.11   58.60
   9   4  -2   11.05   26.31
   9   4  -2    8.82   20.19
  -9  -4   2   15.53   16.47
   9   3  -2  509.17  134.91
   9   3  -2  704.04  117.03
   9   3   2  670.68  135.46
   9   3   2  646.86  117.35
   9   2  -2    3.79   17.03
  -9  -2  -2  -10.64   14.76
  -9  -2   2   11.56   13.52
   9   2   2   -8.71   15.46
   9   2   2   11.18   21.01
   9   2   2    2.27   22.07
  -9  -1  -2   11.04   13.15
   9   1  -2  -10.12   16.70
   9   1   2   15.12   15.93
   9   1   2   39.99   22.88
   9   1   2   16.72   16.25
  -9  -1   2  -10.41   21.37
  -9   0  -2   10.70   38.27
  -9   0  -2   21.44   19.81
  -9   0  -2  -10.58   13.46
   9   0  -2   12.71   24.34
   9   0  -2    8.73   17.15
   9   0   2   -8.27   21.30
   9   0   2   21.80   15.32
  -9   0   2   16.52   13.69
  -9   0   2    1.49   21.32
   9   0   2    3.97   13.45
   9   0   2   -2.82   34.31
  -9   1  -2   14.95   13.79
  -9   1  -2    9.90   12.75
  -9   1  -2    1.33   37.39
   9  -1  -2   18.12   18.22
  -9   1  -2    4.25   21.30
   9  -1  -2   12.28   25.40
  -9   1   2   17.29   23.22
   9  -1   2    3.26   12.14
   9  -1   2  -13.43   24.88
   9  -1   2   -6.01   16.45
  -9   1   2   15.12   21.97
   9  -1   2   19.73   25.31
  -9   2  -2   32.86   20.38
  -9   2  -2    3.24   29.27
   9  -2  -2   14.60   18.27
   9  -2  -2    6.67   25.14
   9  -2   2   26.10   24.38
  -9   2   2    9.10   21.93
   9  -2   2   12.44   16.07
   9  -3  -2  665.22  124.20
  -9   3  -2  822.10  103.75
   9  -3  -2  636.57  127.01
   9  -3  -2  637.39  116.97
   9  -3   2  580.92  114.79
   9  -3   2  664.52  113.33
  -9   3   2  742.71  105.31
  -9   4  -2   44.24   17.71
   9  -4  -2   15.99   25.76
  -9   4  -2  -20.13   21.18
   9  -4  -2   13.28   21.78
   9  -4   2   20.09   18.19
  -9   4   2   10.50   23.77
   9  -4   2  -19.94   26.14
   9  -4   2    9.11   28.42
  -9   5  -2  244.24   51.95
   9  -5  -2  321.24   63.81
   9  -5   2  280.76   61.91
   9  -5   2  273.28   55.95
   9  -5   2  267.90   64.84
   9  -6   2  291.64   71.50
   9  -6   2  306.65   66.75
  10   5  -2  241.17   55.41
 -10  -5   2  280.18   51.23
  10   4  -2  422.08   78.04
  10   4  -2  351.06   67.86
 -10  -4   2  436.51   63.78
  10   3  -2   30.91   22.19
 -10  -3  -2   65.26   20.54
  10   3  -2    7.24   29.05
  10   3   2   47.87   21.43
 -10  -3   2   40.74   19.40
  10   3   2   40.20   28.65
  10   2  -2   50.13   21.84
 -10  -2  -2   64.69   19.44
  10   2   2   61.99   21.48
  10   2   2   76.86   28.34
  10   1  -2   -2.88   19.28
 -10  -1  -2   12.57   15.26
 -10  -1   2  -16.96   23.77
  10   1   2    8.11   19.24
  10   1   2   11.99   22.13
 -10   0  -2   56.19   49.67
  10   0  -2    5.78   29.13
 -10   0  -2   39.59   25.14
 -10   0  -2   39.27   16.04
  10   0  -2   31.08   21.02
  10   0   2   50.50   26.06
 -10   0   2   32.22   25.73
 -10   0   2   26.86   17.89
  10   0   2   40.19   20.03
 -10   1  -2   -1.55   15.07
 -10   1  -2  -26.23   42.96
  10  -1  -2   -9.14   30.43
 -10   1  -2    4.89   24.71
  10  -1  -2    2.93   19.51
  10  -1   2  -12.29   24.97
 -10   1   2    6.87   25.14
  10  -1   2   17.79   19.03
 -10   2  -2   68.65   25.57
  10  -2  -2   41.57   23.08
  10  -2  -2   10.57   30.08
  10  -2   2   72.03   21.54
 -10   2   2   29.24   26.03
  10  -2   2   26.34   32.05
  10  -3  -2   19.78   30.66
 -10   3  -2   30.73   34.54
  10  -3  -2   77.47   22.37
 -10   3  -2   48.89   25.25
 -10   3  -2   43.49   18.39
  10  -3   2   59.59   31.83
  10  -3   2   43.48   16.26
  10  -3   2   79.78   28.54
 -10   3   2  100.81   26.75
  10  -3   2   15.83   21.41
  10  -4  -2  438.61   67.40
 -10   4  -2  440.38   61.92
  10  -4  -2  343.94   72.16
  10  -4   2  304.94   70.60
  10  -4   2  212.12   65.18
  10  -4   2  332.84   76.72
 -10   4   2  261.76   61.34
 -10   5  -2  252.68   50.42
  10  -5  -2  275.87   55.18
  10  -5  -2  322.05   62.36
  10  -5   2  238.93   53.66
  10  -5   2  274.59   60.72
 -10   5   2  286.34   51.58
  10  -5   2  271.55   60.51
  10  -6   2   38.06   32.09
  10  -6   2  -13.78   41.15
  11   5  -2  258.80   54.07
 -11  -5   2  181.77   49.76
  11   4  -2    6.96   24.02
  11   4  -2  -18.48   30.29
 -11  -4  -2   -2.40   21.49
  11   4   2   -5.68   25.86
 -11  -4   2   14.76   19.80
  11   3  -2  103.63   30.73
 -11  -3  -2  104.53   26.77
  11   3  -2  137.32   38.85
  11   3   2   62.43   34.57
  11   3   2  125.41   30.11
 -11  -3   2  107.18   26.33
  11   2  -2    1.61   22.94
 -11  -2  -2    1.90   19.06
 -11  -2   2   15.47   30.33
  11   2   2   18.75   32.15
  11   2   2   -9.13   20.94
 -11  -1  -2   14.31   18.60
  11   1  -2   42.06   22.75
  11   1  -2  -14.18   32.90
  11   1   2   56.87   29.97
  11   1   2   21.48   22.70
 -11  -1   2   -1.92   27.91
 -11   0  -2    5.14   18.22
  11   0  -2  -14.35   32.80
 -11   0  -2   -3.75   27.91
  11   0  -2    4.82   21.76
 -11   0   2    5.66   17.59
 -11   0   2   13.50   28.96
  11   0   2    1.57   22.34
  11   0   2   -7.50   31.92
  11  -1  -2    1.64   22.25
 -11   1  -2   20.83   18.91
  11  -1  -2   61.18   36.16
 -11   1  -2   50.45   29.99
 -11   1   2    5.80   27.10
  11  -1   2   19.88   32.26
  11  -1   2   31.25   23.56
  11  -2  -2    3.41   33.16
 -11   2  -2    7.43   18.50
 -11   2  -2   20.43   29.80
  11  -2  -2   28.13   22.49
  11  -2   2   23.90   20.69
  11  -2   2   -4.80   33.33
 -11   2   2   50.20   26.75
  11  -3  -2   71.10   29.99
 -11   3  -2   97.45   32.75
  11  -3  -2  107.66   38.38
  11  -3   2  133.92   40.88
 -11   3   2   88.34   32.81
  11  -3   2   59.39   28.34
  11  -4  -2   12.17   35.35
  11  -4  -2   -1.89   24.66
 -11   4  -2    5.69   26.93
  11  -4   2  -27.47   24.03
 -11   4   2    8.44   29.26
  11  -4   2   -1.68   35.23
 -11   5  -2  288.91   50.36
  11  -5  -2  283.24   53.66
  11  -5  -2  260.90   60.31
  11  -5   2  233.01   61.15
 -11   5   2  287.45   50.88
  11  -5   2  233.26   52.71
 -11   6  -2   -7.87   33.02
  11  -6   2   -3.66   33.51
  11  -7   2   39.16   44.11
  12   5  -2  -14.93   29.35
  12   5  -2   84.14   37.40
 -12  -5   2   60.54   26.08
 -12  -4  -2   31.08   26.07
  12   4  -2   16.67   34.02
  12   4  -2   19.01   28.21
  12   4   2   46.28   27.62
 -12  -4   2   25.77   25.14
 -12  -3  -2    9.03   21.80
  12   3  -2   19.79   26.29
 -12  -3   2   -2.22   19.51
  12   3   2   32.63   35.03
  12   3   2   35.16   24.10
  12   2  -2  -14.35   26.25
 -12  -2  -2  -25.47   22.88
  12   2   2   13.91   35.52
 -12  -2   2  -37.06   33.88
  12   2   2   23.56   24.66
 -12  -1  -2   62.71   36.27
  12   1  -2   37.70   27.63
 -12  -1  -2   22.23   23.31
  12   1  -2  113.07   40.23
  12   1   2   65.50   34.61
  12   1   2   -1.72   25.24
 -12  -1   2   75.74   38.41
 -12  -1   2   49.59   24.73
  12   0  -2  125.54   44.45
 -12   0  -2   89.51   29.98
  12   0  -2  123.20   34.19
 -12   0  -2  138.21   39.31
 -12   0   2  303.93   46.04
  12   0   2   64.80   31.67
 -12   0   2  142.50   33.00
  12   0   2   94.37   42.45
 -12   1  -2   58.80   24.64
  12  -1  -2   84.42   39.20
 -12   1  -2   -6.35   34.50
  12  -1  -2   77.05   28.33
  12  -1   2   61.90   37.00
 -12   1   2   86.80   37.89
  12  -1   2   62.03   26.88
 -12   1   2   57.67   27.34
  12  -2  -2   11.05   27.23
  12  -2  -2  -43.83   40.59
 -12   2  -2   -2.08   22.35
 -12   2  -2   -6.29   33.51
  12  -2   2   47.46   36.34
 -12   2   2  -32.42   33.17
  12  -2   2  -44.61   28.44
  12  -3  -2   -9.54   26.93
  12  -3  -2  -34.05   40.86
 -12   3  -2   18.61   31.56
  12  -3   2   -5.56   38.23
  12  -3   2   25.03   27.37
 -12   3   2    2.18   32.63
 -12   4  -2   63.23   30.66
  12  -4  -2   32.62   38.30
  12  -4  -2   42.81   27.92
 -12   4   2    2.33   33.04
  12  -4   2   13.18   40.08
  12  -4   2   41.03   25.88
 -12   5  -2   20.32   33.12
  12  -5  -2   47.06   40.48
  12  -5  -2   13.88   31.31
  12  -5   2   36.25   39.13
  12  -5   2  -10.34   28.25
 -12   5   2   20.59   36.74
  12  -6  -2   49.52   43.16
 -12   6  -2  -40.38   38.05
  12  -6   2  -17.05   33.10
  12  -6   2   24.48   43.48
  12  -7   2  -37.97   46.51
  13   5  -2  196.76   53.20
 -13  -5   2   63.22   36.48
  13   3   2   -9.61   28.33
  13   2  -2   11.99   29.17
 -13  -2  -2   37.86   24.77
 -13  -2   2   -9.78   39.02
  13   2   2   94.53   35.15
  13   2   2   13.16   27.58
  13   1  -2   27.78   30.28
 -13  -1  -2   58.76   38.80
 -13  -1  -2   11.37   25.94
  13   1   2   19.14   27.53
  13   1   2   -5.64   41.19
 -13  -1   2   12.18   39.29
 -13  -1   2   -2.33   24.57
 -13   0  -2   -2.18   25.14
  13   0  -2  133.98   42.55
 -13   0  -2   36.09   41.89
  13   0  -2    8.26   31.02
 -13   0   2   -7.36   39.51
  13   0   2    3.74   37.62
 -13   0   2   86.83   25.52
  13   0   2   29.03   30.20
 -13   1  -2   -9.64   40.87
 -13   1  -2   46.41   26.30
  13  -1  -2  185.75   45.46
  13  -1  -2   61.46   31.73
 -13   1   2  126.38   27.22
  13  -1   2   56.66   32.87
 -13   1   2   48.57   38.96
  13  -1   2   50.98   39.62
  13  -2  -2  -16.36   30.43
 -13   2  -2   -4.57   24.77
 -13   2  -2    4.71   38.16
  13  -2   2   21.13   41.39
  13  -2   2  -18.02   28.30
 -13   2   2    4.80   38.47
  13  -3  -2  -46.16   29.72
 -13   3  -2  -27.84   34.96
 -13   3   2    2.42   34.93
  13  -3   2   -1.99   27.65
  13  -3   2  -19.98   43.19
 -13   4  -2   35.15   36.32
 -13   4   2   -2.56   37.29
  13  -4   2   33.78   44.70
  13  -4   2   36.85   29.51
 -13   5  -2  148.86   43.44
  13  -5   2  232.68   52.42
  13  -5   2   87.69   37.33
 -13   6  -2   91.06   42.43
  13  -6  -2    5.00   50.36
  13  -6   2  -30.25   37.19
  14   5  -2   12.48   37.74
 -14  -5   2  -37.86   35.61
  14   4  -2   70.73   33.53
 -14  -4  -2   58.47   33.79
  14   4   2   30.13   34.68
 -14  -4   2  -17.22   31.81
 -14  -3  -2  -24.82   30.66
  14   3  -2  -17.70   32.53
  14   3   2    6.62   44.50
 -14  -3   2   58.32   43.84
  14   3   2   12.63   30.76
 -14  -2  -2   -2.64   26.77
  14   2  -2   42.94   45.42
  14   2  -2  119.04   35.74
 -14  -2   2  106.68   47.29
 -14  -2   2   -2.69   29.63
  14   2   2  -10.66   43.34
  14   1  -2   34.15   45.28
  14   1  -2   -2.18   28.62
 -14  -1  -2    2.55   28.00
 -14  -1   2   13.03   27.74
 -14  -1   2   -2.72   34.61
  14   0  -2  -17.19   40.55
 -14   0   2   -7.88   27.31
  14  -1  -2   58.50   43.91
 -14   1   2    2.68   25.56
  14  -2  -2   -2.27   27.72
  14  -2  -2   42.22   47.11
 -14   2   2  -22.53   30.43
  14  -3  -2   43.73   50.33
  14  -3  -2   69.50   33.51
 -14   3   2   94.07   38.86
  14  -4  -2   16.95   34.57
  14  -4  -2  -72.41   47.49
 -14   4   2  -11.28   44.06
  14  -5  -2  -26.54   38.84
  14  -5  -2   12.09   53.20
  14  -5   2   21.29   53.46
 -14   5   2  -24.09   45.04
  14  -6  -2   24.24   54.36
 -14   6  -2  149.32   47.33
 -14   6   2   82.96   53.38
  14  -6   2  -17.04   53.79
  14  -6   2   63.66   38.46
  14  -7   2   -2.63   53.87
  15   5  -2   81.62   38.68
  15   5  -2   40.26   52.58
 -15  -5   2    3.48   36.77
 -15  -4  -2   23.68   31.75
  15   4  -2   25.28   37.59
 -15  -4   2   83.27   52.68
  15   4   2   12.51   35.65
 -15  -3  -2    6.11   31.70
  15   3  -2  -17.13   36.57
  15   3   2   14.02   35.67
  15   3   2   51.18   49.65
 -15  -3   2  -34.26   48.68
 -15  -2  -2    6.41   52.37
 -15  -2  -2   29.37   33.09
  15   2  -2  -33.71   36.30
  15   2  -2  -52.34   46.74
  15   2   2  -28.22   45.90
  15   2   2   -6.91   32.72
 -15  -2   2  -15.07   33.78
 -15  -2   2  -30.51   47.23
 -15  -1  -2   39.91   29.75
  15   1  -2   38.80   35.71
  15   1  -2   28.20   50.17
 -15  -1  -2   15.42   52.12
  15   1   2   39.56   47.77
 -15  -1   2   30.41   49.49
 -15  -1   2   -2.90   33.41
  15   1   2   18.65   33.71
  15   0  -2  -49.85   50.09
 -15   0  -2    9.15   46.50
  15   0  -2   45.12   34.91
 -15   0  -2    8.29   30.25
  15   0   2  -21.41   37.03
  15   0   2  -31.83   48.70
 -15   0   2   23.34   32.98
 -15   0   2  -30.51   46.92
 -15   1  -2   19.24   30.02
  15  -1  -2  -28.42   51.80
  15  -1  -2  -42.33   37.70
 -15   1  -2   30.31   47.95
  15  -1   2  -19.85   34.31
  15  -1   2   18.30   49.94
 -15   1   2    6.00   47.75
 -15   1   2  -58.99   32.92
  15  -2  -2  -45.61   53.74
 -15   2  -2    8.86   45.90
 -15   2  -2    2.81   29.53
  15  -2  -2   12.52   36.75
  15  -2   2   25.71   48.07
  15  -2   2  -46.65   37.42
 -15   2   2   -3.10   31.99
 -15   2   2   11.92   48.05
 -15   3  -2    2.95   31.65
  15  -3  -2   90.61   55.60
  15  -3  -2  -20.45   36.53
 -15   3  -2  -26.08   44.71
 -15   3   2  -17.92   44.45
  15  -3   2   12.23   34.41
  15  -3   2  -16.41   47.55
  15  -4  -2  -71.58   36.92
 -15   4  -2  -26.14   44.33
  15  -4  -2  -36.35   56.76
  15  -4   2   12.43   34.01
  15  -4   2   36.71   53.31
 -15   4   2    3.12   48.82
 -15   5  -2  -12.08   45.88
  15  -5  -2  -45.50   55.32
  15  -5  -2   45.95   41.50
 -15   5   2    9.84   48.50
  15  -5   2   -7.74   39.22
  15  -5   2  -15.46   55.77
  15  -6  -2  100.80   59.92
 -15   6  -2   26.40   47.23
  15  -6   2   10.74   58.86
 -15   6   2   -3.83   54.29
  15  -6   2  -16.97   39.54
  15  -7   2   39.96   58.27
  16   5  -2 -117.63   43.57
  16   5  -2    2.96   53.51
 -16  -5   2   34.80   41.45
  16   4  -2   30.59   40.81
 -16  -4  -2   56.08   39.54
 -16  -4   2   17.98   56.71
  16   4   2    2.75   40.62
 -16  -3  -2  -77.36   64.55
  16   3  -2  -82.77   55.01
 -16  -3  -2   40.80   37.37
  16   3  -2  -45.75   40.34
  16   3   2   40.37   57.00
 -16  -3   2   20.85   57.35
  16   3   2  -51.62   37.02
  16   2  -2  -34.23   37.02
 -16  -2  -2    7.20   57.71
 -16  -2  -2   -3.27   34.34
  16   2  -2   97.59   55.31
 -16  -2   2   23.91   57.00
  16   2   2   12.96   53.54
  16   2   2   -2.55   35.32
 -16  -2   2  -30.33   35.74
 -16  -1  -2  -55.65   54.79
  16   1  -2  -30.87   52.95
  16   1  -2   -2.70   40.61
 -16  -1  -2   -3.19   35.12
 -16  -1   2    3.40   51.26
  16   1   2   -2.55   37.46
  16   1   2    2.57   52.81
 -16  -1   2   -3.27   35.67
  16   0  -2   30.88   52.06
  16   0  -2 -112.43   43.55
 -16   0  -2  -62.19   38.21
 -16   0  -2  -47.90   56.44
  16   0   2  -54.90   50.41
 -16   0   2   -3.38   49.03
 -16   0   2   -3.23   35.96
  16   0   2   15.91   40.14
  16  -1  -2   -2.60   56.48
 -16   1  -2   33.76   55.66
 -16   1  -2   -9.24   34.75
  16  -1  -2  -76.96   38.58
  16  -1   2   13.61   38.86
 -16   1   2   16.38   32.60
 -16   1   2   23.43   53.91
  16  -1   2    5.02   49.37
 -16   2  -2   49.32   50.44
 -16   2  -2    6.27   34.90
  16  -2  -2   -5.52   38.97
  16  -2  -2   51.78   56.48
 -16   2   2  -29.75   52.69
  16  -2   2    2.72   41.47
  16  -2   2   -5.08   54.05
 -16   2   2    6.76   37.08
  16  -3  -2 -104.27   58.02
 -16   3  -2  -22.62   37.42
  16  -3  -2  -59.25   42.90
 -16   3  -2   -3.22   50.77
 -16   3   2  -47.01   38.20
 -16   3   2    6.64   52.41
  16  -3   2  -69.07   55.54
  16  -3   2  -40.66   40.99
  16  -4  -2 -109.13   62.20
 -16   4  -2  -56.28   39.19
  16  -4  -2   58.14   39.76
 -16   4  -2  -61.53   50.44
  16  -4   2  -34.26   56.44
  16  -4   2    5.49   36.55
 -16   4   2   10.36   51.09
 -16   5  -2  -50.15   53.11
  16  -5  -2  -40.68   42.87
  16  -5  -2  -79.57   66.65
  16  -5   2  -19.78   41.21
  16  -5   2  -43.86   57.08
 -16   5   2  -39.63   51.88
  16  -6  -2  114.73   52.62
  16  -6  -2   91.00   66.60
 -16   6  -2   -7.21   54.01
  16  -6   2   18.27   46.65
  16  -6   2  169.16   68.40
 -16   6   2  -20.62   59.68
  16  -7   2  -84.53   68.55
  17   5  -2  106.82   46.33
 -17  -5   2   -8.63   46.10
 -17  -5   2   51.29   64.46
  17   4  -2   43.13   44.82
 -17  -4  -2   39.70   91.70
 -17  -4  -2  -12.45   41.25
 -17  -4   2   76.72   67.63
  17   4   2    9.14   45.61
  17   3  -2   17.61   63.06
 -17  -3  -2   30.38   43.92
 -17  -3  -2 -197.47   80.42
  17   3  -2  -52.82   43.05
 -17  -3   2   26.97   40.70
  17   3   2   34.15   41.70
 -17  -3   2  -50.56   61.77
  17   2  -2  -58.21   56.79
 -17  -2  -2  -48.66   66.83
  17   2  -2  -49.30   41.25
 -17  -2  -2  -32.80   39.99
  17   2   2  -33.46   42.37
 -17  -2   2  -45.72   60.85
  17   2   2   -2.85   59.02
 -17  -2   2   15.09   44.45
 -17  -1  -2   38.97   63.47
 -17  -1  -2   53.52   39.06
  17   1  -2   75.93   60.73
  17   1  -2   72.17   46.78
 -17  -1   2   -3.81   64.79
 -17  -1   2   22.01   42.36
  17   1   2    5.56   42.72
  17   1   2   82.12   63.96
  17   0  -2   25.32   60.17
 -17   0  -2   65.69   63.58
  17   0  -2   39.16   47.42
 -17   0  -2   17.56   39.12
  17   0   2   14.82   44.83
  17   0   2  127.64   61.48
 -17   0   2   29.98   59.80
 -17   0   2   46.87   41.35
 -17   1  -2  -11.27   60.17
  17  -1  -2  250.98   67.62
 -17   1  -2   27.38   37.65
  17  -1  -2   15.08   46.75
  17  -1   2   71.57   57.36
 -17   1   2   18.19   36.23
  17  -1   2   56.93   44.78
 -17   1   2   92.26   61.92
 -17   2  -2  -38.17   41.49
  17  -2  -2    3.04   44.34
  17  -2  -2   70.53   61.40
 -17   2  -2    7.33   60.26
  17  -2   2    8.98   43.83
 -17   2   2   -3.71   40.73
 -17   2   2  -10.95   58.01
  17  -2   2   96.42   67.00
 -17   3  -2    3.59   40.57
  17  -3  -2  -83.62   63.06
  17  -3  -2  -21.80   46.12
 -17   3  -2  -10.69   56.82
 -17   3   2   23.69   47.94
 -17   3   2   -3.70   54.56
  17  -3   2 -124.01   67.79
  17  -3   2  -89.76   47.07
  17  -4  -2   -3.20   44.27
 -17   4  -2   19.21   43.60
 -17   4  -2  -36.10   55.78
  17  -4  -2   17.87   66.10
  17  -4   2  -28.43   63.66
 -17   4   2  -69.04   52.75
  17  -4   2   -9.19   42.21
  17  -5  -2    3.20   66.44
  17  -5  -2   17.11   46.76
 -17   5  -2   25.88   46.09
 -17   5  -2   70.33   55.80
 -17   5   2  -23.87   60.13
  17  -5   2   26.38   62.04
  17  -5   2   -9.33   46.72
 -17   6  -2  -11.89   59.21
  17  -6  -2  -15.00   47.15
  17  -6  -2  124.55   73.60
  17  -6   2  -46.30   46.05
 -17   6   2   17.99   68.52
  17  -6   2   67.03   66.71
 -17   7  -2   -9.61   67.18
  17  -7   2   -3.45   73.25
  17  -8   2  -41.11   81.81
  18   5  -2   37.01   54.13
 -18  -5   2  174.94   84.65
 -18  -4  -2   23.18   47.09
 -18  -4  -2  164.69   96.64
  18   4  -2   16.97   49.47
 -18  -4   2   50.14   76.10
  18   4   2   33.59   49.12
  18   3  -2   38.71   67.43
  18   3  -2 -109.21   45.03
 -18  -3  -2    4.25   46.86
 -18  -3  -2   59.67   85.08
 -18  -3   2    4.38   72.26
  18   3   2   23.09   65.58
 -18  -3   2  -25.83   46.54
  18   3   2 -106.88   46.44
 -18  -2  -2  -73.64   72.09
 -18  -2  -2   44.68   46.49
  18   2  -2  121.47   70.15
  18   2  -2   51.27   47.63
 -18  -2   2    8.43   46.22
  18   2   2   25.18   68.43
  18   2   2  109.46   44.24
 -18  -2   2   38.50   69.34
  18   1  -2  -26.17   50.66
 -18  -1  -2   74.72   69.12
 -18  -1  -2  103.59   48.66
  18   1  -2   43.65   63.88
  18   1   2  -21.64   43.80
 -18  -1   2   -4.13   47.02
  18   1   2   59.02   67.79
 -18  -1   2  -46.61   66.17
 -18   0  -2  -27.46   38.19
  18   0  -2   19.64   49.79
 -18   0  -2   21.52   69.27
  18   0  -2  110.60   65.36
  18   0   2    3.23   48.41
 -18   0   2  -12.07   43.14
 -18   0   2   12.45   62.77
  18   0   2   82.85   68.53
  18  -1  -2    9.16   61.97
 -18   1  -2    8.35   70.37
 -18   1  -2   26.98   40.33
  18  -1  -2    3.30   45.15
 -18   1   2   48.21   42.83
  18  -1   2   -9.78   45.78
 -18   1   2   45.21   66.71
  18  -1   2   99.08   68.50
  18  -2  -2  -53.45   47.29
 -18   2  -2   28.67   63.43
  18  -2  -2    3.06   68.02
 -18   2  -2   27.19   42.98
  18  -2   2  -27.22   67.09
  18  -2   2    3.30   44.25
 -18   2   2  107.26   50.93
 -18   2   2   16.17   66.63
 -18   3  -2   35.98   65.24
 -18   3  -2   24.06   43.82
  18  -3  -2  -96.99   49.56
  18  -3  -2  -34.21   69.82
  18  -3   2    3.05   65.27
 -18   3   2   86.45   61.93
 -18   3   2   30.29   49.88
  18  -3   2   -3.30   45.30
  18  -4  -2    3.19   67.77
 -18   4  -2  -54.95   49.44
 -18   4  -2   40.45   62.09
  18  -4  -2   10.59   49.49
 -18   4   2   -4.25   64.25
  18  -4   2    3.10   64.71
  18  -4   2   -6.77   49.68
 -18   4   2  -82.94   58.07
 -18   5  -2  -78.01   63.94
  18  -5  -2  -33.81   53.80
 -18   5  -2   23.51   55.24
  18  -5  -2 -115.29   73.08
  18  -5   2  -95.22   67.89
  18  -5   2  -34.77   49.68
 -18   5   2  -35.40   64.86
 -18   6  -2  -17.55   67.96
  18  -6  -2   40.89   55.49
  18  -6  -2 -161.93   85.51
 -18   6  -2   72.43   66.39
  18  -6   2  -47.56   73.82
 -18   6   2 -123.90   78.62
  18  -6   2  -14.48   52.07
 -18   7  -2   15.73   75.77
  18  -7   2   62.91   78.88
  18  -8   2  -24.68   86.61
  19   5  -2   28.87   59.28
 -19  -5   2  -44.22   86.20
  19   4  -2    3.72   52.54
 -19  -4  -2  -26.04   54.03
  19   4  -2    3.73   79.07
 -19  -4  -2  -32.71  101.28
  19   4   2   67.25   51.87
 -19  -4   2  -36.19   88.58
 -19  -3  -2   -4.77   56.19
 -19  -3  -2  -11.36   94.10
  19   3  -2 -163.70   80.87
  19   3   2   20.66   50.94
  19   3   2  -87.82   74.46
 -19  -3   2   19.21   55.15
 -19  -3   2    4.93   83.52
  19   2  -2   82.89   60.36
 -19  -2  -2   88.54   94.40
 -19  -2  -2   54.25   58.75
  19   2   2  312.95   89.20
 -19  -2   2  -18.82   62.96
 -19  -2   2  -24.26   83.43
  19   2   2   16.59   53.71
 -19  -1  -2   80.21   52.63
 -19  -1  -2  100.35   81.45
  19   1  -2 -161.74   83.78
  19   1  -2  110.28   59.18
  19   1   2   61.27   74.43
  19   1   2   10.46   52.98
 -19  -1   2  -28.25   74.72
 -19  -1   2   32.32   47.75
 -19   0  -2   22.01   49.90
  19   0  -2   32.20   60.63
 -19   0  -2   33.58   80.85
  19   0   2 -233.30   78.18
 -19   0   2  103.52   53.29
 -19   0   2  -23.10   74.67
  19   0   2    3.51   52.50
  19  -1  -2  181.33   59.15
 -19   1  -2  148.38   56.60
  19  -1  -2 -113.17   81.38
 -19   1  -2  167.92   81.67
 -19   1   2   85.30   58.07
  19  -1   2 -124.87   76.46
  19  -1   2   -7.13   54.79
 -19   1   2  -36.46   75.47
 -19   2  -2  204.53   81.67
  19  -2  -2  314.73   67.29
  19  -2   2   97.82   59.94
  19  -2   2  339.16   84.77
 -19   2   2  221.63   81.95
 -19   2   2   64.37   58.93
  19  -3  -2 -202.17   60.51
 -19   3  -2   44.76   71.79
  19  -3  -2  -98.36   81.84
 -19   3  -2    4.45   52.23
  19  -3   2  -47.78   55.95
  19  -3   2 -171.71   78.86
 -19   3   2 -124.32   76.49
 -19   3   2  -48.29   52.44
  19  -4  -2    3.91   55.17
 -19   4  -2  -89.83   53.55
  19  -4  -2   -3.45   73.59
 -19   4  -2  -49.79   70.18
  19  -4   2   41.07   52.17
 -19   4   2  -64.38   54.03
  19  -4   2    3.37   70.47
 -19   4   2   -4.71   69.67
 -19   5  -2   -4.57   71.85
 -19   5  -2  -36.23   58.69
  19  -5  -2  -57.85   57.96
  19  -5  -2    3.63   71.39
  19  -5   2 -160.64   78.51
  19  -5   2   15.43   54.08
 -19   5   2   19.73   71.17
 -19   5   2   58.44   74.19
  19  -6  -2   18.00   62.87
 -19   6  -2  -92.78   76.12
  19  -6  -2  -51.83   86.82
 -19   6  -2   12.25   64.61
 -19   6   2   44.10   81.68
  19  -6   2   36.61   79.34
  19  -6   2   51.96   50.87
 -19   7  -2   17.38   87.65
  19  -7   2  -74.74   87.04
 -20  -4  -2 -145.01  127.71
  20   4   2   70.36   64.40
  20   3  -2   -3.96   60.66
 -20  -3  -2  111.60  109.28
 -20  -3  -2   10.77   58.08
  20   3  -2 -129.85   81.94
 -20  -3   2  -39.26   94.90
  20   3   2 -171.17   79.21
  20   3   2   11.35   52.98
 -20  -2  -2   -5.95   99.04
 -20  -2  -2    5.08   52.34
  20   2  -2    3.83   76.10
  20   2  -2    3.92   59.37
 -20  -2   2   -5.26   57.38
 -20  -2   2 -141.37   89.74
  20   2   2   66.65   53.05
  20   2   2   -3.85   77.12
 -20  -1  -2    4.98   51.82
  20   1  -2   -7.78   54.98
 -20  -1  -2    5.64   92.20
  20   1  -2   68.20   84.25
  20   1   2   97.09   79.29
 -20  -1   2   57.59   78.79
  20   1   2  -60.47   54.35
 -20  -1   2    5.17   57.24
  20   0  -2   18.32   77.92
 -20   0  -2  -69.50   87.03
  20   0  -2  -15.62   57.74
 -20   0  -2  113.35   54.79
 -20   0   2  -30.73   78.42
  20   0   2 -203.74   80.30
  20   0   2  -11.48   53.14
 -20   0   2  -15.28   54.39
  20  -1  -2   21.82   77.39
  20  -1  -2  -43.58   53.53
 -20   1  -2   82.69   85.97
  20  -1   2   18.20   80.66
  20  -1   2   81.69   59.72
 -20   1   2  -81.10   80.26
 -20   1   2  -20.08   55.39
 -20   2  -2   14.62   49.86
  20  -2  -2    4.07   58.14
 -20   2  -2    5.04   78.12
  20  -2  -2   54.42   81.48
 -20   2   2  -30.26   78.47
 -20   2   2 -173.79   59.54
  20  -2   2  -63.54   55.36
  20  -2   2 -110.96   81.54
  20  -3  -2  -16.77   57.63
 -20   3  -2   29.98   57.35
 -20   3  -2   29.93   80.02
  20  -3  -2   25.71   80.74
 -20   3   2   30.97   77.51
 -20   3   2   10.87   64.86
  20  -3   2   -3.60   77.09
  20  -4  -2 -135.85   63.13
  20  -4  -2    3.77   80.02
 -20   4  -2  -21.15   57.61
 -20   4  -2  -91.03   86.05
  20  -4   2  -22.14   79.98
  20  -4   2 -127.70   62.60
 -20   4   2   10.50   81.18
 -20   5  -2  -35.62   82.22
  20  -5  -2  -82.39   67.68
 -20   5  -2    5.82   63.20
  20  -5  -2 -154.03   76.05
 -20   5   2  -11.04   83.09
  20  -5   2  -19.01   82.76
  20  -5   2   21.47   61.08
 -20   6  -2   34.00   74.51
 -20   6  -2   70.95   83.68
  20  -6   2 -110.72   89.08
  20  -6   2   79.74   65.61
  20  -7   2   76.24   93.99
   0   0  -3   -0.40    2.17
   0   0   3    0.35    3.00
   0   0   3   -0.36    1.65
   1   1  -3    0.46    1.72
   1   1  -3    0.21    0.75
   1  -1   3   -2.75    3.32
  -1  -1   3    1.77    2.09
  -1  -1   3    2.49    3.52
   2   1  -3  682.31   24.66
   2   1  -3  698.41   27.64
   1  -2   3  638.60   30.71
  -2  -1   3  548.00   24.32
   0   2  -3   -0.39    3.04
  -2   0  -3   -5.85    8.65
   2   0  -3   -1.30    2.95
  -2   0  -3   -0.29    1.78
   2   0  -3    0.98    4.01
  -2   0   3   -2.45    2.17
   2   0   3   -4.11    5.08
   0  -2   3    1.53    2.70
   2   0   3   -2.58    2.70
   2   0   3   -5.60    5.16
   1   2  -3  660.16   23.12
  -2   1  -3  603.94   29.35
  -2   1  -3  610.49   22.36
   2  -1   3  637.52   27.39
   2  -1   3  495.70   27.94
   2   2  -3    1.37    4.43
  -2   2  -3    6.36    4.52
  -2   2  -3    0.32    3.24
  -2  -2   3    0.38    2.44
   2  -2   3    5.24    2.56
   2  -2   3   -0.55    7.26
   2  -2   3    4.45    4.00
   2  -2   3   -1.88    3.67
   3   2  -3   72.00   13.89
   3   2  -3   58.55   15.95
  -2   3  -3   61.05   12.55
   2  -3   3   71.43   14.88
  -3  -2   3   89.49   12.99
   3   1  -3  234.19   53.78
   3   1  -3  289.32   48.29
  -3  -1   3  378.04   48.33
   3   0  -3  121.73   19.52
  -3   0  -3  123.86   24.06
   3   0  -3  129.02   21.83
  -3   0   3  134.10   17.56
   3   0   3   94.89   21.52
   3   0   3   66.50   21.34
   3   0   3   77.77   22.25
   3   0   3  113.59   18.91
   3  -1  -3  311.35   54.53
  -3   1  -3  312.15   54.59
   3  -1  -3  305.93   49.23
   3  -1   3  272.10   48.00
   3  -1   3  252.80   55.12
   3  -1   3  237.47   53.58
   3  -1   3  231.89   52.91
  -3   1   3  271.46   43.01
  -3   2  -3   53.27   11.93
  -3   2  -3   76.63   12.97
   3  -2   3   86.23   17.00
   3  -2   3   85.66   13.50
   3  -2   3   74.06   14.41
   3  -2   3   68.55   15.52
  -3   3  -3   -8.80    6.25
   3  -3   3    1.59    6.19
   3  -3   3   -0.50    6.97
   3  -3   3  -11.82   12.47
   4   3  -3   -1.99    9.05
  -3   4  -3   12.42    7.78
  -4  -3   3    3.04    5.92
   4   2  -3  755.93  151.30
   4   2  -3  775.76  135.56
   4   1  -3  123.19   17.98
  -4  -1  -3   99.42   17.37
   4   1  -3   98.76   20.18
  -4  -1   3  123.31   17.65
   4   1   3  109.58   20.76
  -4   0  -3   -0.53    3.25
  -4   0  -3    4.02   15.00
   4   0  -3   -2.94    8.59
   4   0  -3   -2.23    6.08
  -4   0   3   -2.58    7.00
   4   0   3   -5.96    5.20
   4   0   3   -3.94    8.69
   4   0   3   -1.36   11.19
   4   0   3    1.41    6.65
   4  -1  -3  103.30   18.39
  -4   1  -3  115.96   22.09
  -4   1  -3   90.02   16.89
   4  -1   3  107.33   20.28
   4  -1   3   61.65   17.10
   4  -1   3  118.85   20.62
  -4   1   3  100.72   16.32
   4  -1   3  111.24   19.63
  -4   2  -3  799.88  120.74
   4  -2  -3  773.90  130.92
  -4   2  -3  760.57  116.69
   4  -2   3  693.03  146.55
   4  -2   3  810.20  132.74
  -4   2   3  731.39  114.18
   4  -2   3  766.79  153.71
  -4   3  -3   -2.58    7.80
  -4   3  -3   -0.75    7.99
   4  -3   3    3.12    6.57
   4  -3   3    1.64   15.07
   4  -3   3   -6.33    7.70
   4  -3   3   -0.58    9.19
  -5  -1  -3  137.25   23.51
   5   1  -3  143.52   24.49
   5   1   3  171.57   27.74
   5   1   3  132.59   24.44
  -5  -1   3  132.16   23.29
   5   1   3  158.01   27.95
  -5   0  -3   20.21    7.15
  -5   0  -3   21.48   20.51
   5   0  -3   21.02    9.52
  -5   0   3   16.74   10.29
   5   0   3   27.41   15.95
   5   0   3   35.81    8.81
   5   0   3   36.57   11.04
   5   0   3   17.46   11.55
  -5   1  -3  154.91   30.70
  -5   1  -3  115.83   22.92
   5  -1  -3  134.36   24.72
   5  -1   3  130.13   26.00
   5  -1   3  123.44   27.51
   5  -1   3   94.81   23.39
   5  -1   3  103.92   27.63
  -5   1   3  132.19   22.88
  -5   2  -3 2659.71  394.52
  -5   2  -3 2416.10  386.93
   5  -2   3 2626.84  457.68
   5  -2   3 2296.56  465.72
   5  -2   3 2263.76  433.91
   5  -2   3 2837.91  510.60
  -5   3  -3  979.33  159.95
  -5   3  -3 1021.56  160.59
   5  -3   3 1114.28  183.79
   5  -3   3 1028.97  202.10
   5  -3   3 1078.17  208.34
   5  -4   3   -0.81   13.80
   6   4  -3  174.53   46.49
   6   4  -3  278.75   40.79
  -6  -4   3  241.05   37.02
   6   3  -3   63.66   17.70
   6   3  -3   61.48   20.97
  -6  -3   3   89.29   15.27
  -6  -2  -3   37.74   10.43
   6   2  -3   23.80   11.57
   6   2  -3   11.36   13.52
  -6  -2   3   18.71    9.64
   6   2   3    8.83   14.20
  -6  -1  -3    5.66    8.82
   6   1  -3    2.48   15.31
   6   1  -3   28.52   10.18
  -6  -1   3   47.38   13.04
   6   1   3   -0.78   12.84
   6   1   3   -9.12   17.05
  -6  -1   3   12.04    8.56
  -6   0  -3   11.88   25.24
   6   0  -3   43.92   10.63
   6   0  -3    7.06   16.16
   6   0   3   -0.74   12.91
  -6   0   3   42.23   13.65
   6   0   3    4.52   20.25
   6  -1  -3   39.39   11.61
  -6   1  -3   16.03   22.86
   6  -1   3   14.70    9.96
   6  -1   3    7.27   16.32
  -6   1   3   28.93   12.88
   6  -2  -3   27.54   12.16
  -6   2  -3   14.34   10.98
  -6   2  -3    4.53   20.75
  -6   2   3   13.61   13.85
   6  -2   3   17.12   10.22
   6  -2   3   -6.75   17.95
   6  -3  -3   62.15   17.97
   6  -3  -3   60.20   22.64
   6  -3   3   75.54   23.57
  -6   3   3   70.64   18.28
  -6   4  -3  180.54   33.77
   6  -4   3  156.82   43.46
   6  -4   3  207.64   40.07
   6  -5   3   16.32   26.18
   6  -5   3   24.67   19.67
   7   4  -3   17.93   20.59
   7   4  -3   59.53   16.39
  -7  -4   3   63.26   14.38
   7   3  -3  144.43   40.12
   7   3  -3  168.14   34.17
  -7  -3   3  130.76   31.91
   7   2  -3   13.34   16.26
   7   2  -3    1.97   12.83
  -7  -2  -3    8.64   11.06
   7   2   3   33.58   17.20
  -7  -2   3   -8.78    9.01
   7   2   3   10.03   12.65
   7   1  -3   18.18   17.49
   7   1  -3   24.09   13.15
  -7  -1  -3   14.19   10.53
   7   1   3   20.14   16.45
  -7  -1   3   28.45    9.35
  -7  -1   3   40.51   16.68
   7   1   3   -1.05   17.94
   7   1   3   13.83   12.63
   7   0  -3  386.55   68.28
  -7   0  -3  301.61   83.79
   7   0   3  430.16   77.38
  -7   0   3  335.18   64.42
   7   0   3  383.57   76.85
   7   0   3  426.47   67.15
   7   0   3  406.32   78.96
  -7   1  -3   27.46   14.77
   7  -1  -3   16.83    9.95
   7  -1  -3   25.20   13.72
  -7   1  -3   33.44   26.87
  -7   1  -3    9.71   10.01
  -7   1   3   29.07   16.81
   7  -1   3   21.28   11.60
   7  -1   3   25.78   19.49
   7  -1   3   14.64   11.51
   7  -1   3   47.21   16.76
  -7   2  -3  -13.66   25.10
   7  -2  -3   -2.07   18.39
  -7   2  -3    1.04   14.87
  -7   2  -3   42.61   11.89
   7  -2  -3   19.65   14.15
   7  -2   3  -10.03   19.45
   7  -2   3   34.50   10.85
  -7   2   3    3.61   16.12
   7  -2   3   -0.92   11.93
   7  -2   3    2.89   17.76
   7  -3  -3  186.38   35.16
   7  -3  -3  120.29   38.05
  -7   3  -3  263.85   31.35
   7  -3   3  185.81   33.11
  -7   3   3  232.55   32.52
   7  -3   3  197.43   40.00
  -7   4  -3   45.35   15.17
  -7   4  -3   -2.38   18.17
   7  -4  -3   55.82   26.03
   7  -4   3   22.43   15.63
   7  -4   3   30.05   13.81
   7  -4   3   -2.31   27.26
   7  -4   3   41.31   20.10
   7  -5   3   -3.50   21.00
   7  -5   3   -1.36   29.94
   8   5  -3  100.81   32.02
   8   4  -3   57.89   24.63
   8   4  -3   67.17   20.10
  -8  -4   3   81.02   18.15
  -8  -3  -3  405.11   52.45
   8   3  -3  338.93   53.76
   8   3  -3  306.81   62.04
  -8  -3   3  330.53   51.22
   8   3   3  295.46   54.90
  -8  -2  -3   51.36   18.99
   8   2  -3  100.90   27.49
   8   2  -3   90.26   22.02
  -8  -2   3   92.71   18.83
   8   2   3   96.81   29.06
   8   2   3   71.82   28.37
   8   2   3  115.71   21.77
   8   1  -3   59.50   16.19
   8   1  -3   68.89   23.01
  -8  -1  -3   44.86   14.91
  -8  -1   3   44.70   18.48
   8   1   3   24.23   16.25
   8   1   3   44.08   19.34
   8   1   3   44.17   20.03
  -8  -1   3   40.39   13.84
  -8   0  -3   -2.26   10.55
  -8   0  -3    2.89   36.13
   8   0  -3   -7.76   14.91
  -8   0   3    5.26   19.02
   8   0   3    7.25   13.31
   8   0   3   -8.57   13.17
   8   0   3   14.88   29.58
  -8   0   3   -2.61   19.48
   8   0   3    1.01   19.46
  -8   1  -3   38.61   12.81
   8  -1  -3   30.06   12.26
  -8   1  -3    1.29   33.78
   8  -1  -3   57.82   17.60
  -8   1  -3   38.50   17.94
   8  -1   3   19.48   20.87
  -8   1   3   30.80   19.46
  -8   1   3   21.19   15.69
   8  -1   3   22.90   15.65
   8  -1   3    5.59   24.58
   8  -1   3   44.95   13.94
   8  -2  -3   82.51   22.53
   8  -2  -3   82.28   23.16
  -8   2  -3   98.89   23.45
   8  -2  -3   67.91   28.23
  -8   2   3   94.96   23.41
   8  -2   3   53.56   21.47
  -8   3  -3  299.50   48.86
   8  -3  -3  226.75   59.04
   8  -3  -3  271.59   54.28
  -8   3  -3  208.80   45.68
   8  -3   3  250.13   52.18
   8  -3   3  275.53   51.74
  -8   3   3  379.83   50.56
   8  -3   3  180.05   62.22
   8  -4  -3   51.90   22.67
  -8   4  -3   48.60   21.06
  -8   4  -3   38.58   17.79
   8  -4  -3  124.78   29.80
   8  -4   3   38.04   24.46
   8  -4   3   43.11   30.24
  -8   4   3   81.33   23.86
   8  -4   3   62.59   17.94
   8  -4   3   65.30   20.75
  -8   5  -3  193.71   31.08
   8  -5   3  118.48   40.68
   8  -5   3  118.28   30.42
   8  -5   3  131.18   34.56
   8  -6   3  321.70   86.16
   8  -6   3  440.57   80.82
   9   5  -3  629.31   99.83
  -9  -5   3  448.33   91.79
   9   4  -3  241.36   73.42
   9   4  -3  316.79   63.87
  -9  -4   3  406.43   59.99
   9   3  -3   91.71   26.39
  -9  -3  -3   86.58   20.83
   9   3  -3  105.43   22.34
   9   3   3   53.20   21.42
   9   3   3   56.69   26.23
  -9  -3   3   54.87   19.64
   9   2  -3   -1.24   24.22
   9   2  -3   31.00   18.77
  -9  -2  -3   51.30   14.90
   9   2   3   62.49   18.76
   9   2   3   -1.31   19.23
   9   2   3   40.02   24.86
  -9  -2   3   18.93   15.22
   9   1  -3   -1.29   16.93
   9   1  -3   -1.26   25.38
  -9  -1  -3    5.67   11.63
   9   1   3   19.46   16.10
   9   1   3    1.19   20.72
  -9  -1   3    4.52   21.46
   9   1   3   14.35   15.47
  -9  -1   3    2.90   14.03
  -9   0  -3  -19.98   21.66
   9   0  -3   -2.54   16.81
  -9   0  -3   -1.30   12.05
  -9   0  -3  -23.62   42.26
   9   0   3   15.64   16.66
  -9   0   3  -28.81   21.14
   9   0   3  -22.15   35.55
   9   0   3  -30.18   21.67
   9   0   3   -0.79   12.56
   9  -1  -3   14.45   16.84
   9  -1  -3   20.50   26.37
  -9   1  -3    7.81   13.61
  -9   1  -3   -1.40   20.94
  -9   1   3   -4.60   21.44
   9  -1   3   20.18   22.88
   9  -1   3  -10.79   17.01
   9  -2  -3   14.89   26.82
  -9   2  -3   -1.02   16.42
  -9   2  -3   84.95   22.21
   9  -2  -3   32.57   20.08
   9  -2   3   75.12   19.10
  -9   2   3   71.10   23.56
   9  -2   3   65.82   24.97
  -9   3  -3   78.57   35.54
  -9   3  -3   67.06   19.37
   9  -3  -3   66.82   23.41
  -9   3  -3   69.41   23.02
   9  -3  -3   66.19   28.44
  -9   3   3   72.82   24.81
   9  -3   3   31.78   28.24
   9  -3   3   70.57   19.81
   9  -3   3   40.43   28.82
   9  -3   3   40.90   17.52
  -9   4  -3  376.46   57.64
  -9   4  -3  431.91   52.16
   9  -4  -3  288.65   69.06
   9  -4  -3  342.76   62.74
   9  -4   3  278.35   68.90
   9  -4   3  304.20   61.65
   9  -4   3  324.42   72.30
  -9   4   3  312.70   57.69
   9  -4   3  339.89   61.34
  -9   5  -3  529.68   86.98
   9  -5   3  721.14  107.85
   9  -5   3  497.55   96.57
   9  -5   3  490.44  105.48
   9  -6   3   10.90   30.84
   9  -6   3  -18.72   40.06
  10   5  -3   86.36   33.11
  10   5  -3  141.54   41.15
 -10  -5   3  136.76   29.94
  10   4  -3  126.70   34.11
  10   4  -3   58.53   26.85
 -10  -4   3   55.11   22.52
  10   3  -3   41.97   29.74
  10   3  -3    5.92   21.59
 -10  -3  -3   54.72   19.86
 -10  -3   3   60.04   19.42
  10   3   3   21.64   26.05
  10   3   3   49.99   20.80
  10   2  -3   58.52   23.35
  10   2  -3   46.33   29.79
 -10  -2  -3   31.21   20.61
  10   2   3   71.47   26.58
  10   2   3   65.96   22.96
 -10  -2   3   72.84   20.48
 -10  -2   3  112.32   27.78
 -10  -1  -3   83.26   22.85
  10   1  -3   71.44   26.05
 -10  -1   3  161.62   29.48
  10   1   3  106.43   30.72
  10   1   3   81.64   24.65
 -10   0  -3    3.00   14.79
  10   0  -3    1.45   20.13
 -10   0  -3   18.10   25.46
  10   0   3  -11.91   25.25
  10   0   3   -2.75   17.88
 -10   0   3    6.90   24.16
 -10   1  -3   87.80   29.23
  10  -1  -3   88.87   26.12
 -10   1  -3   64.23   22.78
  10  -1  -3  145.17   36.98
  10  -1   3  101.32   24.43
 -10   1   3  121.62   30.00
  10  -1   3   77.84   32.42
  10  -2  -3   28.92   31.65
 -10   2  -3  172.45   41.77
 -10   2  -3   42.01   19.25
  10  -2  -3   39.23   23.61
 -10   2  -3   98.71   21.01
 -10   2  -3   43.89   25.48
  10  -2   3   57.96   18.49
  10  -2   3   72.47   30.20
  10  -2   3   75.94   29.61
 -10   2   3   45.39   26.77
  10  -2   3   63.24   22.85
 -10   3  -3   27.64   17.51
  10  -3  -3   16.33   22.47
 -10   3  -3   22.52   25.31
  10  -3  -3   58.33   31.79
 -10   3  -3   -5.30   35.29
  10  -3   3   17.23   15.98
  10  -3   3   58.22   31.62
  10  -3   3   20.80   28.55
  10  -3   3   74.72   20.64
 -10   3   3   43.89   26.29
 -10   4  -3   98.32   28.94
  10  -4  -3  108.76   29.24
  10  -4  -3   54.91   32.60
 -10   4  -3   92.41   23.85
  10  -4   3   79.80   32.75
  10  -4   3   70.69   22.14
  10  -4   3   63.84   25.81
 -10   4   3  124.84   30.55
  10  -4   3  100.03   34.23
  10  -5  -3   83.91   44.91
 -10   5  -3  120.18   33.40
  10  -5   3  100.01   40.11
  10  -5   3  141.15   40.96
  10  -5   3  127.70   30.59
 -10   5   3  169.63   37.91
  10  -6   3  216.01   52.06
  10  -6   3  177.91   58.14
  10  -7   3    3.97   38.42
  11   5  -3  -62.08   30.97
  11   5  -3   -1.84   38.05
 -11  -5   3   65.91   23.99
  11   4  -3   68.41   33.93
  11   4  -3   19.08   26.25
 -11  -4   3   52.76   22.57
 -11  -3  -3   19.16   20.03
  11   3  -3   -1.62   30.40
  11   3  -3   14.81   24.29
  11   3   3   29.55   24.44
 -11  -3   3    1.98   19.25
  11   3   3   16.91   30.83
  11   2  -3    1.64   23.15
 -11  -2  -3    9.64   19.14
  11   2  -3  -28.33   32.36
 -11  -2   3  -18.72   17.73
  11   2   3   10.94   30.07
  11   2   3   34.99   20.69
 -11  -2   3    3.91   29.11
 -11  -1  -3    7.21   19.09
  11   1  -3   11.39   22.15
  11   1   3  -15.15   29.51
 -11  -1   3    1.94   29.30
  11   1   3  -13.61   21.81
 -11   0  -3  177.29   43.02
  11   0  -3  217.55   41.53
 -11   0  -3  171.57   38.49
  11   0   3  174.57   39.83
  11   0   3  216.73   49.38
 -11   0   3  252.92   43.25
 -11   1  -3    6.80   17.83
  11  -1  -3  -18.26   24.58
 -11   1  -3   -7.42   27.35
  11  -1  -3   39.39   35.87
 -11   1   3   -9.74   28.13
  11  -1   3   12.36   21.58
  11  -1   3    6.07   29.41
 -11   2  -3   -7.42   26.98
 -11   2  -3   16.15   19.82
  11  -2  -3   11.98   34.55
  11  -2  -3   -6.71   21.43
  11  -2   3    1.56   31.50
 -11   2   3   -1.96   28.64
  11  -2   3   -1.59   22.35
  11  -3  -3  -11.94   33.39
  11  -3  -3   10.74   25.18
 -11   3  -3   34.59   28.53
  11  -3   3   41.02   21.34
  11  -3   3   67.71   34.71
 -11   3   3    2.02   27.53
  11  -4  -3   12.42   34.89
 -11   4  -3   22.28   28.10
  11  -4  -3    3.96   26.57
  11  -4   3   71.44   25.03
 -11   4   3   21.62   33.16
  11  -4   3   38.71   35.18
 -11   5  -3   40.35   30.23
  11  -5  -3   91.52   41.29
  11  -5  -3   52.88   32.34
  11  -5   3   54.53   26.96
 -11   5   3   79.00   38.23
  11  -5   3   56.57   38.31
 -11   6  -3  -24.97   34.50
  11  -6   3   52.56   37.24
  11  -6   3  -48.22   31.07
  11  -7   3    6.10   40.73
  11  -7   3   42.61   49.21
  12   5  -3    2.09   30.04
 -12  -5   3   46.21   25.16
  12   4  -3    7.58   28.37
  12   4  -3   11.06   35.22
  12   4   3   18.74   31.54
 -12  -4   3   -2.34   22.21
  12   3  -3   -1.80   34.72
  12   3  -3   11.05   26.67
 -12  -3  -3   27.96   23.41
 -12  -3   3   66.81   23.91
  12   3   3   31.60   36.50
  12   3   3    1.78   24.61
  12   2  -3    1.83   27.54
 -12  -2  -3   23.56   22.66
 -12  -2   3  -15.37   36.78
 -12  -2   3   40.37   23.39
  12   2   3   -1.74   33.56
  12   2   3   13.38   24.14
 -12  -1  -3  117.34   39.35
  12   1  -3  242.63   44.36
 -12  -1  -3  200.82   46.33
 -12  -1   3  181.88   49.57
  12   1   3  177.97   52.99
  12   1   3  134.55   40.38
  12   0  -3   82.60   31.70
 -12   0  -3   13.41   21.47
 -12   0  -3   12.82   34.06
 -12   0   3  -11.10   37.32
  12   0   3   10.49   25.43
  12   0   3   13.29   34.51
 -12   0   3   -4.33   24.40
 -12   1  -3  166.52   45.45
  12  -1  -3  203.38   52.25
  12  -1  -3  251.22   42.86
 -12   1  -3  190.70   39.86
 -12   1   3  148.60   46.69
  12  -1   3  259.24   41.08
  12  -1   3  277.11   52.18
  12  -2  -3    1.86   25.23
  12  -2  -3   32.65   41.71
 -12   2  -3   11.92   20.76
 -12   2  -3    4.19   32.76
 -12   2   3   10.92   33.54
  12  -2   3   24.95   26.71
  12  -2   3    3.42   35.74
 -12   3  -3   39.01   32.25
  12  -3  -3  -25.32   24.94
  12  -3  -3    5.67   41.65
  12  -3   3   57.28   38.57
 -12   3   3  -20.10   32.99
  12  -3   3   12.33   22.43
 -12   4  -3   14.47   32.17
  12  -4  -3   29.77   29.44
  12  -4  -3   11.75   40.09
  12  -4   3   47.35   40.59
  12  -4   3   36.45   26.18
 -12   4   3   18.99   36.04
  12  -5  -3    6.32   41.66
  12  -5  -3  -14.39   35.88
 -12   5  -3   46.55   35.35
  12  -5   3    3.80   40.33
  12  -5   3   51.50   28.95
 -12   5   3    5.39   37.65
 -12   6  -3   -7.79   36.97
  12  -6   3    9.37   31.96
  12  -6   3   18.01   40.73
  12  -7   3  -37.04   45.80
  13   5  -3   37.22   43.46
 -13  -5   3  -22.54   28.55
  13   3   3    3.87   27.11
  13   2  -3   30.48   29.63
 -13  -2  -3   45.17   26.75
 -13  -2   3   -9.83   39.75
  13   2   3   65.39   38.21
  13   2   3  -11.13   28.52
  13   1  -3   33.99   29.00
 -13  -1  -3    7.40   37.72
 -13  -1  -3    2.27   24.29
 -13  -1   3   34.29   36.51
  13   1   3   30.22   39.68
  13   1   3   18.95   26.29
 -13   0  -3    9.64   37.75
  13   0  -3   -1.97   36.46
 -13   0  -3   43.44   24.26
  13   0  -3   39.46   31.74
  13   0   3  130.04   29.39
 -13   0   3   19.82   37.64
  13   0   3   16.64   36.23
 -13   0   3   -2.39   14.58
  13  -1  -3   -2.00   31.13
 -13   1  -3   14.34   37.54
  13  -1  -3    8.20   30.83
 -13   1  -3   12.95   24.09
  13  -1   3   29.62   39.40
  13  -1   3   19.76   29.72
 -13   1   3   -4.88   40.98
  13  -2  -3  -10.32   29.80
 -13   2  -3   13.21   25.75
 -13   2  -3    7.07   37.03
 -13   2   3   14.58   37.34
  13  -2   3   -7.57   39.40
  13  -2   3   21.90   27.92
 -13   3  -3   43.92   36.22
  13  -3  -3   -2.14   30.83
 -13   3  -3    4.74   26.75
  13  -3   3  -32.94   41.25
 -13   3   3   49.43   37.46
  13  -3   3  -19.67   28.52
 -13   4  -3   57.61   36.36
  13  -4   3   18.61   44.90
  13  -4   3   36.08   25.84
 -13   5  -3   -7.35   38.13
  13  -5   3    8.48   43.29
  13  -5   3   53.22   28.62
 -13   6  -3  -46.86   41.34
  13  -6  -3  -31.44   56.48
  13  -6   3    4.87   36.67
  14   5  -3    2.40   43.83
  14   5  -3   17.19   34.55
 -14  -5   3   21.73   31.63
  14   4  -3   -2.24   47.11
  14   4  -3   76.43   35.26
 -14  -4  -3   -9.63   30.97
 -14  -4   3   11.57   29.14
  14   4   3  -30.53   36.96
  14   3  -3   57.47   42.09
 -14  -3  -3   39.42   29.95
  14   3  -3  -56.37   33.34
  14   3   3  -38.21   39.51
 -14  -3   3  -11.09   45.92
  14   3   3   -8.41   28.67
 -14  -3   3  -13.97   29.47
 -14  -2  -3  -21.13   29.15
  14   2  -3    2.23   32.62
 -14  -2   3  -21.92   40.21
  14   2   3   44.63   41.47
  14   1  -3   58.02   34.21
  14   1  -3    2.16   42.31
 -14  -1  -3   -2.54   24.01
 -14  -1   3  175.51   44.05
  14   0  -3   98.56   36.71
  14   0  -3  -37.19   45.65
 -14   0   3  154.10   43.22
 -14   0   3    2.67   29.20
  14  -1  -3   17.39   44.91
  14  -1  -3  111.15   32.35
 -14   1   3   27.41   31.49
 -14   1   3  135.70   43.98
  14  -2  -3   43.35   31.05
  14  -2  -3   11.17   47.15
 -14   2   3   89.06   38.40
  14  -3  -3   -2.35   31.16
  14  -3  -3  -14.07   44.33
 -14   3   3   30.11   42.09
  14  -4  -3   32.10   37.03
  14  -4  -3  -21.29   48.03
 -14   4   3   -8.63   44.91
  14  -5  -3  -40.74   41.80
  14  -5  -3  -42.20   56.11
 -14   5   3   40.48   43.97
  14  -6  -3  -47.96   58.31
  14  -6   3   -2.57   30.73
  14  -6   3   26.67   52.03
  14  -7   3   20.45   54.08
  14  -8   3   22.98   59.69
  15   5  -3   48.80   40.05
  15   5  -3  116.07   53.55
 -15  -5   3   34.35   35.53
  15   4  -3   94.09   51.77
 -15  -4  -3   31.56   33.41
  15   4  -3  -28.08   35.37
  15   4   3  -22.86   36.55
 -15  -4   3   40.90   49.26
 -15  -4   3   41.85   32.51
  15   3  -3   -2.49   34.49
 -15  -3  -3  -18.67   32.92
 -15  -3   3  -27.76   47.99
 -15  -3   3   -3.12   34.11
  15   3   3   -9.91   46.83
  15   3   3   32.48   33.68
  15   2  -3   -2.44   36.77
 -15  -2  -3  -16.39   50.63
 -15  -2  -3   -2.93   27.34
 -15  -2   3   -3.06   49.50
  15   2   3   14.07   45.91
  15   2   3   -6.85   33.01
 -15  -1  -3   37.53   48.83
  15   1  -3   42.60   51.05
 -15  -1  -3    8.53   29.76
  15   1  -3  -32.31   34.75
  15   1   3   -6.99   32.63
 -15  -1   3  -20.70   32.45
  15   1   3   60.28   48.10
 -15  -1   3   18.37   47.78
 -15   0  -3  -16.59   31.30
 -15   0  -3   15.27   48.66
  15   0  -3   37.77   35.84
  15   0  -3   11.88   51.33
  15   0   3  -28.20   36.12
  15   0   3   -2.25   45.96
 -15   0   3    6.11   46.45
 -15   0   3   -2.97   33.41
 -15   1  -3   -3.05   46.94
  15  -1  -3  -17.58   37.74
 -15   1  -3   -5.42   29.93
  15  -1  -3  -16.76   56.81
  15  -1   3    9.94   33.95
  15  -1   3   -9.06   49.33
 -15   1   3    2.99   33.15
 -15   1   3   15.05   46.59
 -15   2  -3   -8.27   31.78
 -15   2  -3   41.36   48.91
  15  -2  -3   -7.19   48.90
  15  -2  -3  -12.62   35.90
  15  -2   3   11.46   47.45
  15  -2   3    9.83   34.25
 -15   2   3    8.96   46.39
 -15   2   3  -15.84   34.46
 -15   3  -3  -14.18   29.30
  15  -3  -3   -2.59   36.55
  15  -3  -3   22.71   53.35
 -15   3  -3    2.89   43.45
  15  -3   3   -7.30   34.82
 -15   3   3   39.45   43.72
  15  -3   3   91.35   48.07
  15  -4  -3   -2.61   53.12
  15  -4  -3    2.70   36.33
 -15   4  -3  -25.78   43.98
 -15   4  -3   24.68   35.30
 -15   4   3   22.24   49.11
  15  -4   3   26.20   53.15
  15  -4   3  -34.27   35.96
 -15   5  -3  -32.86   45.42
  15  -5  -3  -17.62   42.04
  15  -5  -3   92.21   55.92
  15  -5   3   85.49   36.97
  15  -5   3   25.48   55.45
 -15   5   3  -23.75   47.89
 -15   6  -3   19.29   48.85
  15  -6  -3  -21.02   64.43
  15  -6   3  -40.22   57.66
  15  -6   3  -21.94   40.06
 -15   6   3   -4.06   61.64
  15  -7   3  -22.55   59.83
  15  -8   3   45.84   66.65
  16   5  -3   18.04   44.50
  16   5  -3  101.79   57.69
 -16  -5   3  -47.18   60.25
 -16  -5   3    7.64   41.88
  16   4  -3   64.73   42.18
  16   4  -3    2.73   56.96
 -16  -4  -3    3.86   41.64
  16   4   3   35.90   41.28
 -16  -4   3  -10.75   36.76
 -16  -4   3   42.33   55.32
  16   3  -3    2.72   38.14
 -16  -3  -3  -44.47   68.59
 -16  -3  -3   55.22   36.27
 -16  -3   3   34.39   53.32
  16   3   3   41.12   37.27
  16   3   3   51.94   52.15
 -16  -2  -3   -3.70   59.50
  16   2  -3    2.66   40.54
 -16  -2  -3    6.52   34.91
  16   2   3   65.73   37.69
  16   2   3    2.59   51.07
 -16  -2   3    6.81   56.99
 -16  -1  -3   21.08   58.29
  16   1  -3   57.11   56.30
  16   1  -3   41.79   44.61
 -16  -1  -3   38.05   35.27
 -16  -1   3   -3.44   58.51
  16   1   3    2.56   50.60
  16   1   3   45.70   36.60
 -16  -1   3   36.35   34.07
  16   0  -3   -2.76   38.31
 -16   0  -3   12.44   36.86
 -16   0  -3 -123.71   55.05
  16   0  -3   77.36   58.76
  16   0   3   10.47   39.53
 -16   0   3   13.13   35.10
  16   0   3  -17.56   50.99
 -16   0   3   70.99   54.49
 -16   1  -3  -50.98   56.94
  16  -1  -3   46.97   39.28
  16  -1  -3  -44.36   57.34
 -16   1  -3    3.02   34.66
  16  -1   3   46.42   40.22
 -16   1   3   -6.64   35.48
 -16   1   3   20.00   54.77
  16  -1   3   -2.49   48.97
 -16   2  -3   -9.17   33.39
  16  -2  -3    2.60   54.23
  16  -2  -3  -27.80   42.21
 -16   2  -3   79.13   54.36
  16  -2   3  -52.40   55.29
 -16   2   3  -49.23   51.03
 -16   2   3   -3.43   40.96
  16  -2   3   43.38   39.01
 -16   3  -3   16.09   51.87
 -16   3  -3   -3.16   35.94
  16  -3  -3   45.70   43.46
  16  -3  -3   53.81   52.61
  16  -3   3  -35.02   40.27
 -16   3   3  -47.16   51.36
  16  -3   3  -46.05   53.28
  16  -4  -3   26.62   41.33
 -16   4  -3   -9.60   50.55
 -16   4  -3  -40.18   36.30
  16  -4  -3   -2.84   63.01
  16  -4   3  -20.67   54.16
  16  -4   3   -2.71   36.10
 -16   4   3   66.48   54.90
 -16   5  -3  -52.96   52.39
  16  -5  -3  -74.50   64.94
  16  -5  -3   25.48   44.30
  16  -5   3   77.18   37.15
  16  -5   3  -19.03   59.67
 -16   5   3  -18.58   52.58
 -16   6  -3  -42.21   54.34
  16  -6  -3  -42.20   72.41
  16  -6   3    5.92   43.04
  16  -6   3  -60.82   63.47
 -16   6   3   39.08   57.78
 -16   7  -3  -43.02   59.60
  16  -7   3   -9.28   63.98
  16  -8   3   79.54   72.63
  17   5  -3   -3.22   64.93
  17   5  -3  -49.77   46.64
 -17  -5   3  -38.43   45.44
 -17  -5   3  -36.77   63.66
  17   4  -3  -87.02   49.08
 -17  -4  -3   21.38   47.39
  17   4   3   18.35   45.68
 -17  -4   3  -47.82   42.71
 -17  -4   3  -43.33   62.91
 -17  -3  -3  -55.01   80.69
 -17  -3  -3   23.03   41.87
  17   3  -3   89.06   44.51
  17   3   3 -135.81   40.03
 -17  -3   3   -7.71   59.51
  17   3   3   39.24   64.24
 -17  -2  -3   -3.62   37.61
  17   2  -3    2.95   43.43
  17   2  -3   11.65   57.32
 -17  -2  -3   45.85   67.61
 -17  -2   3   -3.81   44.84
  17   2   3   94.52   42.88
  17   2   3   88.59   59.40
 -17  -2   3   -3.80   62.33
  17   1  -3   90.70   61.35
 -17  -1  -3    3.54   39.77
  17   1  -3   51.41   47.08
 -17  -1  -3  -55.35   66.84
 -17  -1   3  -25.84   45.33
 -17  -1   3  114.08   63.14
  17   1   3    5.55   44.69
  17   1   3  109.51   63.29
 -17   0  -3   31.02   63.79
  17   0  -3    3.02   48.60
 -17   0  -3   31.24   41.64
  17   0  -3  305.81   71.25
 -17   0   3   89.70   59.28
  17   0   3  117.99   47.33
  17   0   3  233.07   62.49
 -17   0   3   32.90   44.66
  17  -1  -3    3.03   45.66
 -17   1  -3  -11.32   61.95
  17  -1  -3  205.83   64.59
 -17   1  -3    6.80   38.86
  17  -1   3  215.10   52.25
 -17   1   3   40.51   43.09
 -17   1   3   89.00   62.92
 -17   2  -3    3.42   37.52
 -17   2  -3  -10.99   59.14
  17  -2  -3  131.44   47.60
  17  -2  -3  -17.10   64.09
 -17   2   3  -15.00   42.31
 -17   2   3  -62.17   55.75
  17  -2   3  -98.76   62.24
  17  -2   3  -65.92   49.17
 -17   3  -3  -28.10   40.53
 -17   3  -3   28.55   56.49
  17  -3  -3 -101.54   43.12
  17  -3  -3  106.71   60.99
 -17   3   3   48.63   60.47
  17  -3   3    2.77   57.26
  17  -3   3    2.98   44.15
 -17   3   3   68.97   47.78
 -17   4  -3   10.70   54.14
  17  -4  -3   13.02   48.27
 -17   4  -3  -32.99   40.35
  17  -4  -3    3.01   68.52
  17  -4   3   48.01   43.22
  17  -4   3  -74.01   61.70
 -17   4   3   34.80   55.66
 -17   5  -3   -8.07   46.41
  17  -5  -3  -95.35   72.06
  17  -5  -3  -52.17   47.68
 -17   5  -3  -29.26   57.77
  17  -5   3   36.47   43.07
 -17   5   3   -8.19   57.79
  17  -5   3    8.78   61.09
 -17   6  -3  -30.96   55.66
  17  -6  -3  -99.39   78.66
  17  -6   3  -48.29   42.50
  17  -6   3   80.01   66.56
 -17   6   3  -70.74   68.15
 -17   7  -3  -88.05   64.13
  17  -7   3   70.23   68.32
  17  -8   3  -61.89   79.09
  18   5  -3 -203.22   77.17
  18   5  -3    7.38   51.12
 -18  -5   3  -18.42   74.51
 -18  -5   3   95.90   52.28
 -18  -4  -3  -43.12   94.67
  18   4  -3  -91.88   50.11
  18   4   3  -50.66   51.53
 -18  -4   3  -30.95   66.87
 -18  -3  -3  -20.83   86.05
 -18  -3  -3  -34.35   45.77
  18   3  -3    3.24   51.32
 -18  -3   3  -51.64   68.52
  18   3   3    6.27   45.84
  18   3   3  -60.25   68.44
 -18  -2  -3  -37.72   81.20
 -18  -2  -3   12.10   45.26
  18   2  -3  -89.97   45.64
  18   2  -3  -93.03   67.95
  18   2   3  107.38   66.48
  18   2   3   12.11   44.44
 -18  -2   3  -68.41   70.67
 -18  -2   3   46.86   41.82
 -18  -1  -3   44.66   76.61
  18   1  -3    6.19   61.85
 -18  -1  -3   27.65   37.01
  18   1  -3   79.20   49.95
 -18  -1   3  -12.47   48.10
 -18  -1   3   16.82   70.33
  18   1   3  -24.46   46.19
  18   1   3   30.80   62.51
  18   0  -3    9.89   49.06
 -18   0  -3   -3.89   41.36
  18   0  -3   95.65   66.60
 -18   0  -3  -17.39   67.20
  18   0   3 -122.53   62.71
  18   0   3    3.23   48.95
 -18   0   3  -37.26   65.06
 -18   0   3    4.04   46.14
 -18   1  -3    8.38   66.37
 -18   1  -3  -46.10   41.68
  18  -1  -3   27.87   64.84
  18  -1  -3   60.07   45.35
  18  -1   3  163.65   64.61
 -18   1   3   48.85   48.75
  18  -1   3  -32.76   48.63
 -18   1   3   -8.20   65.17
 -18   2  -3   15.18   38.09
  18  -2  -3    3.35   47.71
 -18   2  -3  -36.76   63.04
  18  -2  -3 -161.18   69.13
  18  -2   3  -16.46   45.76
 -18   2   3   29.17   48.23
  18  -2   3  -74.88   64.82
 -18   2   3   20.42   63.90
  18  -3  -3   -3.11   68.40
 -18   3  -3    3.96   62.44
 -18   3  -3   69.98   43.27
  18  -3  -3  -80.35   49.25
 -18   3   3  -44.26   48.55
  18  -3   3  -84.05   68.86
  18  -3   3  -16.45   47.29
 -18   3   3   16.71   65.29
 -18   4  -3   15.93   60.37
 -18   4  -3  -12.24   42.56
  18  -4  -3   -3.59   46.48
  18  -4  -3  -74.04   72.04
  18  -4   3   13.41   47.08
 -18   4   3  -34.27   64.03
  18  -4   3  139.27   68.84
 -18   4   3   94.73   60.00
 -18   5  -3  -22.16   49.13
  18  -5  -3   84.06   56.67
  18  -5  -3  -21.23   79.04
 -18   5  -3   20.29   62.98
  18  -5   3   34.71   69.85
  18  -5   3   -3.37   48.08
 -18   5   3  -13.59   62.45
 -18   6  -3   25.68   68.16
  18  -6  -3   23.55   87.65
 -18   6  -3  122.92   57.72
  18  -6   3   66.96   50.29
 -18   6   3   67.36   77.85
  18  -6   3  -78.99   74.14
 -18   7  -3  -65.76   72.71
  18  -7   3   -3.54   71.46
  18  -8   3   19.65   83.02
  19   5  -3   40.96   57.90
  19   5  -3 -111.02   76.60
 -19  -5   3  115.03   89.07
 -19  -5   3   27.05   57.92
  19   4  -3   33.64   61.92
 -19  -4   3   -5.00   83.72
 -19  -3  -3  -62.76   54.01
  19   3  -3  -79.52   58.04
 -19  -3  -3   89.51   91.13
  19   3  -3 -209.85   69.90
 -19  -3   3  -48.46   83.08
  19   3   3 -197.05   78.73
  19   3   3   -6.90   52.88
 -19  -2  -3 -108.43   52.56
 -19  -2  -3  -48.25   89.13
  19   2  -3   98.51   82.42
  19   2  -3 -145.16   60.02
 -19  -2   3    4.75   50.94
  19   2   3    3.31   48.47
 -19  -2   3    9.56   75.46
  19   2   3  -59.35   75.01
 -19  -1  -3  348.80   98.10
  19   1  -3  426.29   69.57
 -19  -1   3  168.09   83.97
 -19  -1   3  116.43   65.10
  19   1   3  152.76   61.94
 -19   0  -3  106.80   84.44
  19   0  -3    6.74   81.37
 -19   0  -3  117.50   59.89
  19   0  -3  368.30   70.25
  19   0   3   60.48   79.25
 -19   0   3  162.99   59.99
 -19   0   3  -64.17   76.17
  19   0   3   49.08   60.77
 -19   1  -3  144.71   86.81
 -19   1  -3   -8.63   64.52
  19  -1   3    3.30   79.88
 -19   1   3  113.73   86.99
 -19   1   3  121.67   64.43
  19  -1   3  195.76   68.81
 -19   2  -3  -42.67   49.55
  19  -2  -3   50.26   78.82
  19  -2  -3    7.46   57.48
 -19   2  -3 -149.67   80.03
  19  -2   3  101.39   58.18
  19  -2   3   42.34   72.06
 -19   2   3  -46.45   51.82
 -19   2   3  -86.28   78.54
 -19   3  -3   22.18   70.22
  19  -3  -3 -176.40   75.35
  19  -3  -3 -203.50   58.46
 -19   3  -3   56.56   44.61
  19  -3   3    7.24   54.86
 -19   3   3   24.41   54.43
 -19   3   3  107.19   69.90
  19  -3   3  -85.59   73.94
 -19   4  -3   -9.11   49.00
  19  -4  -3 -163.11   79.44
 -19   4  -3  -62.44   69.50
  19  -4  -3  120.58   59.17
  19  -4   3  -44.44   56.04
 -19   4   3   38.06   68.10
  19  -4   3    3.35   70.22
 -19   4   3   49.47   60.70
 -19   5  -3  -40.53   70.95
  19  -5  -3 -124.65   86.04
  19  -5  -3  -20.99   57.65
 -19   5  -3   88.25   55.24
  19  -5   3  -24.07   77.23
 -19   5   3  106.00   72.62
  19  -5   3  -56.70   54.86
 -19   5   3  -33.65   76.92
  19  -6  -3   16.85   90.78
 -19   6  -3    5.59   62.97
 -19   6  -3   -9.52   72.36
  19  -6   3  -11.65   53.55
 -19   6   3  138.26   82.11
  19  -6   3  -78.24   78.93
 -19   7  -3  -61.44   82.97
 -19   7  -3   -6.92   75.76
  19  -7   3 -184.74   86.21
 -20  -3  -3  -16.35   54.03
 -20  -3  -3   27.65  110.21
  20   3  -3   -8.18   62.11
 -20  -3   3   71.64   91.82
  20   3   3  -64.29   53.25
 -20  -2  -3  153.41  104.40
  20   2  -3  178.37   61.54
  20   2  -3 -119.36   79.98
 -20  -2  -3   20.37   55.44
  20   2   3   27.10   76.01
 -20  -2   3   -5.34   82.68
  20   2   3   14.66   50.78
  20   1  -3    3.92   55.73
 -20  -1  -3  -17.22   96.54
 -20  -1  -3   73.89   55.27
  20   1  -3   -3.79   77.74
  20   1   3    3.78   57.69
  20   1   3  148.85   75.19
 -20  -1   3  -72.61   86.15
 -20  -1   3   36.38   59.64
 -20   0  -3  -97.46   82.94
 -20   0  -3  -48.69   54.28
  20   0  -3  -29.28   80.49
  20   0  -3   -3.94   57.51
  20   0   3  -15.22   56.86
 -20   0   3  -91.36   55.32
 -20   0   3   51.11   85.26
  20   0   3    3.68   76.58
 -20   1  -3  -24.18   52.71
  20  -1  -3 -153.18   79.07
  20  -1  -3    4.00   56.50
 -20   1  -3  150.58   80.59
  20  -1   3   81.71   58.73
  20  -1   3   69.18   77.89
 -20   1   3  -25.16   59.07
 -20   1   3   49.88   79.23
 -20   2  -3  -53.18   52.18
  20  -2  -3   10.89   81.03
 -20   2  -3  227.21   86.18
  20  -2  -3   57.58   54.56
 -20   2   3  -82.59   59.61
  20  -2   3   10.64   72.95
  20  -2   3   31.70   55.35
 -20   2   3  -50.68   79.91
  20  -3  -3   84.37   60.85
 -20   3  -3  -14.82   79.08
  20  -3  -3   41.12   85.33
 -20   3  -3    4.85   56.04
 -20   3   3  -10.41   79.08
  20  -3   3   14.35   80.11
  20  -3   3  -64.55   57.89
 -20   4  -3  -84.77   77.95
 -20   4  -3   10.13   59.39
  20  -4  -3   23.06   85.66
  20  -4  -3   71.26   62.39
  20  -4   3   12.27   60.98
 -20   4   3   15.90   78.19
  20  -4   3   47.12   77.47
 -20   5  -3   75.02   77.94
  20  -5  -3   83.82   70.06
 -20   5  -3   38.51   61.12
  20  -5   3   25.26   57.04
  20  -5   3  -55.80   77.15
 -20   5   3   45.24   84.58
 -20   6  -3  -47.85   78.56
 -20   6  -3  -86.60   72.34
  20  -6   3  120.00   84.41
  20  -6   3   17.27   62.21
 -20   7  -3   81.02   92.26
  20  -7   3   85.69   88.94
  -1   0  -4    3.81    7.38
   1   0  -4   -0.46    2.38
   0   1  -4   -2.41    3.57
  -1   0   4   -0.42    4.17
   1   0   4   -0.56    6.65
   0  -1   4   -0.38    4.91
   0  -1   4   -2.21    3.53
  -1   1  -4    7.71    6.56
   1   1  -4    5.09    2.07
   1   1  -4    3.34    2.93
   1   1  -4   -2.94    3.09
  -1  -1   4    5.28    3.24
  -1  -1   4    5.88    4.86
   1  -1   4    4.50    6.13
   2   1  -4    6.66    5.26
   2   1  -4    8.37    4.78
   2   1  -4    9.19    3.61
  -2  -1   4    9.99    3.81
   1  -2   4    4.78    8.05
  -2  -1   4    9.77    5.32
  -2  -1   4    6.33    3.38
   0   2  -4  615.55   90.13
   2   0  -4  558.34  108.82
  -2   0   4  657.34   84.94
   2   0   4  625.58  103.29
   2   0   4  739.01  107.32
   0  -2   4  670.70  111.45
  -2   1  -4    7.66    2.36
   1   2  -4    9.69    4.08
  -2   1  -4   13.63    9.36
  -1  -2   4    8.07    6.74
  -1  -2   4    7.98    2.30
   2  -1   4    0.51    5.30
   2  -1   4    9.64    2.46
  -1  -2   4    3.67    3.44
   2  -1   4    4.71    7.71
   2  -1   4    9.87    3.34
  -2   2  -4  279.21   37.58
   2   2  -4  285.71   44.88
   2   2  -4  277.49   51.45
  -2  -2   4  279.77   42.53
  -2  -2   4  306.86   50.61
   2  -2   4  282.83   47.50
  -2  -2   4  195.94   49.05
   2  -2   4  240.18   49.28
   2  -2   4  239.45   50.14
  -2   3  -4  308.53   52.91
   3   2  -4  310.46   65.04
   2  -3   4  297.82   69.40
  -3  -2   4  309.85   53.93
   2  -3   4  307.20   60.35
   3   1  -4  114.69   20.36
   3   1  -4  134.29   23.23
  -3  -1   4  127.42   18.93
   3   0  -4    5.21    6.47
   3   0  -4   -0.47    4.50
   0   3  -4    1.66    4.71
  -3   0  -4    6.66   13.35
  -3   0  -4    1.76    3.19
   3   0   4   -9.40    8.84
   3   0   4    1.41    4.58
   3   0   4    7.83   10.96
   0  -3   4   -3.48    4.31
  -3   0   4   -4.74    5.27
   3  -1  -4   87.39   23.14
  -3   1  -4  125.13   19.33
   3  -1  -4  134.76   20.58
  -3   1  -4  115.69   24.52
   3  -1   4  151.58   22.15
   3  -1   4  109.28   23.13
   3  -1   4  128.52   22.88
   3  -1   4   95.64   19.26
  -3   1   4  102.19   17.70
  -3   2  -4  373.75   49.97
  -3   2  -4  349.23   52.32
   3  -2   4  315.71   62.82
   3  -2   4  375.90   57.61
   3  -2   4  377.77   66.44
   3  -2   4  272.40   61.26
   3   3  -4  576.62  109.66
   3  -3   4  597.59  105.82
   3  -3   4  461.11   97.07
   3  -3   4  544.74  112.22
   4   3  -4  326.94   64.87
   4   3  -4  264.46   57.43
  -4  -3   4  310.58   53.15
  -2   4  -4   -0.80   33.28
   4   2  -4  260.58   36.77
   4   2  -4  244.85   41.31
   2  -4   4  157.46   40.55
   4   1  -4    7.66    8.75
   4   1  -4    6.61    6.92
  -4  -1   4   14.79    7.35
   4   0  -4  867.63  175.54
  -4   0  -4  848.99  174.71
   4   0  -4  948.07  158.40
  -4   0  -4  964.17  153.75
   4   0   4  955.09  169.27
  -4   0   4 1004.61  139.46
   4   0   4  824.23  177.66
   4   0   4  540.65  170.57
   4   0   4 1041.99  153.78
   4  -1  -4    4.63    8.86
  -4   1  -4   10.22    4.53
  -4   1  -4    7.16   15.07
   4  -1  -4    2.03    7.39
   4  -1   4    7.36   11.87
   4  -1   4    6.36    8.13
   4  -1   4    9.45    7.43
   4  -1   4    7.59    5.45
  -4   1   4   29.12    8.10
  -4   2  -4  237.32   32.34
  -4   2  -4  216.23   33.43
   4  -2  -4  241.27   42.18
   4  -2   4  186.13   40.41
   4  -2   4  211.88   42.53
  -4   2   4  249.54   31.66
   4  -2   4  261.88   38.95
   4  -2   4  218.04   35.93
  -4   3  -4  390.32   48.70
  -4   3  -4  288.87   50.25
   4  -3   4  355.11   62.59
   4  -3   4  286.99   65.55
   4  -4   4  203.42   42.00
  -5  -4   4   77.79   16.77
  -5  -1   4  308.46   58.18
   5   1   4  392.58   66.80
   5   1   4  415.04   72.49
  -5   0  -4    3.25   21.82
   5   0  -4   -1.45    8.63
  -5   0  -4    1.41    5.48
   5   0   4    8.12   16.66
  -5   0   4  -10.08   10.54
   5   0   4   -0.60    9.78
   5   0   4    0.62    7.87
   5   0   4   16.23   13.19
  -5   1  -4  425.76   58.46
  -5   1  -4  315.21   61.95
  -5   1  -4  325.81   74.68
   5  -1   4  419.98   61.16
   5  -1   4  402.59   69.60
   5  -1   4  263.10   68.93
   5  -1   4  374.66   66.77
  -5   2  -4  188.31   47.38
  -5   2  -4  188.14   35.28
  -5   2  -4  243.42   35.67
   5  -2   4  228.18   38.37
   5  -2   4  190.18   45.53
   5  -2   4  262.73   41.11
   5  -2   4  161.83   43.58
  -5   3  -4   12.49   10.83
   5  -3   4   16.70    9.25
   5  -3   4   37.11   19.01
   5  -3   4    9.13   12.25
  -5   4  -4   67.09   17.97
  -5   4  -4  110.37   17.75
   5  -4   4   60.06   20.44
   5  -4   4   85.70   18.89
  -5   5  -4   77.77   19.77
   5  -5   4  124.64   31.29
   6   4  -4    2.11   13.95
   6   4  -4    2.00   17.04
  -6  -4   4  -13.23   10.86
   6   3  -4   48.91   14.22
   6   3  -4   34.37   17.83
  -6  -3   4   31.66   12.05
   6   2  -4  848.20  128.26
  -6  -2   4  971.40  109.98
  -6  -1  -4    3.92    8.29
   6   1  -4    2.57   14.68
   6   1  -4   15.82   10.49
   6   1   4   -0.79   12.96
  -6  -1   4    3.89    7.78
  -6  -1   4   23.32   13.20
   6   1   4  -10.39   17.95
  -6   0  -4   76.44   33.90
   6   0  -4   75.28   26.10
   6   0  -4  136.82   22.10
   6   0   4   98.22   29.52
  -6   0   4  139.08   21.62
   6   0   4   76.94   25.13
   6  -1  -4    6.24   14.95
  -6   1  -4    9.96   25.28
   6  -1  -4   -1.81   11.19
   6  -1   4    5.92   18.20
  -6   1   4    1.02   13.45
   6  -1   4   -2.22   11.68
  -6   2  -4  666.93  131.29
  -6   2  -4  939.24  103.85
   6  -2  -4  893.74  117.38
   6  -2   4  708.06  124.80
  -6   2   4  950.76  103.87
   6  -3  -4   57.01   16.71
  -6   3   4   53.15   16.26
  -6   4  -4   14.11   13.48
   6  -4   4   -9.66   11.29
   6  -4   4   -9.17   23.08
  -6   5  -4  106.69   22.46
   6  -5   4   98.07   27.51
   6  -5   4  117.53   34.86
   6  -5   4  102.86   23.60
   7   5  -4  107.19   28.99
   7   4  -4   37.33   22.00
   7   4  -4   58.35   18.74
  -7  -4   4   66.07   15.07
   7   3  -4   26.57   15.85
   7   3  -4   19.10   18.18
  -7  -3   4   23.01   11.61
   7   2  -4    0.96   17.87
  -7  -2  -4   -2.66   11.74
   7   2  -4   -1.99   12.00
   7   2   4   -5.22   16.90
   7   2   4   11.31   13.04
  -7  -2   4    1.11   10.34
  -7  -1  -4    6.78    9.35
   7   1  -4   18.73   19.50
   7   1  -4   32.45   12.85
  -7  -1   4    1.15    9.76
   7   1   4    7.40   12.31
   7   1   4    6.10   18.80
   7   1   4   20.29   14.41
  -7  -1   4   16.07   14.67
  -7   0  -4    8.88    9.38
   7   0  -4   22.14   13.70
   7   0  -4   -9.50   20.84
  -7   0  -4    8.42   33.03
  -7   0   4  -16.45   16.20
   7   0   4   -7.77   15.05
   7   0   4  -14.03   24.69
   7   0   4   -5.33   12.22
   7   0   4   -6.46   15.80
  -7   1  -4    8.08   14.82
   7  -1  -4   13.85    9.81
   7  -1  -4   -1.06   20.67
  -7   1  -4   15.30   30.37
  -7   1  -4    9.32    9.60
   7  -1  -4   12.42   13.34
  -7   1   4   34.52   15.42
   7  -1   4   38.82   12.47
   7  -1   4   29.79   12.65
   7  -1   4    5.14   15.35
   7  -1   4    7.54   21.72
  -7   2  -4   -1.02   15.26
   7  -2  -4   20.50   14.21
   7  -2   4   -5.44   11.32
  -7   2   4   -6.24   15.60
   7  -2   4  -13.01   17.39
   7  -3  -4   26.44   16.67
  -7   3  -4   37.40   16.41
  -7   3  -4   43.75   15.03
   7  -3  -4   24.64   20.45
   7  -3   4   14.45   13.53
   7  -3   4   50.37   18.96
   7  -3   4   28.95   13.21
  -7   3   4   18.05   16.19
  -7   4  -4   10.46   21.75
  -7   4  -4   54.29   17.80
   7  -4   4   45.28   16.36
   7  -4   4   41.21   30.99
   7  -4   4   20.20   17.93
   7  -4   4   85.42   21.79
  -7   5  -4  150.60   24.22
   7  -5   4  102.61   39.27
   7  -5   4   96.20   26.76
   7  -5   4  137.31   30.92
   7  -6   4  152.14   47.65
   7  -6   4  177.46   41.08
   8   5  -4   74.94   26.70
  -8  -5   4  119.14   24.76
   8   4  -4   47.52   27.88
   8   4  -4   44.50   23.37
  -8  -4   4   66.97   19.58
   8   3  -4    9.11   20.12
   8   3  -4    7.20   17.36
  -8  -3   4   -4.15   13.62
   8   2  -4  115.72   34.25
   8   2  -4   94.76   27.81
  -8  -2  -4  231.83   29.13
  -8  -2   4  105.09   25.10
   8   2   4  180.05   29.14
   8   1  -4   -1.14   15.39
  -8  -1  -4  -11.57   13.99
   8   1  -4   -9.15   22.88
  -8  -1   4  -14.71   20.12
   8   1   4  -19.09   16.00
  -8  -1   4    5.26   11.91
  -8   0  -4  128.15   21.28
   8   0  -4  131.23   24.48
   8   0  -4  100.91   31.61
  -8   0  -4   40.24   48.48
   8   0   4  -32.25   41.92
   8   0   4   23.06   31.31
  -8   0   4   97.89   25.78
   8   0   4  155.92   22.85
   8  -1  -4   -4.71   16.43
   8  -1  -4   -1.31    9.23
  -8   1  -4  -60.93   21.60
  -8   1  -4  -25.31   14.18
   8  -1   4  -49.76   18.45
  -8   1   4   -1.38   17.92
   8  -2  -4  137.39   29.14
  -8   2  -4   -0.99   37.32
  -8   2   4   97.26   29.09
   8  -3  -4    1.30   24.90
  -8   3  -4    1.15   16.18
   8  -3  -4   -5.75   18.16
  -8   3  -4   -2.60   32.22
  -8   3  -4   -6.04   18.14
   8  -3   4   11.98   15.02
   8  -3   4  -17.92   21.72
  -8   3   4  -19.89   20.18
   8  -3   4    2.12   25.01
   8  -3   4   -7.28   14.06
  -8   4  -4   90.27   22.71
  -8   4  -4  111.27   21.19
   8  -4  -4   80.01   32.61
   8  -4   4   47.17   21.30
   8  -4   4  113.14   32.80
   8  -4   4   98.68   27.90
   8  -4   4   97.65   20.82
  -8   4   4   86.27   26.12
  -8   5  -4  132.95   26.35
  -8   5  -4   72.70   23.89
   8  -5   4  116.48   29.81
   8  -5   4   85.57   23.94
   8  -5   4   95.29   26.63
   8  -5   4   38.65   38.37
   8  -6   4   -8.46   26.25
   8  -6   4   93.01   37.37
   9   5  -4   25.63   24.50
   9   5  -4   47.80   28.81
  -9  -5   4   68.21   21.61
   9   4  -4  405.26   88.61
   9   4  -4  531.82  102.10
  -9  -4   4  357.14   83.80
   9   3  -4   81.89   22.50
   9   3  -4   57.78   25.00
  -9  -3   4   40.75   17.30
   9   3   4   41.00   19.82
   9   2  -4   76.64   29.08
  -9  -2  -4  115.62   22.60
   9   2  -4  129.21   24.59
  -9  -2   4  129.74   27.26
  -9  -2   4   69.14   20.56
   9   2   4  109.20   23.10
   9   2   4   53.98   28.53
   9   1  -4   -5.20   17.53
  -9  -1  -4   23.24   13.78
   9   1  -4  -11.55   24.81
   9   1   4    7.26   22.79
   9   1   4  -10.76   16.19
  -9  -1   4   -1.51   13.51
  -9  -1   4   -6.14   21.85
   9   0  -4   -1.33   18.68
   9   0  -4   -4.13   26.63
  -9   0  -4  -11.83   13.26
   9   0   4   26.44   20.77
  -9   0   4  -24.95   23.37
   9   0   4  -11.90   16.02
  -9   1  -4   -7.66   13.45
  -9   1  -4  -11.19   20.13
   9  -1  -4   30.48   18.69
   9  -1   4    6.02   17.50
   9  -1   4  -24.44   22.37
   9  -1   4   16.60   13.82
  -9   1   4  -24.92   22.20
  -9   2  -4  103.89   21.76
   9  -2  -4   92.66   24.43
  -9   2  -4   61.88   20.43
  -9   2  -4  147.71   26.27
  -9   2  -4   74.17   41.14
  -9   2   4   96.60   26.10
   9  -2   4   80.08   21.85
   9  -2   4   60.70   29.24
   9  -2   4   68.74   21.94
   9  -2   4   83.41   31.16
   9  -3  -4   39.82   21.82
  -9   3  -4   51.48   17.67
  -9   3  -4   29.78   37.58
  -9   3  -4  101.14   23.45
   9  -3  -4   75.60   29.70
   9  -3   4   47.94   27.67
  -9   3   4   60.22   24.72
   9  -3   4   62.31   18.03
   9  -3   4   45.56   19.75
   9  -3   4   72.87   30.51
   9  -4  -4  451.68   95.09
   9  -4  -4  473.66   87.92
  -9   4  -4  491.32   73.17
  -9   4  -4  519.88   79.34
   9  -4   4  489.90   86.21
  -9   4   4  549.51   78.56
   9  -4   4  516.50   94.52
   9  -4   4  535.48  101.36
   9  -4   4  500.50   86.00
  -9   5  -4   89.89   23.25
  -9   5  -4   11.65   24.85
   9  -5   4   46.98   23.61
   9  -5   4   23.52   34.58
   9  -5   4   85.23   20.60
   9  -5   4   52.63   28.49
   9  -6   4  414.63   83.99
   9  -6   4  378.77   89.67
   9  -7   4  247.12   57.46
   9  -7   4  136.35   49.62
  10   5  -4  255.97   49.72
  10   5  -4  186.26   58.43
 -10  -5   4  278.89   45.88
  10   4  -4   53.63   23.62
  10   4  -4   61.83   28.90
 -10  -4   4   13.27   19.81
 -10  -3  -4   10.44   18.81
  10   3  -4   24.02   23.43
  10   3  -4   36.03   25.96
  10   3   4   43.23   23.29
 -10  -3   4   12.40   18.78
  10   2  -4   64.06   22.85
 -10  -2  -4   58.51   19.57
  10   2  -4   28.38   29.16
 -10  -2   4   42.19   26.77
  10   2   4   31.94   21.15
  10   2   4   37.13   26.79
 -10  -2   4   57.00   17.70
  10   2   4   53.10   28.53
 -10  -1  -4    6.53   15.57
  10   1  -4    7.31   21.10
  10   1  -4   -5.76   29.58
  10   1   4   20.44   27.06
 -10  -1   4  -13.99   24.79
  10   1   4   -1.11   21.72
 -10  -1   4   -1.70   15.19
  10   1   4   10.71   17.48
 -10   0  -4  341.56   56.78
  10   0  -4  297.19   59.72
  10   0   4  394.66   56.11
 -10   0   4  344.98   56.98
  10   0   4  307.32   61.87
  10   0   4  331.61   67.64
 -10   1  -4   -4.85   24.46
 -10   1  -4   -5.88   13.47
  10  -1  -4   -7.45   22.71
 -10   1  -4   -9.45   51.40
 -10   1  -4    9.09   15.79
  10  -1   4    6.01   15.75
 -10   1   4  -15.82   26.38
  10  -1   4   17.03   26.67
  10  -1   4   21.92   17.96
  10  -1   4   21.93   30.83
 -10   2  -4   36.44   17.02
  10  -2  -4    9.22   21.07
 -10   2  -4    2.27   17.98
 -10   2  -4   43.76   44.89
 -10   2  -4   77.58   26.11
  10  -2  -4   39.83   28.59
  10  -2   4   80.79   31.28
  10  -2   4   44.90   30.94
  10  -2   4   90.88   18.86
 -10   2   4   70.47   25.45
  10  -2   4   36.40   20.28
 -10   3  -4   50.66   24.01
 -10   3  -4   65.41   37.72
  10  -3  -4   48.31   24.06
 -10   3  -4   27.53   19.41
  10  -3  -4   21.87   31.94
  10  -3   4   29.87   28.33
  10  -3   4   59.54   30.40
  10  -3   4    8.18   16.96
  10  -3   4   29.12   17.97
 -10   3   4   64.40   26.48
  10  -4  -4   34.17   25.37
  10  -4  -4  -10.18   31.37
 -10   4  -4   35.04   21.54
 -10   4  -4   29.84   40.22
 -10   4  -4   58.56   25.98
 -10   4   4   24.96   27.68
  10  -4   4   10.90   17.32
  10  -4   4    7.38   30.86
  10  -4   4    1.27   31.45
  10  -4   4   36.95   21.27
 -10   5  -4  291.63   46.63
 -10   5  -4  281.78   41.47
  10  -5   4  259.14   58.12
  10  -5   4  265.46   57.43
  10  -5   4  147.69   47.96
  10  -5   4  208.29   45.86
 -10   6  -4   14.30   31.78
  10  -6   4  -11.14   32.05
  10  -6   4  -10.38   40.65
  10  -7   4  125.78   44.46
  10  -7   4   94.64   54.24
  11   6  -4   63.26   36.35
  11   5  -4 -104.92   36.55
  11   5  -4    9.43   28.28
 -11  -5   4  -13.84   21.75
  11   4  -4   11.70   37.64
  11   4  -4   60.80   29.28
 -11  -4   4  105.48   28.68
  11   3  -4   77.36   33.20
  11   3  -4   64.16   27.43
 -11  -3  -4   69.86   23.74
  11   3   4   82.12   25.94
 -11  -3   4   35.90   22.86
  11   3   4   86.70   33.43
  11   2  -4   33.50   35.00
 -11  -2  -4   62.90   21.22
  11   2  -4   35.22   24.25
  11   2   4   38.15   22.20
  11   2   4   58.58   30.94
 -11  -2   4   13.36   18.72
 -11  -2   4   37.66   29.01
  11   1  -4  344.45   61.94
 -11  -1  -4  351.07   61.08
  11   1  -4  309.94   70.11
 -11  -1   4  270.99   60.54
 -11  -1   4  271.03   62.01
  11   1   4  372.03   74.19
  11   1   4  321.89   59.46
 -11   0  -4   34.07   18.07
 -11   0  -4   26.46   28.68
  11   0  -4   11.81   23.56
  11   0   4   13.18   29.08
 -11   0   4   37.97   29.98
  11   0   4   -9.27   19.04
 -11   1  -4  348.91   61.32
  11  -1  -4  403.40   62.04
 -11   1  -4  254.31   62.25
  11  -1   4  302.31   59.72
 -11   1   4  458.17   60.14
  11  -1   4  388.79   72.72
 -11   2  -4   90.45   28.49
 -11   2  -4   47.96   20.81
  11  -2  -4   63.04   24.57
  11  -2  -4   87.45   37.76
  11  -2   4   22.14   21.95
 -11   2   4   37.25   30.81
  11  -2   4    9.06   31.21
 -11   3  -4   29.11   21.01
 -11   3  -4   48.53   29.63
  11  -3  -4    3.48   35.82
  11  -3  -4   31.03   28.61
 -11   3  -4   22.36   45.59
  11  -3   4   55.49   33.25
 -11   3   4   75.24   34.32
  11  -3   4   42.04   22.11
  11  -4  -4  114.32   34.10
 -11   4  -4  129.13   31.92
  11  -4  -4  144.82   37.77
 -11   4  -4  102.60   26.15
 -11   4  -4  101.92   49.52
  11  -4   4  100.27   28.43
  11  -4   4   92.32   39.29
 -11   4   4  100.81   35.53
 -11   5  -4   13.04   25.27
 -11   5  -4   35.64   29.92
  11  -5  -4   17.07   40.49
  11  -5   4   -7.29   37.19
  11  -5   4   -5.40   22.87
  11  -5   4   32.33   36.59
 -11   5   4    8.20   34.87
 -11   6  -4   52.82   36.49
  11  -6   4   52.96   32.66
  11  -6   4  105.81   46.98
  11  -6   4   50.16   39.91
  11  -7   4   30.80   39.84
  11  -7   4   71.27   51.24
  12   5  -4  -43.14   32.93
 -12  -5   4   27.84   25.02
  12   4  -4  -24.02   33.40
  12   4  -4  -36.30   30.72
 -12  -4   4    2.35   23.88
  12   3  -4   -1.80   35.27
  12   3  -4  -11.26   28.42
 -12  -3  -4   -7.32   23.66
 -12  -3   4   -4.48   24.31
  12   3   4  -28.67   25.71
  12   3   4    1.93   37.05
 -12  -3   4   -8.93   35.51
 -12  -2  -4  132.49   35.38
  12   2  -4  256.87   47.90
  12   2  -4  175.51   38.68
  12   2   4  140.18   43.90
 -12  -2   4  120.09   44.47
 -12  -2   4  133.14   35.74
  12   2   4   70.68   35.99
  12   1  -4 -112.79   43.38
 -12  -1  -4   -6.13   20.16
  12   1  -4  -14.60   28.20
 -12  -1   4  -77.60   37.48
 -12  -1   4  -43.25   24.76
  12   1   4    1.69   24.16
  12   1   4  -50.99   37.06
 -12   0  -4  440.38   73.04
  12   0  -4  330.71   73.75
 -12   0  -4  463.12   73.97
 -12   0   4  362.69   71.19
  12   0   4  432.46   72.07
  12   0   4  373.11   85.77
  12  -1  -4   -3.82   43.28
 -12   1  -4   24.44   20.45
 -12   1  -4    2.11   33.03
  12  -1  -4   -9.32   26.49
 -12   1   4  -39.84   36.27
  12  -1   4  -41.67   26.55
  12  -1   4  -24.64   34.64
 -12   2  -4  202.86   35.00
 -12   2  -4  123.50   41.96
  12  -2  -4  137.88   50.76
  12  -2  -4  139.61   37.19
  12  -2   4  162.96   46.66
 -12   2   4  248.82   41.95
  12  -2   4  162.18   36.49
  12  -3  -4   16.00   27.63
 -12   3  -4    4.06   30.65
 -12   3  -4   26.71   23.79
  12  -3  -4  -26.64   40.39
  12  -3   4   32.83   36.02
 -12   3   4    2.30   34.40
  12  -3   4   27.89   23.98
  12  -4  -4    6.02   40.25
 -12   4  -4  -26.51   32.38
  12  -4  -4   30.76   30.65
  12  -4   4  -17.78   25.22
  12  -4   4    3.72   38.82
 -12   4   4   21.92   33.97
 -12   5  -4    4.38   33.58
  12  -5  -4   -2.51   34.80
  12  -5  -4   -2.19   43.28
  12  -5   4   -5.76   26.37
  12  -5   4  -28.50   38.62
 -12   5   4   11.35   36.90
 -12   6  -4  -32.71   36.34
  12  -6   4   20.31   31.60
  12  -6   4  -21.56   42.97
  12  -7   4   57.24   46.67
  13   6  -4   50.02   35.63
 -13  -6   4   51.48   32.96
  13   5  -4    6.48   39.65
 -13  -5   4    2.78   27.95
  13   3   4  -38.85   28.04
  13   2  -4   -2.06   31.93
 -13  -2  -4   28.81   22.68
  13   2   4   46.47   37.30
 -13  -2   4   -2.48   42.53
  13   2   4   57.15   27.11
 -13  -1  -4   31.93   24.14
  13   1  -4   26.62   31.30
 -13  -1  -4   59.99   40.35
 -13  -1   4   87.02   38.65
  13   1   4  137.76   41.17
  13   1   4   67.78   28.11
 -13   0  -4   43.70   37.47
 -13   0  -4   10.93   23.94
  13   0  -4    6.26   30.28
 -13   0   4    5.00   38.61
  13   0   4   -5.84   28.70
  13   0   4    5.45   38.21
  13  -1  -4   64.19   32.55
 -13   1  -4   80.79   26.92
 -13   1  -4   26.32   41.68
  13  -1   4   84.38   40.34
 -13   1   4   17.20   37.01
  13  -1   4   91.97   31.70
 -13   2  -4   21.22   37.15
  13  -2  -4   -2.09   27.70
 -13   2  -4  -23.67   25.43
  13  -2   4   -5.63   37.41
  13  -2   4  -15.93   30.17
 -13   2   4    9.70   35.37
 -13   3  -4  -45.74   36.64
 -13   3  -4   -9.00   25.02
  13  -3   4    9.73   28.44
  13  -3   4    9.65   41.49
 -13   4  -4    2.28   37.42
  13  -4   4   -1.96   27.66
  13  -4   4   -9.96   40.65
 -13   5  -4  -45.78   37.03
  13  -5  -4   -9.54   49.30
  13  -5   4   16.58   27.12
  13  -5   4  -10.63   44.16
 -13   6  -4   -5.36   39.83
  13  -6   4   18.85   32.00
  13  -6   4   12.99   45.87
  14   6  -4   13.61   39.14
 -14  -6   4   59.47   36.34
  14   5  -4   19.61   34.64
  14   5  -4    4.74   45.76
 -14  -5   4   64.65   34.71
  14   4  -4   44.54   38.26
  14   4  -4    2.25   48.44
 -14  -4   4   -2.80   46.68
 -14  -4   4   -5.82   31.38
  14   3  -4  -59.87   35.26
 -14  -3  -4  -46.52   32.36
  14   3  -4   17.73   45.94
 -14  -3   4  -36.09   46.60
  14   3   4   39.25   46.66
 -14  -3   4    5.63   31.80
  14   3   4   27.52   29.87
 -14  -2  -4    2.66   24.48
  14   2  -4   38.38   33.57
  14   2  -4   25.94   45.01
 -14  -2   4   58.24   41.48
  14   2   4    2.14   41.78
 -14  -2   4   29.93   30.37
  14   1  -4  -34.34   34.90
 -14  -1   4  -13.88   43.09
  14   0  -4   94.48   36.72
 -14   0   4   74.71   43.77
  14  -1  -4   29.79   32.21
  14  -1  -4   17.74   45.99
 -14   1   4    2.73   40.61
 -14   1   4   11.31   28.16
  14  -2  -4    2.30   32.58
  14  -2  -4   20.75   46.76
 -14   2   4  -72.75   41.80
  14  -3  -4   40.94   30.91
  14  -3  -4  -18.80   46.43
 -14   3   4   11.20   43.45
  14  -4  -4  -28.21   37.36
  14  -4  -4   40.57   55.70
 -14   4   4   14.64   41.73
  14  -5  -4  -25.76   57.00
  14  -5  -4   72.74   42.76
 -14   5   4   -3.24   47.08
  14  -6  -4   20.85   60.92
  14  -6   4   28.76   50.90
  14  -7   4   60.27   54.95
  14  -8   4   57.75   62.69
  15   6  -4   74.17   43.92
 -15  -6   4   99.75   42.23
  15   5  -4   -2.61   53.31
  15   5  -4    2.72   37.91
 -15  -5   4  -44.41   36.13
  15   4  -4  -72.35   36.75
  15   4  -4   29.73   48.75
 -15  -4   4  -12.98   35.51
 -15  -4   4   -3.12   50.86
  15   3  -4  -63.14   40.16
 -15  -3  -4   57.57   35.63
  15   3  -4    4.90   52.89
 -15  -3   4    3.09   51.93
  15   3   4   25.36   47.84
  15   3   4   34.68   32.71
 -15  -3   4  -56.82   34.73
 -15  -2  -4  -40.41   50.35
 -15  -2  -4  -14.66   33.04
  15   2  -4   12.34   34.35
  15   2   4   38.62   33.69
 -15  -2   4   -6.15   45.04
  15   2   4  -51.86   46.82
 -15  -2   4   -9.16   33.32
  15   1  -4   -2.57   39.97
 -15  -1  -4   -6.33   50.06
 -15  -1  -4  -17.00   30.30
  15   1   4   -4.60   49.02
  15   1   4  -25.53   33.68
 -15  -1   4    9.35   49.71
  15   0  -4  -33.12   38.75
  15   0  -4  -43.05   53.22
 -15   0  -4    8.26   31.19
 -15   0  -4  -18.46   49.40
  15   0   4   18.08   46.37
 -15   0   4   12.26   45.27
 -15   0   4   54.27   34.51
  15   0   4   18.83   35.99
 -15   1  -4   73.46   48.84
 -15   1  -4   42.79   29.61
  15  -1  -4  -43.13   52.15
  15  -1  -4  -10.11   38.63
  15  -1   4   11.17   44.71
 -15   1   4   66.62   48.21
 -15   1   4    3.07   34.63
  15  -1   4   -5.00   35.06
 -15   2  -4  -32.46   47.90
  15  -2  -4   -2.46   54.52
 -15   2  -4   13.41   28.98
  15  -2  -4   10.16   37.83
  15  -2   4  -19.73   35.35
  15  -2   4    8.98   49.30
 -15   2   4   56.98   47.05
  15  -3  -4   20.48   53.42
 -15   3  -4  -20.09   46.62
 -15   3  -4   11.03   25.94
  15  -3  -4  -21.18   37.38
  15  -3   4   12.08   38.80
 -15   3   4  -27.89   47.65
  15  -3   4  -18.45   51.44
  15  -4  -4  -25.14   39.31
 -15   4  -4    8.76   32.27
  15  -4  -4   13.15   52.69
 -15   4  -4   73.56   46.64
  15  -4   4  115.28   38.81
 -15   4   4   -9.67   46.91
  15  -4   4  -30.88   49.10
 -15   5  -4   35.24   44.35
  15  -5  -4   24.11   40.10
  15  -5  -4   58.54   62.24
 -15   5   4   42.19   50.80
  15  -5   4    2.46   34.22
  15  -5   4  -17.24   50.01
  15  -6  -4  -66.47   67.81
 -15   6  -4    9.43   47.62
  15  -6   4   50.74   35.32
  15  -6   4   21.06   57.72
 -15   7  -4  -78.45   59.21
  15  -7   4   16.56   58.77
  15  -8   4  -11.85   62.72
  16   6  -4  -85.52   49.73
 -16  -6   4  -21.21   48.69
  16   5  -4    5.75   60.86
  16   5  -4   63.05   45.95
 -16  -5   4  -15.21   38.89
 -16  -5   4  -45.88   58.06
  16   4  -4    5.71   40.53
  16   4  -4  -81.87   56.35
 -16  -4   4  -32.58   39.30
 -16  -4   4   41.67   58.78
 -16  -3  -4   -3.54   36.28
  16   3  -4  -27.02   58.92
  16   3  -4  -32.96   39.89
  16   3   4  -33.35   34.72
 -16  -3   4  -17.20   58.18
  16   3   4   -2.79   55.47
 -16  -3   4  -28.24   34.71
 -16  -2  -4   53.23   64.19
 -16  -2  -4   16.28   33.69
  16   2  -4  -98.51   40.86
  16   2   4   45.13   37.52
  16   2   4    7.81   54.49
 -16  -2   4  123.39   59.00
  16   1  -4  -50.43   40.77
 -16  -1  -4   -3.16   33.62
 -16  -1  -4   -7.12   58.91
  16   1   4   27.86   52.89
  16   1   4  -20.35   39.54
 -16  -1   4  -34.41   56.97
 -16   0  -4  -30.80   30.65
 -16   0  -4  -24.15   58.84
  16   0  -4   23.58   54.16
  16   0  -4    2.78   38.61
 -16   0   4  -37.25   52.71
  16   0   4    2.61   35.79
  16   0   4   70.20   53.27
 -16   0   4  -40.10   36.40
 -16   1  -4  -15.02   34.87
  16  -1  -4  -60.01   57.29
 -16   1  -4    3.41   54.63
  16  -1  -4  -97.55   39.44
 -16   1   4  -23.46   32.52
  16  -1   4   24.60   39.54
 -16   1   4   -6.73   52.55
  16  -1   4   19.61   50.32
 -16   2  -4   42.03   33.43
  16  -2  -4   74.11   61.51
 -16   2  -4   29.66   54.78
  16  -2  -4   -2.80   39.12
 -16   2   4   23.37   51.14
  16  -2   4   61.91   48.39
  16  -2   4   21.72   40.33
 -16   2   4    3.51   39.84
 -16   3  -4   38.49   51.14
 -16   3  -4   55.34   36.75
  16  -3  -4   97.67   58.69
  16  -3  -4    5.82   39.31
  16  -3   4  -22.53   51.54
 -16   3   4  -82.45   54.18
  16  -3   4   69.74   39.26
  16  -4  -4   12.23   42.57
 -16   4  -4  -22.33   35.86
 -16   4  -4   -3.16   47.71
  16  -4  -4  -17.47   62.32
  16  -4   4  -10.66   37.88
  16  -4   4   28.29   57.09
 -16   4   4    3.55   53.80
  16  -5  -4 -131.35   68.22
  16  -5  -4  -58.73   47.16
 -16   5  -4  -17.55   42.33
 -16   5  -4  -48.88   51.41
  16  -5   4  -97.69   57.80
 -16   5   4   15.36   56.52
  16  -5   4  -43.22   43.20
 -16   6  -4   -6.88   53.67
  16  -6  -4  -33.97   74.73
  16  -6   4  -54.70   44.97
 -16   6   4  -55.25   68.36
  16  -6   4  -41.76   61.22
 -16   7  -4   53.98   57.96
  16  -7   4  -21.34   64.87
  16  -8   4  -16.16   67.04
  17   6  -4   73.06   53.47
 -17  -6   4  -88.73   60.55
 -17  -6   4  -23.63   51.47
  17   5  -4    3.32   44.02
  17   5  -4    3.17   67.88
 -17  -5   4  -17.00   45.94
 -17  -5   4   55.50   63.62
  17   4  -4  -34.48   44.10
  17   4  -4   63.24   58.21
 -17  -4   4  -24.21   44.40
 -17  -4   4  -50.37   60.79
  17   3  -4   68.33   65.70
 -17  -3  -4   -7.85   39.00
  17   3  -4   18.03   45.91
 -17  -3  -4   62.67   83.63
  17   3   4 -172.64   63.86
  17   3   4   53.76   42.11
 -17  -3   4   61.27   61.03
 -17  -3   4   -3.94   44.33
 -17  -2  -4    3.62   42.15
 -17  -2  -4   -8.56   65.49
  17   2  -4   24.32   41.68
  17   2   4  -16.64   40.30
 -17  -2   4   34.42   62.73
  17   2   4  -80.44   56.47
 -17  -1  -4   24.60   39.58
 -17  -1  -4  -20.10   66.23
  17   1  -4 -140.72   49.64
  17   1  -4    2.86   61.31
  17   1   4   30.60   60.94
  17   1   4   38.84   41.85
 -17  -1   4   11.39   57.73
  17   0  -4  -24.35   44.22
 -17   0  -4   41.38   40.22
 -17   0  -4  -73.74   64.77
  17   0  -4   59.58   65.96
  17   0   4   23.13   45.74
 -17   0   4   29.45   43.28
 -17   0   4   14.98   58.52
  17   0   4   82.93   58.65
 -17   1  -4   13.58   35.90
  17  -1  -4  -25.80   63.77
  17  -1  -4   -3.07   46.84
 -17   1  -4  -37.95   61.67
 -17   1   4   33.39   41.42
  17  -1   4  -32.24   58.88
 -17   1   4   26.01   59.55
  17  -1   4 -104.88   46.19
  17  -2  -4 -101.48   45.41
  17  -2  -4 -102.57   64.11
 -17   2  -4  -26.67   37.64
 -17   2  -4  -18.42   59.83
  17  -2   4  -40.63   59.31
 -17   2   4  -30.60   42.41
  17  -2   4  -71.97   47.23
 -17   2   4   40.83   61.22
  17  -3  -4   25.59   42.52
  17  -3  -4  -81.23   63.67
 -17   3  -4  -14.28   56.11
 -17   3  -4   54.53   37.98
  17  -3   4    5.93   41.48
  17  -3   4   -2.76   55.29
 -17   3   4  -26.68   60.04
 -17   3   4   41.09   45.96
 -17   4  -4   -3.52   54.08
  17  -4  -4   -3.36   46.49
 -17   4  -4   14.18   41.40
  17  -4  -4    3.13   68.48
  17  -4   4  -11.85   42.70
 -17   4   4   -7.84   59.46
  17  -4   4   -8.41   60.89
  17  -5  -4    6.74   69.99
 -17   5  -4    3.62   57.36
 -17   5  -4   22.83   44.47
  17  -5  -4    3.56   50.59
 -17   5   4  -21.10   60.68
  17  -5   4  -11.42   62.75
  17  -5   4   47.54   44.77
 -17   6  -4   12.86   47.22
 -17   6  -4  -49.24   58.68
  17  -6  -4  -25.88   78.88
  17  -6   4   62.66   46.55
  17  -6   4  -63.71   66.61
 -17   6   4  -39.87   69.81
 -17   7  -4   35.81   63.99
  17  -7   4    3.27   68.58
  18   6  -4  614.35   77.10
 -18  -6   4  282.79   84.90
  18   5  -4  -84.67   53.58
  18   5  -4  -88.02   72.31
 -18  -5   4    4.77   48.77
 -18  -5   4   13.32   70.98
  18   4  -4 -113.11   62.65
  18   4  -4   -3.43   45.95
 -18  -4   4    4.49   45.90
 -18  -4   4   -8.69   71.82
 -18  -3  -4    4.38   42.49
  18   3  -4  -23.24   49.59
 -18  -3  -4   -5.50   93.62
 -18  -3   4   26.40   45.38
  18   3   4   65.63   46.10
 -18  -3   4   59.96   69.66
 -18  -2  -4   19.38   74.31
  18   2  -4  -67.53   49.67
 -18  -2  -4  -24.30   41.30
  18   2   4  101.58   68.17
  18   2   4   -6.06   44.28
 -18  -2   4  -76.94   64.90
 -18  -1  -4  -50.92   42.05
  18   1  -4 -102.75   68.25
 -18  -1  -4  -94.82   78.75
  18   1  -4   -3.33   50.72
  18   1   4   48.36   44.22
  18   1   4  -30.56   58.64
 -18  -1   4   16.63   46.53
 -18  -1   4    4.19   61.01
  18   0  -4    3.11   60.88
  18   0  -4   16.69   44.47
 -18   0  -4   52.69   74.99
 -18   0  -4    3.85   39.58
  18   0   4   45.35   47.02
  18   0   4  -91.06   62.43
 -18   0   4  -12.41   64.51
 -18   0   4   32.79   45.33
  18  -1  -4    3.36   47.47
 -18   1  -4   96.98   67.05
 -18   1  -4   -7.61   35.98
  18  -1  -4  -61.90   65.77
 -18   1   4   28.81   66.49
  18  -1   4  -39.20   47.53
  18  -1   4  -74.68   63.94
 -18   1   4  -69.98   43.33
 -18   2  -4   -3.75   38.91
 -18   2  -4    4.07   64.70
  18  -2  -4  -78.78   49.45
  18  -2  -4    3.10   67.64
  18  -2   4  -19.77   47.11
  18  -2   4  -56.31   66.70
 -18   2   4  -94.55   65.39
 -18   2   4  -33.54   51.35
 -18   3  -4   31.32   62.25
 -18   3  -4   37.77   40.67
  18  -3  -4    3.19   72.09
  18  -3  -4    3.52   51.29
 -18   3   4  -31.40   50.18
 -18   3   4 -156.75   69.89
  18  -3   4   42.65   49.74
  18  -3   4    8.95   61.15
 -18   4  -4   15.71   60.88
  18  -4  -4   14.81   53.26
 -18   4  -4  -15.76   45.45
  18  -4  -4    6.67   66.71
 -18   4   4  -25.99   68.86
  18  -4   4  -23.00   44.07
  18  -4   4   21.22   66.66
  18  -5  -4 -112.59   79.87
  18  -5  -4   74.06   54.66
 -18   5  -4  -20.82   44.89
 -18   5  -4  116.30   62.89
  18  -5   4  -34.15   66.69
 -18   5   4  107.30   70.00
  18  -5   4    3.29   50.31
 -18   6  -4   51.10   56.56
  18  -6  -4  271.91   98.02
 -18   6  -4  146.51   73.84
  18  -6   4   39.18   75.89
  18  -6   4  -61.75   57.90
 -18   6   4  289.48   95.07
 -18   7  -4   -5.47   51.15
 -18   7  -4   -9.77   71.70
  18  -7   4  -17.32   75.08
  19   5  -4  -66.55   82.86
  19   5  -4    4.05   59.63
 -19  -5   4   26.92   55.99
 -19  -5   4 -130.14   82.42
  19   4  -4  -45.06   52.74
  19   4  -4   40.44   77.79
 -19  -4   4   -9.74   78.41
 -19  -4   4   50.38   55.14
 -19  -3  -4   81.84  100.66
 -19  -3  -4   63.85   56.29
  19   3  -4  -66.68   56.85
  19   3   4  -55.19   47.02
 -19  -3   4   91.30   80.18
 -19  -2  -4  -49.96   52.29
 -19  -2  -4   66.27   88.62
  19   2  -4 -147.19   62.34
 -19  -2   4   56.85   76.31
  19   2   4   -3.52   74.83
  19   2   4    3.31   51.83
  19   1  -4   91.01   59.96
 -19  -1  -4  -43.69   47.98
 -19  -1  -4   45.96   89.21
  19   1  -4  389.14   82.52
 -19  -1   4  -46.89   58.77
  19   1   4  148.24   74.76
 -19  -1   4  139.21   75.35
  19   1   4   13.44   49.86
 -19   0  -4  -17.20   51.87
 -19   0  -4   -4.90   83.08
  19   0   4  172.91   77.89
  19   0   4  112.45   58.05
 -19   0   4   64.19   80.43
 -19   0   4   40.78   57.12
 -19   1  -4  -23.39   77.99
  19  -1  -4   25.81   58.03
 -19   1  -4   29.76   47.82
 -19   1   4   95.37   54.00
 -19   1   4   99.75   79.65
  19  -1   4   36.27   68.63
  19  -1   4  103.58   57.84
 -19   2  -4  -16.83   47.80
  19  -2  -4 -117.12   65.77
 -19   2  -4  -59.04   75.35
  19  -2   4  -79.63   56.38
 -19   2   4 -169.27   78.23
  19  -2   4  -93.46   71.85
 -19   2   4  -60.70   53.63
 -19   3  -4  -59.00   50.19
  19  -3  -4  -96.55   78.42
  19  -3  -4  -85.49   57.36
 -19   3  -4  -35.08   71.88
 -19   3   4  -29.66   52.41
  19  -3   4  -21.67   53.05
 -19   3   4   56.60   70.26
  19  -3   4  -22.78   72.76
 -19   4  -4   -4.39   70.54
  19  -4  -4 -102.37   58.55
 -19   4  -4   -4.36   46.10
  19  -4  -4 -154.24   76.32
 -19   4   4 -158.88   66.18
  19  -4   4   78.79   73.88
 -19   4   4   67.41   72.45
  19  -4   4   62.43   49.85
  19  -5  -4   30.06   59.07
  19  -5  -4    3.87   83.20
 -19   5  -4   41.70   51.23
 -19   5  -4  -35.51   71.99
  19  -5   4   47.74   75.44
 -19   5   4  -57.08   71.75
  19  -5   4    7.32   53.09
  19  -6  -4   -4.38   90.84
 -19   6  -4   -9.28   70.57
 -19   6  -4   76.12   59.42
  19  -6   4   42.26   77.93
  19  -6   4   -7.57   46.72
 -19   6   4   90.79   88.19
 -19   7  -4  -23.73   66.38
 -20  -3  -4   16.61   57.93
 -20  -3  -4  123.70  118.25
  20   3  -4    8.27   62.11
  20   3   4 -147.35   52.19
 -20  -3   4   65.08   93.14
 -20  -2  -4  -30.66   56.23
 -20  -2  -4    6.30  105.04
  20   2  -4  136.48   64.33
  20   2  -4    7.74   82.86
  20   2   4   62.49   77.67
  20   2   4  -68.71   53.86
 -20  -2   4   52.64   85.37
  20   1  -4   19.90   66.34
 -20  -1  -4   19.49   53.55
  20   1  -4    3.77   79.69
 -20  -1  -4   87.69   93.87
  20   1   4  -37.89   56.82
  20   1   4  -52.08   74.73
 -20  -1   4   25.82   82.68
  20   0  -4   31.98   58.98
  20   0  -4    3.68   84.36
 -20   0  -4  163.85   88.37
 -20   0  -4   28.83   52.95
 -20   0   4    5.09   79.77
  20   0   4   47.30   79.39
 -20   0   4   66.15   54.20
  20   0   4   41.96   54.91
  20  -1  -4   55.16   77.93
 -20   1  -4  -76.27   48.59
  20  -1  -4   36.28   63.23
 -20   1  -4  -73.00   87.40
 -20   1   4   10.04   78.54
  20  -1   4    3.62   77.73
  20  -1   4  -15.58   53.35
 -20   1   4  -15.23   55.11
 -20   2  -4  -10.05   80.72
  20  -2  -4   41.63   60.98
 -20   2  -4  -57.07   52.79
  20  -2  -4  -44.32   80.18
  20  -2   4    7.12   73.04
 -20   2   4   45.95   77.58
  20  -2   4   15.86   61.13
  20  -3  -4    4.28   62.99
 -20   3  -4   -4.74   52.62
 -20   3  -4   58.83   77.98
 -20   3   4   26.35   79.95
  20  -3   4  -77.78   75.61
  20  -3   4  -19.84   59.42
 -20   4  -4  -43.93   51.64
  20  -4  -4  -99.82   70.11
 -20   4  -4  -34.29   77.67
  20  -4   4  -39.61   77.27
 -20   4   4   37.58   82.64
  20  -4   4  -24.33   56.25
 -20   5  -4  -58.99   75.58
 -20   5  -4   93.02   61.56
  20  -5   4  -20.61   56.38
  20  -5   4   62.71   81.29
 -20   6  -4  -22.59   63.71
 -20   6  -4  -20.68   79.68
  20  -6   4  -33.56   59.92
   0   0  -5   11.20    9.23
   0   0   5    0.61    7.89
   0   0   5   -1.77    5.79
  -1   0  -5  153.66   29.48
   1   0  -5  133.90   27.65
   0   1  -5  142.34   28.82
  -1   0   5  133.42   27.02
   1   0   5   97.29   29.56
   0  -1   5  160.93   27.74
   0  -1   5  153.83   28.93
  -1   1  -5   -0.62    9.03
   1   1  -5   -2.30    6.94
   1   1  -5   -0.42    2.63
   1   1  -5    0.62    3.71
   1  -1   5    1.09    7.78
  -1  -1   5   13.36    6.90
  -1  -1   5   -0.41    4.85
  -1  -1   5    3.88    2.48
   2   1  -5  208.30   32.01
   2   1  -5  174.32   35.57
  -2  -1   5  208.18   28.87
  -2  -1   5  172.07   35.31
   1  -2   5  123.37   34.09
   1  -2   5  137.48   34.74
  -2  -1   5  207.31   34.05
   0   2  -5    0.53    4.82
   2   0  -5   -0.40    5.87
  -2   0  -5    1.75   12.85
   2   0  -5   -1.24    4.17
   0  -2   5    1.06    8.18
   2   0   5    7.60   10.20
   0  -2   5   -1.32    4.96
  -2   0   5    3.67    3.59
  -2   0   5    1.01    6.40
   2   0   5    2.24    8.04
   1   2  -5  181.35   29.04
   1   2  -5  225.72   36.15
   1   2  -5  174.59   31.52
  -2   1  -5  169.69   36.94
   2  -1   5  183.91   35.41
  -1  -2   5  197.18   34.65
   2  -1   5  123.95   35.61
   2  -1   5  156.43   34.49
  -1  -2   5  167.38   33.82
  -2   2  -5   -0.65    5.38
  -2   2  -5    0.87    3.10
   2   2  -5   -0.33    5.09
   2   2  -5    1.22    4.44
   2   2  -5   -3.35    4.35
  -2  -2   5    0.82    7.60
   2  -2   5    1.98    3.82
   2  -2   5    1.12    6.23
  -2  -2   5   -0.37    2.78
  -2  -2   5    1.55    3.89
   2  -2   5   -2.55    9.91
   2  -2   5   -2.74    2.66
   3   2  -5   35.60   11.86
   3   2  -5   47.68    8.69
   3   2  -5   44.90   10.15
  -3  -2   5   58.91    9.14
  -3  -2   5   63.62    9.92
   2  -3   5   35.62   16.31
  -3  -2   5   66.72   12.23
   3   1  -5  211.54   37.16
  -1   3  -5   93.86   33.92
   3   1  -5  220.71   42.01
   3   1  -5  184.64   41.36
  -3  -1   5  243.44   40.21
   1  -3   5  221.50   38.91
   1  -3   5  225.82   44.91
  -3  -1   5  206.87   34.10
  -3  -1   5  200.13   40.11
   3   0  -5    1.53    5.53
  -3   0  -5   13.71   17.20
   3   0  -5    7.60    7.68
   0   3  -5    7.03    5.74
   0  -3   5    6.81    5.58
  -3   0   5    3.28    5.33
   0  -3   5   -5.98    9.98
   3   0   5   -0.84    9.85
   3   0   5   12.54   12.20
   1   3  -5  196.86   34.13
   3  -1  -5  206.99   41.99
  -3   1  -5  181.12   44.20
  -3   1   5  174.65   31.51
   3  -1   5  188.15   40.12
   3  -1   5  260.03   35.49
   3  -1   5  249.14   40.55
   3  -1   5  233.44   41.64
  -1  -3   5  183.76   44.04
  -3   2  -5   48.10   17.66
   2   3  -5   48.15    9.35
  -3   2  -5   46.91    9.13
   3  -2   5   48.53    9.40
   3  -2   5   32.40   11.46
   3  -2   5   19.96   15.18
   3  -2   5   16.33   11.44
   3   3  -5    0.56    7.23
  -3   3  -5   10.89    9.10
   3   3  -5    1.07    7.84
   3  -3   5    5.90   15.07
   3  -3   5   -0.79    7.00
   3  -3   5    3.18    8.30
  -3  -3   5    5.36    4.73
   4   3  -5  697.30  129.33
   4   3  -5  501.29  111.87
  -4  -3   5  699.31  105.68
   4   2  -5  217.59   45.22
   4   2  -5  241.21   50.80
  -4  -2   5  291.62   43.05
  -4  -2   5  282.40   47.71
   2  -4   5  306.51   56.59
   4   1  -5 1119.98  184.15
   4   1  -5 1134.99  207.27
  -4  -1   5  962.43  167.79
   1  -4   5 1211.37  202.57
  -4   0  -5    1.82    4.65
   4   0  -5    6.25    7.09
   0   4  -5   12.90    7.95
   4   0  -5   -1.86    9.62
  -4   0  -5    1.10   20.10
   4   0   5   -6.53    5.38
   4   0   5    6.54   12.01
   0  -4   5    1.16    6.51
   4   0   5   -5.54   15.82
  -4   0   5    0.71    7.87
   4   0   5    0.48    6.94
   4  -1  -5 1181.71  184.53
  -4   1  -5 1199.39  176.38
   4  -1  -5  748.92  202.24
  -4   1  -5 1187.38  211.74
   4  -1   5 1072.30  191.90
   4  -1   5  927.35  202.35
   4  -1   5 1036.51  201.19
   4  -1   5  982.11  175.50
  -4   2  -5  244.63   40.87
  -4   2  -5  235.81   54.48
   4  -2   5  197.03   50.17
   4  -2   5  276.48   44.92
   4  -2   5  247.55   52.81
   4  -2   5  251.09   48.60
  -4   3  -5  558.95   98.47
   4  -3   5  760.85  111.88
   4  -3   5  695.75  124.83
  -4   4  -5   -9.18   11.39
   4  -4   5    8.26   11.06
   4  -4   5   -0.61   10.90
   5   4  -5   14.23   14.71
  -4   5  -5    9.06   12.47
  -5  -4   5    1.04    8.32
   4  -5   5  -21.49   24.09
   4  -5   5   13.71   11.47
  -3   5  -5  138.26   22.23
   3  -5   5  129.90   25.38
  -5  -1  -5   64.23   12.07
   5   1   5   58.27   19.60
  -5   0  -5   86.36   30.70
  -5   0  -5   56.80   16.92
   5   0   5   90.68   22.73
   5   0   5  114.81   26.15
   5   0   5   90.81   20.84
   5   0   5  123.63   17.59
  -5   1  -5   47.78   10.37
  -5   1  -5   32.26   24.93
   5  -1   5   33.20   10.41
   5  -1   5   62.56   20.27
   5  -1   5  103.28   15.34
   5  -1   5   55.59   13.76
   5  -2  -5   37.15   17.95
  -5   2  -5   47.38   23.63
  -5   2  -5   51.95   12.75
   5  -2   5   56.83   21.01
   5  -2   5   39.64   11.21
   5  -2   5   63.87   15.40
  -5   3  -5   82.42   20.78
   5  -3   5  112.34   27.28
   5  -3   5  128.19   22.54
  -5   4  -5   -5.47   13.06
  -5   4  -5   10.83   11.99
   5  -4   5   -2.47   10.31
   5  -4   5   15.58   13.28
   5  -4   5    1.12   23.10
   5  -4   5   16.76   12.32
  -5   5  -5   -2.41   14.25
   5  -5   5   -0.89   12.92
   5  -5   5   -4.47   11.96
   5  -5   5    3.87   27.21
   6   5  -5   11.78   15.97
   5  -6   5   11.42   29.68
   6   4  -5  106.33   26.40
   6   4  -5  171.29   31.71
  -6  -4   5  115.74   24.03
   6   3  -5 1261.58  152.28
   6   2  -5    6.91   11.54
   6   2  -5   12.56   14.76
  -6  -2   5   26.79    9.38
  -6  -1  -5  126.86   27.91
   6   1  -5  182.18   34.27
   6   1  -5  199.29   29.10
   6   1   5  137.24   33.44
  -6  -1   5  195.62   28.15
   6   1   5  207.29   34.40
  -6   0  -5   -8.31   29.34
   6   0  -5   -9.13   16.37
   6   0  -5    0.88   11.50
  -6   0   5   -8.26   13.69
   6   0   5   62.13   17.51
   6   0   5   19.46   24.50
   6  -1  -5  171.11   33.75
   6  -1  -5  209.77   29.83
  -6   1  -5  184.86   42.37
   6  -1   5  162.20   34.26
  -6   1   5  190.31   27.49
   6  -2  -5    5.45   12.83
  -6   2  -5   -3.27   12.41
   6  -2  -5    7.17   16.49
   6  -2   5    9.36    9.44
  -6   2   5    9.15   13.88
  -6   3  -5 1198.58  134.11
  -6   3  -5  996.97  133.60
   6  -3   5 1094.40  156.23
  -6   4  -5  114.88   24.51
   6  -4   5  121.17   26.29
   6  -4   5  169.73   36.35
  -6   5  -5  -24.52   16.69
   6  -5   5  -12.38   18.39
   6  -5   5    7.51   14.04
   6  -5   5   -2.76   30.38
   6  -6   5   22.91   30.63
   7   5  -5    6.44   17.79
  -7  -5   5    1.62   15.45
   7   4  -5   16.33   19.37
   7   4  -5   52.12   26.28
  -7  -4   5    4.04   15.85
   7   3  -5   15.89   19.76
   7   3  -5    8.55   15.21
  -7  -3   5   -8.37   11.03
   7   2  -5   65.21   18.31
   7   2  -5   48.87   21.65
  -7  -2   5   84.36   18.75
  -7  -2   5   54.15   15.00
   7   1  -5   -5.13   19.04
   7   1  -5  -14.81   13.57
  -7  -1  -5    1.17    8.81
  -7  -1   5    7.06   17.08
   7   1   5    0.94   15.54
   7   1   5  -23.07   12.03
   7   0  -5   -8.20   13.76
   7   0  -5  -11.86   20.32
  -7   0  -5    8.28    8.66
   7   0   5   26.24   15.39
  -7   0   5  -10.87   16.88
   7   0   5   -2.68   11.66
  -7   1  -5  -11.01   14.88
   7  -1  -5   22.44   14.52
  -7   1  -5    7.42    8.36
   7  -1  -5  -10.75   18.78
  -7   1   5   -6.13   15.68
   7  -1   5   -9.28   15.26
   7  -1   5   -9.57   11.02
  -7   2  -5   35.43   16.82
  -7   2  -5   56.23   15.52
  -7   2  -5   73.25   18.06
   7  -2  -5   64.77   23.37
   7  -2  -5   66.38   19.10
   7  -2   5   50.74   15.72
   7  -2   5   76.61   18.88
   7  -2   5   91.22   20.78
  -7   2   5   55.05   19.23
  -7   3  -5   17.09   30.24
   7  -3  -5    4.16   18.91
  -7   3  -5   14.19   15.20
  -7   3  -5    6.67   15.55
  -7   3   5    4.43   19.21
   7  -3   5   19.41   13.92
   7  -3   5   26.98   12.79
   7  -3   5   24.02   25.06
   7  -3   5   -0.94   18.14
   7  -4   5   57.48   20.07
   7  -4   5  139.51   25.80
   7  -4   5  143.77   34.41
   7  -4   5   83.91   19.73
  -7   5  -5   34.52   17.40
  -7   5  -5  -20.57   20.99
   7  -5   5    7.09   31.65
   7  -5   5   18.84   14.72
   7  -5   5   20.92   20.68
  -7   6  -5  -16.47   20.18
   7  -6   5   21.53   24.23
   7  -6   5  -12.94   35.58
   8   5  -5  -11.19   24.12
   8   5  -5   -4.26   18.73
  -8  -5   5   29.80   16.96
   8   4  -5    1.22   23.36
   8   4  -5    9.12   18.84
  -8  -4   5   27.29   14.48
   8   3  -5   18.12   22.00
   8   3  -5    3.62   16.54
  -8  -3   5    1.37   10.99
  -8  -2  -5   18.99   13.54
   8   2  -5   24.75   20.51
   8   2  -5   48.26   16.76
   8   2   5   39.32   15.94
  -8  -2   5   53.71   19.51
  -8  -2   5   43.29   13.77
   8   1  -5   66.41   21.57
   8   1  -5   69.39   30.58
  -8  -1  -5  108.06   19.87
  -8  -1   5   34.22   21.95
  -8  -1   5   23.54   17.20
   8   1   5   58.66   20.62
   8   0  -5  127.27   22.31
  -8   0  -5   42.79   15.86
  -8   0   5  -15.32   20.88
  -8   1  -5  129.89   19.89
   8  -1  -5   66.61   28.37
   8  -1  -5   43.37   20.45
  -8   1   5   30.93   21.27
   8  -2  -5   40.86   17.44
  -8   2  -5  -14.10   20.90
  -8   2  -5   30.28   13.66
  -8   2  -5  -38.94   19.20
  -8   2  -5  -67.76   42.76
   8  -2   5  -14.93   18.72
   8  -2   5    6.08   15.84
   8  -2   5  -14.16   23.76
  -8   2   5   24.90   20.30
   8  -2   5   17.55   26.70
  -8   3  -5   16.61   15.89
   8  -3  -5    1.50   18.55
  -8   3  -5   44.93   16.99
  -8   3  -5   23.40   33.91
   8  -3   5   25.87   27.40
   8  -3   5    7.12   14.12
  -8   3   5   28.78   20.82
   8  -3   5    4.41   21.84
   8  -3   5   19.14   15.07
  -8   4  -5   25.41   17.56
  -8   4  -5   -2.53   18.73
   8  -4   5   12.33   21.72
   8  -4   5   20.53   16.07
   8  -4   5    3.80   13.79
   8  -4   5  -10.06   29.02
  -8   5  -5   13.53   19.97
  -8   5  -5   23.68   19.19
   8  -5   5   20.84   15.88
   8  -5   5    7.31   17.29
   8  -5   5   11.55   22.51
   8  -5   5    2.96   31.98
  -8   6  -5  183.77   37.39
   8  -6   5  190.70   46.39
   8  -6   5  189.96   55.93
   8  -7   5  162.62   53.30
   9   6  -5   96.20   28.69
   9   5  -5  298.15   61.46
   9   5  -5  343.48   53.04
  -9  -5   5  274.11   48.52
   9   4  -5   29.95   26.01
   9   4  -5   32.92   18.61
  -9  -4   5   10.18   17.50
   9   3  -5   34.06   21.17
   9   3  -5   35.82   26.03
  -9  -3   5   68.30   17.99
   9   2  -5   -1.28   23.05
  -9  -2  -5    3.42   16.97
   9   2  -5    1.34   19.05
   9   2   5   -5.39   23.82
  -9  -2   5   -9.48   24.30
   9   2   5   11.37   17.36
   9   2   5  -12.89   27.07
  -9  -2   5    1.51   13.64
   9   1  -5  -23.52   18.77
   9   1  -5   10.59   24.66
  -9  -1  -5    1.50   14.26
   9   1   5    9.55   16.04
  -9  -1   5   23.39   15.30
   9   1   5   12.18   21.40
   9   1   5   -1.37   24.36
  -9  -1   5   34.55   22.50
  -9   0  -5   82.64   17.60
  -9   0  -5  117.25   49.70
   9   0  -5   21.10   29.52
   9   0  -5   48.30   21.32
   9   0   5  109.96   25.22
   9   0   5   33.31   23.87
  -9   0   5   50.87   24.59
   9   0   5   42.53   19.66
   9   0   5  127.37   38.73
   9  -1  -5    2.78   27.48
  -9   1  -5   22.30   21.84
  -9   1  -5    7.30   44.97
   9  -1  -5    1.35   18.87
  -9   1  -5    6.30   12.79
   9  -1   5   24.70   16.08
  -9   1   5   19.05   22.25
   9  -1   5    7.19   16.22
   9  -1   5   -6.41   31.67
   9  -1   5    1.12   21.93
  -9   2  -5   16.04   42.53
  -9   2  -5   37.09   21.36
   9  -2  -5  -24.46   19.52
  -9   2  -5   -2.56   11.86
  -9   2  -5   13.45   15.82
  -9   2   5   -4.90   21.61
   9  -2   5    3.54   15.27
   9  -2   5   23.06   16.39
   9  -2   5    9.52   29.55
   9  -2   5    6.90   22.91
  -9   3  -5   20.24   17.21
  -9   3  -5   45.34   36.67
  -9   3  -5   53.49   22.07
   9  -3  -5   35.54   21.29
   9  -3   5   38.79   26.49
   9  -3   5   38.18   17.96
   9  -3   5   45.85   18.12
  -9   3   5   86.46   24.27
   9  -3   5   26.28   31.74
   9  -4  -5   43.55   26.53
  -9   4  -5   21.93   41.07
   9  -4  -5   17.56   34.71
  -9   4  -5  -29.80   22.33
  -9   4  -5   -2.85   19.34
  -9   4   5   35.32   26.73
   9  -4   5   23.61   18.12
   9  -4   5   34.99   17.86
   9  -4   5    3.85   26.16
   9  -4   5    3.97   32.84
  -9   5  -5  326.41   44.42
  -9   5  -5  244.64   48.18
   9  -5   5  246.58   62.42
   9  -5   5  183.43   60.27
   9  -5   5  260.94   52.10
   9  -5   5  230.52   50.67
  -9   6  -5   51.54   27.28
   9  -6   5   60.92   32.31
   9  -6   5  113.20   45.34
   9  -7   5  214.06   49.56
   9  -7   5  145.84   60.18
  10   6  -5  303.84   62.23
  10   5  -5  -13.61   24.90
  10   5  -5   -1.63   30.44
 -10  -5   5    2.08   20.88
  10   4  -5  528.70   73.51
  10   4  -5  413.44   85.50
 -10  -4   5  420.32   70.39
  10   3  -5  -17.24   29.14
  10   3  -5    1.54   22.78
 -10  -3   5   10.57   17.51
  10   3   5    1.59   21.96
  10   2  -5   30.48   21.27
 -10  -2  -5   27.97   18.00
  10   2  -5   45.01   29.14
  10   2   5   32.59   28.61
  10   2   5   19.51   18.42
 -10  -2   5   30.41   28.73
  10   2   5   37.15   30.32
 -10  -2   5   34.29   18.99
 -10  -1  -5  117.02   31.60
  10   1  -5  197.60   34.33
  10   1  -5  218.73   41.50
  10   1   5  197.18   40.90
  10   1   5  192.57   37.75
 -10  -1   5  158.44   34.99
 -10  -1   5  133.97   32.00
  10   1   5  151.67   32.19
 -10   0  -5   29.84   56.57
  10   0  -5  -25.75   21.05
  10   0  -5   -7.83   31.85
 -10   0  -5   -6.16   13.26
  10   0   5    1.91   42.95
 -10   0   5  -14.39   26.83
  10   0   5    9.52   17.86
  10   0   5  -33.42   19.81
  10   0   5    5.18   25.56
  10  -1  -5  107.49   32.72
 -10   1  -5  165.14   63.34
 -10   1  -5  201.85   36.15
  10  -1   5  211.65   39.77
  10  -1   5  196.62   32.67
 -10   1   5  235.61   34.10
  10  -1   5  193.05   32.95
  10  -1   5  184.34   43.45
 -10   2  -5  -16.66   17.88
 -10   2  -5   11.62   15.39
 -10   2  -5   17.93   49.29
 -10   2  -5   12.76   25.29
  10  -2  -5    9.50   21.39
 -10   2   5   42.00   26.47
  10  -2   5   21.81   17.91
  10  -2   5  -10.28   32.91
  10  -2   5   25.04   26.07
  10  -2   5   23.22   19.29
  10  -3  -5    3.44   23.63
  10  -3  -5    9.54   30.06
 -10   3  -5   16.05   40.79
 -10   3  -5   10.73   19.35
 -10   3  -5   36.12   25.58
 -10   3   5   33.37   26.96
  10  -3   5   -9.67   17.29
  10  -3   5   -1.36   19.25
  10  -3   5    2.76   28.17
  10  -3   5  -64.49   30.92
  10  -4  -5  349.56   73.52
 -10   4  -5  280.48   89.24
 -10   4  -5  316.56   66.51
  10  -4  -5  333.14   80.99
 -10   4  -5  438.21   61.63
  10  -4   5  289.90   70.08
 -10   4   5  401.06   67.85
  10  -4   5  401.23   86.62
  10  -4   5  431.73   69.83
  10  -4   5  414.99   80.91
 -10   5  -5   39.05   23.37
 -10   5  -5    1.77   25.89
  10  -5   5   44.81   30.22
  10  -5   5  -44.31   17.83
  10  -5   5  -34.93   35.98
  10  -5   5   -1.66   22.73
 -10   6  -5  277.33   57.50
 -10   6  -5  327.37   51.96
  10  -6   5  281.23   67.71
  10  -6   5  286.61   73.18
  10  -7   5  143.57   56.20
  10  -7   5  137.59   45.98
  11   6  -5  105.46   33.18
 -11  -6   5   -5.41   27.27
  11   5  -5   17.83   38.75
  11   5  -5   65.05   29.32
 -11  -5   5  104.63   26.72
 -11  -4   5  111.95   29.10
  11   3  -5   96.54   30.93
 -11  -3  -5  194.64   31.14
  11   3  -5  113.64   38.33
 -11  -3   5  143.28   28.06
 -11  -3   5   99.32   35.46
  11   3   5  105.79   29.55
  11   2  -5  322.98   72.92
 -11  -2  -5  413.55   61.56
  11   2  -5  353.46   64.61
 -11  -2   5  480.07   61.69
  11   2   5  322.67   61.74
 -11  -2   5  304.84   63.36
  11   2   5  403.96   75.76
 -11  -1  -5   27.92   19.92
  11   1  -5   33.07   36.71
  11   1  -5   33.42   23.40
 -11  -1   5   24.10   28.48
  11   1   5   35.83   22.42
 -11  -1   5   15.74   19.51
  11   1   5   24.46   29.71
  11   0  -5 1057.51  170.03
 -11   0  -5  930.00  171.55
  11   0  -5  985.93  187.60
 -11   0  -5 1009.02  161.41
  11   0   5  942.73  164.31
 -11   0   5 1079.94  155.31
  11  -1  -5   37.18   23.62
 -11   1  -5   18.13   18.24
 -11   1  -5   -1.85   29.77
  11  -1   5   73.96   29.76
  11  -1   5   15.53   22.11
 -11   1   5   16.00   29.35
  11  -2  -5  323.06   64.00
 -11   2  -5  313.52   62.09
 -11   2  -5  295.99   63.13
 -11   2  -5  228.25   90.32
 -11   2  -5  246.35   54.98
 -11   2   5  340.80   61.75
  11  -2   5  323.31   61.11
  11  -2   5  409.41   74.35
 -11   3  -5   68.96   27.65
  11  -3  -5   72.95   31.89
  11  -3  -5   81.69   40.98
 -11   3  -5   48.26   26.25
 -11   3  -5   89.84   52.13
 -11   3  -5  100.14   33.36
  11  -3   5  112.15   28.78
  11  -3   5  137.09   39.34
 -11   3   5  114.35   34.69
  11  -3   5  112.18   25.96
  11  -3   5   98.67   38.29
  11  -4  -5  144.32   42.38
 -11   4  -5  100.18   33.20
 -11   4  -5   95.83   51.14
 -11   4  -5   69.88   26.07
  11  -4  -5   86.06   34.11
  11  -4   5   95.46   40.88
  11  -4   5   89.14   28.86
  11  -4   5   71.21   26.44
  11  -4   5  117.38   41.09
 -11   4   5  206.72   39.43
 -11   5  -5  139.57   55.27
 -11   5  -5   74.28   32.61
 -11   5  -5   74.41   25.40
  11  -5  -5   85.55   44.88
  11  -5   5   85.86   41.26
  11  -5   5   80.04   27.96
  11  -5   5   73.39   24.61
  11  -5   5   46.96   38.88
 -11   6  -5  123.24   34.01
  11  -6   5  -24.93   42.81
  11  -6   5    2.13   28.58
  11  -6   5   14.02   35.94
  11  -7   5   33.93   38.48
  11  -7   5   27.17   51.34
  11  -8   5   68.93   46.74
  11  -8   5  153.40   61.38
  12   5  -5    8.14   30.71
 -12  -5   5   62.55   25.62
  12   4  -5   29.73   36.67
  12   4  -5   -3.90   30.81
 -12  -4   5   32.99   25.50
  12   3  -5   69.69   40.21
  12   3  -5  136.08   31.84
 -12  -3  -5   15.59   26.25
 -12  -3   5   43.12   36.74
 -12  -3   5   31.59   26.96
  12   3   5   14.68   26.61
  12   2  -5  -41.26   38.51
  12   2  -5    3.78   28.71
 -12  -2  -5   35.69   23.47
  12   2   5  -21.50   31.86
 -12  -2   5   11.29   34.17
  12   2   5   11.79   24.72
 -12  -2   5  -30.69   23.80
 -12  -1  -5  208.97   54.16
  12   1  -5  420.12   66.04
  12   1  -5  268.41   56.20
  12   1   5  295.74   52.61
  12   1   5  213.84   65.70
 -12  -1   5  300.42   56.41
 -12  -1   5  278.63   54.42
 -12   0  -5    1.96   20.89
  12   0  -5  -59.23   40.11
 -12   0  -5    4.33   33.74
  12   0  -5   15.14   28.26
  12   0   5   -3.28   32.55
 -12   0   5   38.37   33.62
 -12   0   5  -30.09   26.18
  12   0   5    3.47   26.17
 -12   1  -5  295.81   58.84
 -12   1  -5  308.95   53.71
  12  -1  -5  122.22   56.00
  12  -1   5  350.48   53.59
 -12   1   5  310.25   56.01
  12  -1   5  317.37   64.68
 -12   2  -5   -3.74   19.70
 -12   2  -5   25.08   32.83
  12  -2  -5  -28.61   29.17
 -12   2   5    6.74   35.62
  12  -2   5   13.13   33.22
  12  -2   5  -33.80   25.57
  12  -3  -5   93.11   41.04
  12  -3  -5   83.26   31.97
 -12   3  -5   33.12   24.48
 -12   3  -5   52.74   32.22
  12  -3   5   90.71   40.43
 -12   3   5   49.77   36.12
  12  -3   5  101.79   26.85
 -12   4  -5   48.05   32.04
  12  -4  -5  -22.67   40.56
  12  -4  -5   -6.77   31.58
 -12   4   5   30.38   35.39
  12  -4   5   20.73   24.70
  12  -4   5   44.32   37.25
 -12   5  -5   38.63   34.26
  12  -5   5  -22.67   40.73
 -12   5   5   -9.11   41.02
  12  -5   5   16.83   28.09
 -12   6  -5   -7.35   35.01
  12  -6   5  -44.49   41.28
  12  -6   5   13.12   29.44
  12  -7   5   -2.07   41.94
  12  -8   5  -59.26   51.99
  13   6  -5  -21.85   36.06
 -13  -6   5   -9.44   28.63
  13   5  -5   89.82   41.40
 -13  -5   5   11.05   29.98
  13   3   5   17.75   28.25
 -13  -2  -5  169.07   37.40
  13   2   5  171.37   37.99
  13   2   5  171.41   47.63
 -13  -1  -5  -43.19   39.76
  13   1  -5   -2.14   32.12
 -13  -1  -5   20.69   20.21
  13   1   5   -9.39   28.17
  13   1   5   -9.39   37.38
 -13  -1   5   -2.53   41.47
 -13   0  -5  177.43   39.96
 -13   0  -5  204.84   49.00
  13   0   5  246.87   41.49
  13   0   5  248.80   51.33
 -13   0   5  188.43   48.28
 -13   1  -5   -4.18   22.37
 -13   1  -5   26.23   39.50
  13  -1   5    9.71   26.69
  13  -1   5  -10.82   36.71
 -13   2  -5  169.80   44.74
 -13   2  -5  124.21   37.04
  13  -2   5  217.31   40.95
  13  -2   5  135.30   50.12
 -13   3  -5   21.57   23.55
 -13   3  -5  -22.73   35.13
  13  -3   5   44.39   28.59
  13  -3   5   50.57   41.05
  13  -4  -5   33.70   45.47
 -13   4  -5   42.56   35.23
 -13   4  -5   58.08   27.54
  13  -4   5   59.21   30.10
  13  -4   5   50.91   43.11
  13  -5  -5  178.80   42.41
 -13   5  -5   42.55   35.20
  13  -5  -5   22.48   52.65
  13  -5   5  -10.38   45.48
 -13   5   5  203.61   43.16
  13  -5   5  -18.22   30.73
 -13   6  -5  -65.54   43.97
  13  -6   5  -18.32   33.62
  13  -6   5  -17.17   45.28
  13  -7   5  172.47   58.38
  14   6  -5   52.73   42.04
 -14  -6   5  106.41   39.98
  14   5  -5    4.94   35.04
  14   5  -5    2.35   47.20
 -14  -5   5   -9.18   31.62
  14   4  -5   38.45   48.45
  14   4  -5   23.82   34.48
 -14  -4   5   14.06   43.41
 -14  -4   5    2.94   30.53
  14   3  -5  -51.01   48.21
  14   3  -5   16.41   38.19
 -14  -3  -5  -36.58   34.30
  14   3   5    6.42   30.67
 -14  -3   5   11.24   46.39
 -14  -3   5  -17.09   32.08
  14   2  -5    2.29   34.83
 -14  -2  -5    5.40   26.32
  14   2  -5 -170.83   48.36
  14   2   5  -39.03   42.54
 -14  -2   5   14.01   45.36
 -14  -2   5   30.19   30.60
  14   1  -5  -70.70   49.58
  14   1  -5   35.49   35.31
 -14  -1   5    2.76   29.14
 -14  -1   5  -22.68   41.09
  14   0  -5   20.96   36.62
 -14   0   5   41.69   43.00
  14  -1  -5   -2.31   33.87
 -14   1   5  -13.84   41.36
  14  -2  -5    2.32   32.49
 -14   2  -5   -2.65   43.39
  14  -2  -5   -9.33   49.73
 -14   2   5   33.11   42.18
  14  -3  -5  -59.09   52.06
  14  -3  -5  -38.99   34.08
 -14   3  -5   -2.55   41.79
 -14   3   5  -37.37   43.60
  14  -4  -5   65.96   40.82
  14  -4  -5   61.05   53.23
 -14   4   5   11.99   45.10
  14  -5  -5   -2.91   39.20
  14  -5  -5  -18.81   51.90
 -14   5   5  -40.74   46.85
  14  -7   5   -7.44   54.85
  14  -8   5    2.64   51.59
  15   6  -5    2.91   40.57
 -15  -6   5   34.00   38.03
  15   5  -5   32.73   39.93
  15   5  -5   25.86   51.41
 -15  -5   5   90.44   51.83
 -15  -5   5    3.40   35.57
  15   4  -5   24.89   52.31
  15   4  -5  -34.24   39.82
 -15  -4   5    9.83   34.38
 -15  -4   5   12.47   52.57
  15   3  -5   43.43   39.20
 -15  -3  -5    6.66   34.89
  15   3  -5   66.37   52.29
  15   3   5  122.78   35.21
 -15  -3   5    9.57   37.38
 -15  -3   5   37.37   50.83
 -15  -2  -5   48.61   54.11
  15   2  -5   15.23   39.85
  15   2  -5   -4.80   53.73
 -15  -2  -5   -8.94   31.99
 -15  -2   5  -37.08   33.69
  15   2   5  -20.41   35.60
 -15  -2   5  -28.06   52.14
  15   2   5   59.67   44.79
 -15  -1  -5   38.60   52.53
  15   1  -5    2.59   39.27
 -15  -1  -5   19.84   31.30
  15   1  -5   19.21   52.73
 -15  -1   5   -3.13   47.99
 -15  -1   5   -3.05   35.84
  15   1   5  -37.00   33.16
  15   1   5    2.28   44.43
 -15   0  -5   96.14   31.63
  15   0  -5    2.56   38.52
 -15   0  -5   37.16   51.72
  15   0   5  -54.20   47.00
  15   0   5  -14.17   34.61
 -15   0   5   -6.16   47.47
 -15   1  -5   34.50   30.08
 -15   1  -5   66.91   49.42
  15  -1  -5   33.22   35.95
  15  -1  -5   58.85   53.99
  15  -1   5  -56.47   38.76
 -15   1   5   15.27   47.44
  15  -1   5   10.97   41.30
  15  -2  -5  -22.35   52.04
  15  -2  -5   63.98   37.52
 -15   2  -5  -47.28   48.87
 -15   2  -5    7.91   29.03
 -15   2   5   12.26   44.85
  15  -2   5   31.10   48.32
  15  -2   5  -61.50   34.76
 -15   3  -5  -37.61   29.80
 -15   3  -5   -5.72   46.08
  15  -3  -5   13.37   37.88
  15  -3  -5   76.00   58.34
  15  -3   5    9.58   34.99
  15  -3   5   -6.74   48.71
 -15   3   5  -34.88   45.53
  15  -4  -5   88.86   43.16
 -15   4  -5  -16.76   33.13
  15  -4  -5  -18.79   57.93
 -15   4  -5  -19.62   44.67
  15  -4   5   42.11   33.92
  15  -4   5  -13.85   49.23
 -15   4   5   22.99   51.13
 -15   5  -5  -11.56   45.25
  15  -5  -5  -25.87   58.86
 -15   5  -5   27.25   31.00
  15  -5  -5    9.33   41.15
 -15   5   5   18.33   48.27
  15  -5   5  -28.49   51.47
  15  -5   5   -4.79   35.31
 -15   6  -5  -55.31   48.97
  15  -6   5    2.59   34.55
  15  -6   5  -10.29   54.89
 -15   7  -5   19.01   58.53
  15  -7   5   30.02   58.11
 -16  -6   5  -10.40   55.42
 -16  -6   5    4.19   42.11
  16   5  -5   21.06   45.77
  16   5  -5    2.85   57.07
 -16  -5   5   41.70   52.94
 -16  -5   5  -53.14   43.47
  16   4  -5   34.75   42.24
  16   4  -5    2.74   53.08
 -16  -4   5    6.93   50.63
 -16  -4   5   -3.66   33.83
 -16  -3  -5   -7.32   35.76
  16   3  -5   33.51   38.28
  16   3  -5    2.72   55.58
 -16  -3   5  -17.87   37.75
 -16  -3   5   13.83   54.70
  16   3   5    5.12   36.22
  16   2  -5   -2.63   56.18
  16   2  -5    2.82   40.56
 -16  -2  -5   78.15   63.14
 -16  -2  -5   -6.61   33.11
 -16  -2   5  -27.65   38.48
 -16  -2   5  -58.90   55.46
  16   2   5   54.98   38.82
  16   2   5   18.41   55.08
 -16  -1  -5   -3.62   58.22
 -16  -1  -5   -9.45   36.65
  16   1  -5  -19.85   45.14
 -16  -1   5  -31.14   56.95
  16   1   5   76.46   37.98
  16   1   5    5.02   50.95
  16   0  -5   25.25   39.03
 -16   0  -5   61.29   35.72
 -16   0  -5   20.80   51.88
  16   0   5  -27.35   52.10
  16   0   5  -12.92   37.18
 -16   0   5    3.41   53.77
  16  -1  -5   18.52   58.47
 -16   1  -5   18.01   31.82
 -16   1  -5   51.33   54.17
  16  -1  -5   45.04   42.59
  16  -1   5   66.13   41.28
 -16   1   5  -13.53   51.34
  16  -1   5   24.24   49.50
 -16   1   5  -44.14   36.75
 -16   2  -5  -39.49   52.94
 -16   2  -5   -2.93   30.20
  16  -2  -5  -42.42   58.96
  16  -2  -5  -65.62   43.57
 -16   2   5   -3.39   52.74
  16  -2   5   32.71   40.42
  16  -2   5  -31.64   52.39
 -16   2   5  -50.02   38.83
 -16   3  -5    2.98   31.73
 -16   3  -5  -28.67   51.18
  16  -3  -5    5.87   39.26
  16  -3  -5 -118.23   57.77
  16  -3   5   -8.00   41.33
 -16   3   5    3.50   51.01
  16  -3   5   19.83   53.45
 -16   4  -5  -33.81   31.54
  16  -4  -5  -47.34   60.21
 -16   4  -5   28.16   46.63
  16  -4  -5    3.13   45.86
  16  -4   5  -25.23   54.25
  16  -4   5   -2.62   38.95
 -16   4   5   79.55   54.74
 -16   5  -5   26.21   35.62
 -16   5  -5   12.83   50.31
  16  -5  -5  -20.13   46.72
  16  -5  -5  -94.81   69.78
  16  -5   5  -42.31   39.32
 -16   5   5   75.65   61.88
  16  -5   5 -133.87   63.71
 -16   6  -5  -20.18   51.26
  16  -6   5   19.59   42.86
  16  -6   5    5.47   59.63
 -16   7  -5   24.22   57.65
  16  -7   5   35.31   64.81
  17   6  -5   28.67   51.87
 -17  -6   5   31.03   58.20
  17   5  -5   34.65   60.14
  17   5  -5   30.02   47.11
 -17  -5   5   -7.73   60.58
 -17  -5   5   21.27   45.79
  17   4  -5  -57.23   56.78
  17   4  -5   -6.30   47.15
 -17  -4   5  -11.55   63.45
 -17  -4   5    8.17   42.68
  17   3  -5   98.59   66.30
  17   3  -5  -70.80   47.89
 -17  -3  -5 -142.29   81.93
 -17  -3  -5    8.09   43.91
 -17  -3   5  -26.83   59.08
  17   3   5   -8.48   40.55
 -17  -3   5   15.97   41.38
 -17  -2  -5   -7.34   41.71
  17   2  -5   -2.90   55.32
  17   2  -5  132.09   48.19
 -17  -2  -5  123.23   75.23
 -17  -2   5    7.79   40.74
  17   2   5  -35.94   43.92
 -17  -2   5  -65.78   59.72
  17   2   5    2.90   61.77
 -17  -1  -5  -12.19   68.12
 -17  -1  -5  -20.99   40.94
  17   1  -5   -3.10   43.70
  17   1   5   33.23   45.19
  17   1   5  -66.39   59.91
 -17  -1   5 -102.81   64.42
  17   0  -5  -46.28   42.97
 -17   0  -5   37.58   40.97
 -17   0  -5    3.90   63.06
  17   0   5  -94.55   45.51
  17   0   5  -57.44   58.28
 -17   0   5  -48.86   54.97
  17  -1  -5   14.38   56.25
 -17   1  -5   -3.36   35.36
 -17   1  -5  -60.83   65.18
  17  -1  -5  -37.10   44.39
 -17   1   5   14.95   56.34
  17  -1   5  -96.93   59.33
 -17   1   5   37.44   39.65
  17  -1   5  -57.24   42.98
 -17   2  -5   21.97   60.65
 -17   2  -5   -3.29   34.85
  17  -2  -5 -103.35   59.30
  17  -2  -5  -37.83   49.33
 -17   2   5    3.87   40.54
  17  -2   5  101.81   45.92
 -17   2   5    7.50   57.51
  17  -2   5  -90.75   58.45
  17  -3  -5   80.91   63.83
  17  -3  -5  -67.76   45.15
 -17   3  -5   75.90   38.04
 -17   3  -5   60.38   55.75
  17  -3   5   40.31   60.21
 -17   3   5   77.53   63.04
  17  -3   5   11.83   40.99
  17  -4  -5  -41.24   45.98
  17  -4  -5  -95.88   67.38
 -17   4  -5  -20.86   55.79
 -17   4  -5   -6.83   38.13
  17  -4   5   78.75   43.21
 -17   4   5    7.97   58.43
  17  -4   5   13.68   60.76
 -17   5  -5   -7.11   54.89
  17  -5  -5    3.65   49.95
 -17   5  -5   21.39   37.40
  17  -5  -5    3.46   76.16
 -17   5   5  -34.91   63.79
  17  -5   5  -26.23   44.50
  17  -5   5  -14.14   62.23
 -17   6  -5  -11.84   42.44
  17  -6  -5   69.47   88.91
 -17   6  -5   22.19   54.90
  17  -6   5   -5.87   60.66
  17  -6   5   -6.10   44.02
  18   6  -5  -72.03   63.62
 -18  -6   5  -30.56   75.72
 -18  -6   5  -73.35   63.08
  18   5  -5   -3.49   72.74
  18   5  -5  -25.70   58.32
 -18  -5   5  -14.32   50.44
 -18  -5   5  146.78   75.32
  18   4  -5   79.76   70.93
  18   4  -5  -24.18   51.55
 -18  -4   5   -4.56   47.20
 -18  -4   5   98.76   71.04
 -18  -3  -5  -63.67   97.05
  18   3  -5   -3.28   70.62
 -18  -3  -5   49.48   48.35
  18   3  -5    3.41   51.61
 -18  -3   5   22.25   49.40
  18   3   5   -9.35   44.43
 -18  -3   5   51.27   68.86
 -18  -2  -5  104.62   80.39
  18   2  -5  -54.77   51.72
 -18  -2  -5  -40.96   45.35
 -18  -2   5  -30.41   50.35
 -18  -2   5   55.47   67.41
  18   2   5  -60.94   64.23
  18   2   5   39.47   44.21
 -18  -1  -5  -23.34   40.77
 -18  -1  -5  -45.74   78.12
  18   1  -5 -142.21   50.28
 -18  -1   5   41.96   66.89
  18   1   5   -3.03   44.56
  18   1   5   42.68   58.78
  18   0  -5   13.50   48.12
  18   0  -5    3.12   68.77
 -18   0  -5   35.16   75.20
 -18   0  -5   19.05   40.18
 -18   0   5   16.61   65.03
  18   0   5   -6.46   45.58
  18   0   5  -62.95   59.54
 -18   0   5  -16.47   45.89
  18  -1  -5   67.94   52.58
 -18   1  -5   -7.51   41.40
 -18   1  -5  -12.67   71.30
  18  -1  -5    3.11   71.00
 -18   1   5  -48.91   62.79
  18  -1   5  -26.27   49.03
  18  -1   5 -193.17   63.01
 -18   1   5  -12.45   45.16
  18  -2  -5   22.05   65.61
  18  -2  -5   17.37   50.90
 -18   2  -5   33.18   41.02
 -18   2  -5   56.81   67.22
  18  -2   5    3.30   48.19
  18  -2   5  -23.26   63.11
 -18   2   5   -8.33   60.22
 -18   2   5   16.90   40.34
 -18   3  -5   23.59   61.70
 -18   3  -5   51.51   39.75
  18  -3  -5   -3.22   68.32
  18  -3  -5  -96.32   51.55
  18  -3   5    9.79   45.14
 -18   3   5  -27.52   50.47
  18  -3   5  -58.74   63.83
 -18   3   5  -43.04   61.12
 -18   4  -5   11.33   41.90
 -18   4  -5  -19.35   61.23
  18  -4  -5   -6.79   77.54
  18  -4  -5  -45.39   51.52
 -18   4   5    4.41   63.32
  18  -4   5   64.87   48.53
  18  -4   5   12.02   59.57
  18  -5  -5  187.82   59.70
  18  -5  -5    7.51   79.58
 -18   5  -5   11.83   47.59
 -18   5  -5   71.19   63.86
  18  -5   5  104.59   70.84
  18  -5   5  -22.54   48.37
 -18   5   5   19.27   69.19
 -18   6  -5 -102.14   68.80
  18  -6  -5   46.41   93.26
 -18   6  -5  -34.14   49.43
  18  -6   5  119.96   72.93
  18  -6   5  -60.11   47.68
  19   6  -5   75.93   63.71
 -19  -6   5  -14.73   78.36
 -19  -6   5  -94.83   70.33
  19   5  -5 -228.56   81.60
  19   5  -5 -149.70   59.86
 -19  -5   5  -19.44   79.71
 -19  -5   5 -134.46   60.71
  19   4  -5    3.67   72.76
  19   4  -5  -80.32   57.62
 -19  -4   5   -5.08   57.43
 -19  -4   5  105.44   82.41
  19   3  -5  -95.82   56.98
  19   3  -5   -3.59   76.82
 -19  -3  -5   52.97  103.69
  19   3   5  -72.58   47.48
 -19  -3   5  -81.78   82.50
 -19  -3   5  -49.70   47.99
  19   2  -5  -22.36   59.04
 -19  -2  -5   39.63   87.81
 -19  -2  -5   27.54   49.91
  19   2   5   13.21   47.83
  19   2   5    3.56   68.51
 -19  -2   5   42.40   81.02
 -19  -1  -5  -60.60   44.19
 -19  -1  -5 -134.33   91.66
  19   1  -5 -180.44   66.96
  19   1   5    3.34   51.79
  19   1   5  110.99   72.35
 -19  -1   5  -32.49   78.53
  19   0  -5 -152.94   72.34
 -19   0  -5   12.74   45.71
 -19   0  -5  -34.43   81.11
  19   0  -5 -181.45   65.48
  19   0   5  -24.63   51.76
 -19   0   5  -59.46   54.77
  19   0   5   19.70   71.15
 -19   0   5 -114.77   77.40
 -19   1  -5  -54.55   51.33
  19  -1  -5 -272.80   83.02
 -19   1  -5    4.67   80.96
  19  -1   5 -107.74   59.54
 -19   1   5  -87.12   53.52
 -19   1   5  -18.16   73.90
  19  -1   5  -58.81   75.01
  19  -2  -5    3.43   72.64
  19  -2  -5   15.31   54.09
 -19   2  -5   20.81   45.09
 -19   2  -5  -49.48   73.84
 -19   2   5    4.63   70.22
  19  -2   5  -18.07   51.17
 -19   2   5 -145.68   57.20
  19  -2   5   73.90   63.93
 -19   3  -5   64.62   69.36
 -19   3  -5  -28.84   47.74
  19  -3  -5    3.92   56.24
  19  -3  -5    3.47   70.89
 -19   3   5 -100.56   57.49
 -19   3   5  -14.36   69.63
  19  -3   5   57.71   71.92
  19  -3   5   21.61   49.63
  19  -4  -5 -119.94   83.01
 -19   4  -5  -12.60   47.32
 -19   4  -5  -60.30   69.74
  19  -4  -5   95.66   60.67
 -19   4   5  -73.59   72.68
  19  -4   5  -12.98   71.51
 -19   4   5   46.30   65.25
  19  -4   5  -43.19   52.02
 -19   5  -5   48.11   69.21
  19  -5  -5   61.67   61.71
 -19   5  -5  -39.45   50.56
  19  -5  -5   35.90   91.32
  19  -5   5   57.20   54.48
  19  -5   5  -66.37   76.28
 -19   5   5 -107.22   80.71
  19  -6  -5   23.06   96.30
 -19   6  -5   28.02   53.83
 -20  -3  -5 -160.71  131.02
  20   3   5   15.18   54.62
  20   2  -5   65.38   64.94
 -20  -2  -5  -32.28  101.51
 -20  -2  -5  -25.86   54.48
  20   2   5  162.14   82.80
 -20  -2   5 -162.22   87.10
  20   2   5  -90.35   54.26
 -20  -1  -5   14.57   50.80
 -20  -1  -5   58.72   96.08
  20   1  -5   -8.07   65.96
  20   1   5   29.77   71.53
  20   1   5   11.29   54.36
 -20  -1   5  102.61   86.55
  20   0  -5  -89.10   61.50
 -20   0  -5    9.48   46.67
 -20   0  -5 -153.29   90.09
 -20   0   5  -56.14   53.32
  20   0   5   26.76   59.06
  20   0   5    3.60   73.32
 -20   0   5  -66.29   79.95
  20  -1  -5 -199.42   64.07
 -20   1  -5  -37.45   49.30
 -20   1  -5   62.16   83.36
 -20   1   5    5.08   50.03
 -20   1   5   -5.08   78.83
  20  -1   5   14.32   74.45
  20  -1   5   35.02   58.18
  20  -2  -5   -3.71   68.52
 -20   2  -5   34.81   80.74
  20  -2  -5   -4.24   60.20
 -20   2  -5  -23.26   53.11
  20  -2   5   23.80   52.40
 -20   2   5  -51.69   82.33
  20  -2   5   -7.10   76.86
  20  -3  -5    8.67   62.00
 -20   3  -5   -4.82   77.47
 -20   3  -5   46.20   50.27
  20  -3   5   39.56   55.97
  20  -3   5  -24.39   72.39
 -20   3   5  -21.30   78.32
 -20   4  -5  -37.25   54.74
 -20   4  -5   -4.79   78.53
  20  -4   5  -12.05   58.62
  20  -4   5  -35.33   76.82
 -20   5  -5   14.52   51.81
 -20   5  -5  -57.82   79.14
  20  -5   5   11.96   59.12
   0   0  -6    0.86   12.78
   0   0   6   19.34    8.25
   0   0   6   11.81   10.76
  -1   0  -6    0.93   13.22
   1   0  -6    6.91   11.13
   0   1  -6   -4.21   11.77
  -1   0   6    4.65    7.75
   0  -1   6    5.29    9.01
   1   0   6   -4.92   11.14
   1   0   6   -3.92    8.26
   0  -1   6   -3.01    6.73
  -1   1  -6  205.35   43.93
   1   1  -6  224.38   43.36
   1   1  -6  217.65   36.68
   1  -1   6  245.37   42.00
   1  -1   6  222.00   40.64
  -1  -1   6  207.35   40.84
  -1  -1   6  186.93   32.18
  -1   2  -6   23.85   13.98
   2   1  -6   20.49    6.82
   2   1  -6   30.59    8.21
   2   1  -6   19.26   12.10
  -2  -1   6   45.63   10.70
  -2  -1   6   31.73    6.49
  -2  -1   6   42.70    8.61
   1  -2   6   33.23    9.11
   1  -2   6   28.34   12.52
  -2   0  -6  635.98   86.63
   2   0  -6  428.18   87.99
   2   0   6  220.24   81.35
   0  -2   6  588.15   83.96
   0  -2   6  448.95   82.52
   2   0   6  411.77   87.29
  -2   0   6  415.17   65.37
   1   2  -6   26.95    5.71
  -2   1  -6   23.94   15.87
   1   2  -6   28.86    7.08
   1   2  -6   37.89    6.92
   2  -1   6   32.05    5.59
  -1  -2   6   17.06   10.48
   2  -1   6   60.59   13.78
  -1  -2   6   20.34    7.84
  -1  -2   6   15.05    4.93
   2   2  -6 2300.78  448.82
   2   2  -6 2255.24  365.88
  -2   2  -6 2110.49  453.89
   2   2  -6 2264.24  402.03
  -2  -2   6 2571.19  433.10
  -2  -2   6 2216.02  419.15
   2  -2   6 2298.77  430.20
   3   2  -6  277.80   60.86
   3   2  -6  359.46   54.63
   3   2  -6  242.87   49.83
  -3  -2   6  291.81   56.96
   2  -3   6  273.45   62.73
   2  -3   6  277.89   62.19
  -3  -2   6  376.89   57.77
   3   1  -6  114.99   36.38
   3   1  -6  123.95   36.43
   3   1  -6  195.65   33.24
  -1   3  -6  178.18   29.84
  -3  -1   6  232.29   36.03
  -3  -1   6  200.00   29.75
  -3  -1   6  208.33   36.04
   1  -3   6  221.68   37.90
   1  -3   6  158.32   34.30
   3   0  -6    2.19    8.37
   0   3  -6   -1.42    6.55
  -3   0  -6   -1.13   18.42
   3   0  -6    3.37    6.46
   0  -3   6    0.54    6.19
  -3   0   6    0.58    6.05
  -3   0   6   -5.27    8.41
   3   0   6   -2.88   11.02
   0  -3   6   -2.90   12.07
   3   0   6   -6.76   14.42
   3  -1  -6  204.90   37.15
   1   3  -6  190.67   29.89
  -3   1  -6  153.27   40.99
  -1  -3   6  183.28   33.96
   3  -1   6  187.90   30.79
  -1  -3   6  145.82   38.02
   3  -1   6  163.85   36.27
   3  -1   6  164.78   36.48
   2   3  -6  326.50   63.38
   2   3  -6  326.83   49.97
  -3   2  -6  297.56   63.57
  -3   2  -6  324.38   48.83
   2   3  -6  307.43   56.11
   3  -2   6  330.52   54.19
   3  -2   6  329.00   60.65
  -2  -3   6  326.64   59.38
  -2  -3   6  328.69   50.98
   3  -2   6  333.64   58.77
  -2  -3   6  268.88   62.57
   3  -2   6  308.73   60.33
   3   3  -6   -0.54    7.29
  -3   3  -6    6.67    6.35
   3   3  -6    7.86    6.25
   3   3  -6    2.60    8.83
   3  -3   6   -3.66   16.83
  -3  -3   6    2.23   12.89
  -3  -3   6    6.01    5.45
   3  -3   6    0.35    7.22
   4   3  -6  234.20   50.12
   4   3  -6  268.98   43.22
  -3   4  -6  267.34   39.40
   3  -4   6  224.55   48.12
   3  -4   6  278.20   44.44
  -4  -3   6  257.51   47.90
   4   2  -6  967.26  141.21
   4   2  -6  937.51  174.96
  -4  -2   6  951.16  170.74
  -4  -2   6  953.23  149.24
  -4  -2   6  768.14  164.55
   4   1  -6  253.18   52.63
   4   1  -6  273.72   55.93
   4   1  -6  243.19   49.78
   1  -4   6  257.63   60.65
  -4  -1   6  239.61   54.48
  -4  -1   6  267.96   45.35
  -4  -1   6  290.30   53.21
  -4   0  -6    2.74    5.26
   0   4  -6   -0.81    8.60
  -4   0  -6   35.01   23.95
   4   0  -6   13.20    8.40
   4   0  -6    4.60   10.81
   4   0   6   -2.12   12.75
  -4   0   6    2.06    9.82
  -4   0   6    7.34    9.07
   4   0   6    5.25   17.81
   0  -4   6    3.34   15.15
   0  -4   6    9.88    7.97
   1   4  -6  258.53   44.87
  -4   1  -6  264.50   47.68
   4  -1  -6  331.79   54.97
   4  -1  -6  265.78   49.94
  -4   1  -6  318.32   60.77
   4  -1   6  336.74   46.97
   4  -1   6  304.39   54.40
  -4   1   6  355.75   43.34
   4  -1   6  263.15   55.16
  -4   2  -6 1003.87  161.03
   4  -2   6  866.76  152.09
   4  -2   6  763.57  173.29
  -4   3  -6  204.35   38.14
   4  -3   6  244.36   43.43
   4  -3   6  228.64   50.68
  -4   4  -6  179.16   30.64
   4   4  -6  133.90   33.76
   4  -4   6  198.53   42.99
   4  -4   6  175.22   34.04
  -4  -4   6  209.23   30.26
   4  -4   6  180.15   36.90
   5   4  -6  310.90   67.40
  -4   5  -6  336.67   50.95
   4  -5   6  188.52   72.24
  -5  -4   6  389.68   53.57
   4  -5   6  329.81   60.45
   3  -5   6  988.05  168.49
  -5  -3   6 1009.87  169.35
   3  -5   6 1068.72  191.80
   5   2  -6  280.02   59.23
  -5  -2   6  288.97   58.68
   2  -5   6  335.05   69.85
  -1   5  -6  386.47   60.52
   5   1   6   -1.32   70.10
  -5   0  -6    5.54   28.86
  -5   0  -6    3.92    6.96
   5   0   6   11.51   22.02
   5   0   6   -1.15   15.51
   5   0   6    4.38   10.33
   5   0   6   -0.63    7.99
  -5   1  -6  355.57   81.55
  -5   1  -6  451.62   63.40
   5  -1   6  409.06   63.12
   5  -1   6  399.03   71.91
   5  -2  -6  353.64   62.50
  -5   2  -6  314.57   50.54
   5  -2   6  244.79   61.51
  -5   2   6  380.12   48.52
   5  -2   6  356.65   52.41
  -5   3  -6 1019.70  136.81
   5  -3   6  828.27  162.79
   5  -3   6  939.73  185.87
   5  -3   6 1064.33  156.56
  -5   4  -6  298.97   50.35
  -5   4  -6  395.51   51.23
   5  -4   6  274.81   65.47
   5  -4   6  378.45   57.83
   5  -4   6  250.53   56.65
   5  -4   6  408.95   68.98
  -5   5  -6   -1.27   15.22
   5  -5   6    9.34   27.81
   5  -5   6   -9.63   15.02
   5  -5   6   -6.55   12.91
  -5   6  -6   92.78   19.62
   6   5  -6   22.48   19.98
   5  -6   6   77.74   36.65
   6   4  -6  334.45   69.12
   6   4  -6  331.72   59.52
   4  -6   6  342.80   74.19
   6   3  -6  160.76   38.71
  -3   6  -6  122.95   31.79
   6   3  -6  191.24   34.12
  -6  -3   6  201.79   30.89
  -6  -3   6  193.32   34.97
   6   2  -6  680.83  140.43
   6   1  -6   -0.93   16.15
   6   1  -6   -8.51   10.25
  -6  -1  -6    3.48    9.83
  -6  -1   6   -4.12   14.71
   6   0  -6   93.51   26.87
   6   0  -6   93.12   20.93
  -6   0   6  106.89   21.04
   6  -1  -6   -7.93   12.18
   6  -1  -6   -1.92   16.74
   6  -1   6    0.71    9.53
  -6   1   6  -17.56   14.71
  -6   2  -6  683.17  117.24
   6  -2  -6  795.58  139.24
   6  -2   6  719.25  120.92
  -6   3  -6  123.36   45.96
  -6   3  -6  137.90   31.20
  -6   3  -6  150.36   29.93
   6  -3   6  187.52   34.98
   6  -3   6  222.82   41.82
   6  -3   6  171.22   31.98
  -6   4  -6  513.05   52.68
   6  -4   6  414.88   58.87
   6  -4   6  405.92   70.07
  -6   5  -6  131.32   23.49
   6  -5   6   97.40   21.57
  -6   6  -6   27.53   17.41
   6  -6   6   24.24   16.81
   6  -6   6   21.14   21.53
   6  -6   6   33.18   32.13
   6  -7   6   17.41   35.47
   7   5  -6   61.19   23.14
   7   5  -6   13.71   18.81
  -7  -5   6   20.53   15.48
   7   4  -6   79.40   24.81
   7   4  -6   41.87   19.61
  -7  -4   6   98.09   17.41
   7   3  -6  233.96   41.18
   7   3  -6  211.27   47.71
  -7  -3   6  245.45   41.32
  -7  -3   6  282.16   38.44
   7   2  -6   72.01   30.91
   7   2  -6  157.01   27.02
  -7  -2   6  131.12   24.58
  -7  -2   6   79.09   26.68
  -7  -1  -6   41.74   12.74
   7   1  -6    7.98   14.32
   7   1  -6   21.52   22.25
   7   1   6   11.18   12.74
   7   1   6   36.28   23.97
  -7  -1   6   27.81   17.09
   7   1   6   47.67   17.83
   7   0  -6   -1.09   19.32
  -7   0  -6    8.66   10.69
   7   0  -6   10.47   14.63
   7   0   6    8.09   16.44
   7   0   6  -17.88   11.72
   7   0   6   10.08   18.42
  -7   0   6   -1.23   15.53
  -7   1  -6    5.63    9.70
   7  -1  -6   49.57   14.63
   7  -1  -6    3.27   20.21
   7  -1   6   17.30   12.81
   7  -1   6  147.23   28.24
  -7   1   6    8.77   16.37
   7  -1   6   32.80   18.05
   7  -1   6   60.08   17.62
   7  -2  -6   78.57   33.15
  -7   2  -6  103.37   42.16
   7  -2  -6  181.11   28.74
  -7   2  -6  173.56   25.99
  -7   2  -6  105.20   24.87
   7  -2   6  126.68   28.53
  -7   2   6  136.51   27.39
   7  -2   6  157.48   30.67
   7  -2   6  153.86   24.29
   7  -2   6  137.42   35.08
   7  -3  -6  266.83   42.41
  -7   3  -6   -4.17   60.34
   7  -3  -6  288.43   49.19
  -7   3  -6   69.31   37.96
  -7   3  -6  204.05   37.51
   7  -3   6  217.61   39.26
   7  -3   6  164.85   49.55
   7  -3   6  196.69   42.53
   7  -3   6  226.14   51.33
  -7   3   6  235.49   38.89
  -7   4  -6   40.32   18.95
  -7   4  -6   36.79   20.96
   7  -4   6   69.76   24.63
   7  -4   6   91.73   19.40
   7  -4   6   69.01   19.44
   7  -4   6   62.73   32.97
  -7   5  -6   40.29   18.17
  -7   5  -6   49.61   19.41
   7  -5   6   19.90   20.76
   7  -5   6   46.03   18.30
   7  -5   6   27.99   32.75
   7  -5   6    9.31   16.90
  -7   6  -6  -12.99   21.22
   7  -6   6    5.84   21.41
   7  -6   6   53.21   37.63
   7  -6   6  -14.91   17.71
   7  -7   6   86.56   43.32
   8   6  -6    9.10   22.82
   8   5  -6   33.61   21.10
   8   5  -6   70.95   26.69
  -8  -5   6   18.87   16.67
   8   4  -6   29.69   19.80
   8   4  -6   18.37   23.29
  -8  -4   6    7.55   14.70
   8   3  -6    7.35   16.62
   8   3  -6    2.29   21.09
  -8  -3   6   16.38   12.60
   8   2  -6  147.50   24.60
   8   2  -6   69.23   29.97
  -8  -2   6  107.13   21.76
  -8  -2   6  162.06   26.59
   8   2   6   79.81   23.65
   8   1  -6  -15.66   25.48
   8   1  -6   -8.14   16.95
  -8  -1  -6    6.99   13.51
   8   1   6  -11.02   27.64
  -8  -1   6  -15.40   20.77
   8   1   6  -10.68   13.58
   8   0  -6  127.05   22.88
  -8   0  -6  100.14   19.45
   8   0  -6   84.40   30.21
  -8   0  -6   48.68   50.50
   8   0   6  105.71   27.52
  -8   0   6  136.08   24.96
   8   0   6   72.56   20.05
  -8   1  -6    1.78   44.16
  -8   1  -6    2.19   11.54
   8  -1  -6  -13.86   25.13
  -8   1  -6  -23.80   17.95
   8  -1  -6   -1.24   16.75
   8  -1   6   -2.05   14.83
   8  -1   6  -11.94   19.99
   8  -1   6   19.35   30.73
  -8   1   6    1.43   19.23
   8  -1   6  -47.66   21.55
  -8   2  -6  116.12   44.90
   8  -2  -6   95.54   30.63
  -8   2  -6  121.99   21.22
   8  -2  -6   92.23   24.92
  -8   2  -6   64.00   23.48
  -8   2  -6   86.72   24.39
   8  -2   6   70.49   23.49
   8  -2   6  110.56   22.03
   8  -2   6   91.18   28.34
  -8   2   6   88.92   24.68
   8  -2   6  133.37   32.74
  -8   3  -6  -17.78   36.57
  -8   3  -6   12.45   16.21
   8  -3  -6    3.12   19.17
  -8   3  -6   13.96   18.74
   8  -3   6   56.97   30.67
   8  -3   6   18.96   20.95
   8  -3   6   20.67   14.56
   8  -3   6   35.60   16.45
  -8   3   6    6.79   19.13
  -8   4  -6   22.04   38.40
  -8   4  -6   14.75   19.18
  -8   4  -6   12.47   18.22
   8  -4   6  -17.66   32.19
   8  -4   6   -1.16   15.91
   8  -4   6   10.93   21.93
   8  -4   6   11.76   15.85
  -8   5  -6   53.62   21.14
  -8   5  -6   42.79   21.30
   8  -5   6   46.91   19.80
   8  -5   6   40.19   18.62
   8  -5   6    8.04   24.11
   8  -5   6   21.73   35.79
  -8   6  -6   12.10   21.39
   8  -6   6   39.61   40.26
   8  -6   6   44.32   19.33
   8  -6   6   45.07   26.27
   8  -7   6   78.79   45.06
   8  -7   6    1.51   29.46
   9   6  -6  222.21   44.02
   9   5  -6   16.27   28.01
   9   5  -6   58.71   24.12
  -9  -5   6   20.60   18.11
   9   4  -6   27.42   21.43
   9   4  -6    5.47   25.64
  -9  -4   6   10.17   15.48
   9   3  -6    7.78   25.85
   9   3  -6    4.20   20.49
  -9  -3   6    3.11   15.56
   9   2  -6   84.92   22.95
   9   2  -6   85.76   30.42
  -9  -2  -6   50.54   21.65
  -9  -2   6   49.24   19.59
   9   2   6   60.35   20.62
  -9  -2   6  104.80   26.69
   9   1  -6    6.66   18.01
  -9  -1  -6  -10.85   14.63
   9   1  -6    4.02   26.62
  -9  -1   6    4.82   22.41
   9   1   6   60.85   27.63
   9   1   6   -7.49   21.41
   9   1   6    1.21   16.68
  -9  -1   6  -13.10   16.13
   9   0  -6   21.63   30.19
  -9   0  -6    6.99   13.64
   9   0  -6   10.81   19.41
  -9   0  -6   -2.19   50.72
   9   0   6    9.44   21.85
  -9   0   6   -8.06   23.48
   9   0   6  -26.35   37.68
   9   0   6   17.73   15.91
   9   0   6    1.29   22.03
  -9   1  -6   19.53   22.54
  -9   1  -6   -7.57   12.42
  -9   1  -6   -8.01   49.97
   9  -1  -6  -17.98   18.63
   9  -1  -6   -2.82   27.56
   9  -1   6   14.30   16.92
   9  -1   6    2.20   18.56
  -9   1   6    8.12   23.80
   9  -1   6   21.23   21.65
   9  -1   6   15.40   34.01
  -9   2  -6   56.63   20.79
  -9   2  -6  131.07   47.42
  -9   2  -6   74.61   23.45
   9  -2  -6   82.34   23.85
  -9   2  -6  102.54   19.41
   9  -2  -6  115.36   31.75
   9  -2   6   90.46   20.91
   9  -2   6   95.56   26.72
  -9   2   6   47.59   26.14
   9  -2   6   51.36   23.15
   9  -2   6   55.15   34.61
  -9   3  -6    5.40   20.54
  -9   3  -6   33.80   39.57
   9  -3  -6   28.61   23.44
  -9   3  -6    5.24   17.88
  -9   3   6   34.85   25.99
   9  -3   6   35.49   18.16
   9  -3   6   62.08   32.43
   9  -3   6   -2.37   23.05
   9  -3   6    4.72   15.44
  -9   4  -6   18.11   20.84
  -9   4  -6   29.69   42.64
  -9   4  -6    5.86   20.52
  -9   4   6   13.66   28.91
   9  -4   6    1.26   25.34
   9  -4   6    8.88   17.43
   9  -4   6  -14.61   17.10
   9  -4   6   21.65   35.95
  -9   5  -6   31.39   23.59
  -9   5  -6   65.99   23.31
   9  -5   6   35.03   21.15
   9  -5   6   27.33   19.20
   9  -5   6   32.67   38.58
   9  -5   6   43.03   27.27
  -9   6  -6  227.03   38.62
   9  -6   6  175.19   47.90
   9  -6   6  217.01   57.19
   9  -6   6  166.37   41.29
   9  -7   6  412.39   77.83
   9  -7   6  259.45   68.14
  10   6  -6   54.66   31.74
 -10  -6   6  113.52   29.87
  10   5  -6  415.56   72.39
  10   5  -6  338.91   84.31
 -10  -5   6  322.03   67.22
  10   4  -6   21.32   31.11
  10   4  -6   47.99   23.92
 -10  -4   6   39.82   19.48
  10   3  -6  416.49   60.39
  10   3  -6  447.20   69.34
 -10  -3   6  288.02   57.69
 -10  -3   6  244.09   55.96
 -10  -2  -6   58.27   22.22
  10   2  -6   95.75   25.42
  10   2  -6   36.58   32.24
  10   2   6  123.09   33.20
  10   2   6   56.51   29.92
 -10  -2   6   10.96   28.79
 -10  -2   6   82.60   20.87
  10   2   6   45.33   21.44
 -10  -1  -6   51.71   18.74
  10   1  -6   28.79   29.41
  10   1  -6    7.58   22.83
  10   1   6   25.57   27.17
  10   1   6   29.20   26.29
  10   1   6   24.27   19.14
 -10  -1   6   51.06   19.62
 -10  -1   6   49.21   29.30
 -10   0  -6  209.97   75.45
 -10   0  -6   94.41   39.61
  10   0  -6  225.41   43.06
  10   0  -6  250.59   52.12
 -10   0   6  315.17   43.23
  10   0   6  291.19   62.77
  10   0   6  224.02   45.54
  10   0   6  260.31   39.36
  10   0   6  214.85   49.85
 -10   1  -6   37.45   15.76
  10  -1  -6   26.96   30.75
 -10   1  -6   60.53   55.45
 -10   1  -6   29.02   25.82
  10  -1  -6   18.52   22.22
  10  -1   6    1.53   36.68
  10  -1   6   35.76   19.78
  10  -1   6   26.29   20.54
 -10   1   6   16.39   25.86
  10  -1   6    1.27   25.08
 -10   2  -6   82.01   26.93
 -10   2  -6   35.52   19.08
 -10   2  -6   41.17   50.55
 -10   2  -6   24.06   20.99
  10  -2  -6   44.03   24.49
  10  -2  -6   44.72   33.48
  10  -2   6   76.41   21.97
 -10   2   6   56.39   29.46
  10  -2   6   39.85   28.99
  10  -2   6   66.96   20.86
  10  -2   6   64.40   36.32
 -10   3  -6  324.17   55.74
  10  -3  -6  233.38   61.77
 -10   3  -6  302.88   61.13
 -10   3  -6  295.69   52.70
 -10   3  -6  270.18   78.35
  10  -3   6  360.01   69.52
  10  -3   6  338.96   55.85
  10  -3   6  288.99   58.81
  10  -3   6  319.70   66.92
 -10   3   6  402.03   59.01
 -10   4  -6   59.33   25.43
  10  -4  -6   20.79   27.68
  10  -4  -6   -1.92   34.30
 -10   4  -6  -15.48   22.73
 -10   4  -6    7.25   46.77
  10  -4   6  -16.66   35.49
  10  -4   6  -21.62   29.71
 -10   4   6   20.98   28.80
  10  -4   6   17.38   18.69
  10  -4   6   40.18   19.82
 -10   5  -6  446.86   94.19
 -10   5  -6  323.94   59.79
 -10   5  -6  415.65   67.45
  10  -5   6  392.05   69.97
  10  -5   6  387.90   85.12
  10  -5   6  395.40   69.63
  10  -5   6  392.01   81.58
 -10   6  -6  104.63   30.54
 -10   6  -6  122.42   35.56
  10  -6   6   36.60   32.06
  10  -6   6  128.74   38.39
  10  -6   6   90.16   28.44
  10  -6   6  106.08   47.71
  10  -7   6   59.29   35.91
  10  -7   6   62.31   52.85
  10  -8   6  304.29   67.34
  10  -8   6  217.18   75.75
  11   6  -6   47.57   30.05
 -11  -6   6   79.08   30.10
  11   5  -6   77.82   37.75
  11   5  -6   16.67   25.61
 -11  -5   6   -9.03   23.72
  11   4  -6    1.79   32.95
  11   4  -6    1.69   43.38
 -11  -4   6   61.49   25.76
  11   3  -6  118.01   32.16
  11   3   6   96.11   30.25
 -11  -3   6  134.81   37.36
 -11  -3   6   96.08   27.02
 -11  -2  -6   -2.16   20.41
  11   2  -6   -6.88   26.70
  11   2  -6   34.53   35.21
  11   2   6   20.49   31.26
  11   2   6   13.98   21.89
 -11  -2   6   35.00   34.24
 -11  -2   6   31.78   20.36
  11   1  -6  954.91  135.17
  11   1  -6 1057.42  147.77
 -11  -1  -6  669.65  133.19
 -11  -1   6  924.39  125.33
  11   1   6  860.14  155.75
  11   1   6  605.27  128.18
  11   0  -6   32.65   24.53
 -11   0  -6   -8.33   68.87
  11   0  -6    1.73   35.76
 -11   0  -6    7.06   17.55
 -11   0  -6    5.74   30.15
  11   0   6  -18.48   21.27
  11   0   6  -14.84   29.24
 -11   0   6  -20.47   30.43
  11  -1  -6  568.87  149.55
 -11   1  -6  614.33  127.64
 -11   1  -6  841.65  174.19
  11  -1  -6  750.99  133.74
  11  -1   6  939.01  155.29
 -11   1   6  818.09  121.99
  11  -1   6  708.36  128.34
  11  -1   6  689.77  140.15
  11  -1   6  724.08  149.66
 -11   2  -6    5.31   20.36
 -11   2  -6  -32.34   55.85
 -11   2  -6    8.11   17.32
  11  -2  -6    1.79   24.63
 -11   2  -6   36.30   30.42
  11  -2   6   -4.62   22.69
  11  -2   6  -42.55   36.65
  11  -2   6   40.18   29.39
  11  -2   6    1.06   18.81
 -11   2   6   85.23   29.98
 -11   3  -6   81.14   56.71
 -11   3  -6   82.78   26.14
 -11   3  -6  100.82   33.06
  11  -3  -6  111.57   33.23
 -11   3  -6  113.73   26.76
 -11   3   6   99.99   35.77
  11  -3   6   99.60   27.07
  11  -3   6  111.56   37.70
  11  -3   6   90.82   26.81
  11  -3   6   45.03   41.03
 -11   4  -6   48.98   29.09
  11  -4  -6  148.15   32.90
 -11   4  -6   78.43   52.26
 -11   4  -6  116.49   25.90
  11  -4  -6   75.30   40.44
  11  -4   6   79.63   36.58
  11  -4   6   60.82   23.42
 -11   4   6   34.60   34.55
  11  -4   6   58.91   41.90
  11  -4   6  120.95   26.21
 -11   5  -6    3.60   24.55
 -11   5  -6  -45.44   57.27
 -11   5  -6   11.50   29.10
  11  -5   6   18.57   41.86
  11  -5   6   -2.45   20.86
  11  -5   6   -6.77   22.97
  11  -5   6    6.62   35.11
 -11   6  -6   20.38   35.01
 -11   6  -6   69.88   30.64
  11  -6   6   20.32   48.74
  11  -6   6   42.08   24.34
  11  -6   6   73.36   38.04
  11  -6   6   75.90   29.97
  11  -7   6   32.34   57.83
  11  -7   6  152.79   46.17
  11  -8   6  154.33   59.98
  11  -8   6   22.08   42.68
  12   5  -6   -1.94   27.89
  12   5  -6    8.12   30.85
 -12  -5   6   -2.49   24.81
  12   4  -6  168.32   43.21
  12   4  -6  111.61   33.23
 -12  -4   6  152.25   39.00
 -12  -4   6  111.43   29.34
  12   3  -6   63.02   40.87
  12   3  -6   21.63   29.04
 -12  -3   6  -13.58   21.35
 -12  -3   6    9.25   36.26
  12   3   6   44.75   25.26
  12   2  -6  387.10   78.32
 -12  -2  -6  370.48   67.66
  12   2  -6  320.95   69.10
  12   2   6  334.92   81.52
 -12  -2   6  470.04   67.03
 -12  -2   6  316.24   70.35
  12   2   6  424.03   65.89
  12   1  -6    1.84   39.20
 -12  -1  -6    6.33   18.86
  12   1  -6   31.35   27.55
 -12  -1   6  -27.13   25.38
  12   1   6  -23.32   24.61
  12   1   6  -34.08   34.56
 -12  -1   6  -62.89   36.99
  12   0  -6  459.20   91.08
 -12   0  -6  464.72   91.97
 -12   0  -6  502.14   88.54
  12   0  -6  631.32  102.68
 -12   0   6  624.27   86.72
  12   0   6  618.97  108.24
 -12   0   6  419.72   93.11
  12   0   6  503.69   86.61
  12  -1  -6    7.92   39.27
  12  -1  -6   -1.91   26.61
 -12   1  -6    5.58   20.68
 -12   1  -6    8.43   32.96
  12  -1   6   -5.24   24.16
  12  -1   6  -23.85   32.01
 -12   1   6  -31.73   34.92
 -12   2  -6  245.17   67.58
  12  -2  -6  429.03   70.29
 -12   2  -6  384.44   68.77
  12  -2   6  347.94   66.18
  12  -2   6  415.08   81.14
 -12   2   6  377.11   67.71
 -12   3  -6  -34.11   31.75
 -12   3  -6   14.88   20.89
  12  -3  -6    2.08   28.09
 -12   3   6   36.76   35.67
  12  -3   6  -18.71   23.90
  12  -3   6  -14.86   34.46
  12  -4  -6   -2.14   41.00
 -12   4  -6   39.21   32.22
  12  -4  -6   44.06   34.74
 -12   4  -6   68.01   27.97
 -12   4   6  151.07   39.92
  12  -4   6   76.16   42.73
  12  -4   6   81.31   28.33
 -12   5  -6  -31.62   32.12
  12  -5   6   41.68   25.84
  12  -5   6   35.25   39.37
 -12   6  -6   35.97   34.65
  12  -6   6   17.20   40.49
  12  -6   6   25.41   29.02
  12  -7   6  -58.03   45.33
  13   6  -6   73.23   41.34
  13   6  -6   86.94   49.99
 -13  -6   6   49.39   34.14
  13   5  -6  100.04   46.39
  13   5  -6   -2.25   29.43
 -13  -5   6   13.79   29.30
  13   4  -6   -2.07   44.51
 -13  -4   6   -2.65   22.10
  13   3   6  109.86   31.35
 -13  -2  -6   81.76   24.23
  13   2   6  -12.97   25.49
  13   2   6   -2.03   36.75
 -13  -1  -6  160.68   52.89
  13   1   6  246.59   52.45
  13   1   6  278.24   66.96
 -13   0  -6    8.83   24.28
 -13   0  -6   29.56   39.70
  13   0   6  -17.48   27.56
  13   0   6  -23.84   37.49
 -13   1  -6  368.35   54.50
 -13   1  -6  289.21   57.44
  13  -1   6  290.88   52.17
  13  -1   6  316.41   66.15
 -13   2  -6  -35.33   36.75
 -13   2  -6   -2.05   22.11
  13  -2   6  -47.84   30.87
  13  -2   6  -37.30   37.66
 -13   3  -6   70.27   38.37
 -13   3  -6   79.48   28.64
  13  -3   6   72.45   29.57
  13  -3   6   14.61   41.28
 -13   4  -6   46.20   25.00
 -13   4  -6   11.00   33.23
  13  -4  -6    9.31   42.00
  13  -4   6   -7.51   27.30
  13  -4   6  -17.00   39.87
  13  -5  -6   15.86   52.81
 -13   5  -6    2.33   36.55
  13  -5   6  -14.13   43.71
 -13   5   6   23.86   40.80
  13  -5   6   76.65   29.41
 -13   6  -6  118.32   45.82
  13  -6   6   42.44   49.01
  13  -6   6   73.34   34.49
  13  -7   6   -4.39   48.57
  14   6  -6  -12.95   39.34
  14   6  -6    2.56   50.86
 -14  -6   6   10.15   34.97
  14   5  -6   52.34   39.21
  14   5  -6  107.61   49.11
 -14  -5   6   42.88   32.91
 -14  -5   6   67.36   46.23
  14   4  -6    2.28   48.32
  14   4  -6  -92.51   39.02
 -14  -4   6   14.26   45.34
 -14  -4   6  -20.73   34.45
  14   3  -6    2.22   47.01
  14   3  -6   16.60   36.31
 -14  -3   6  -31.78   32.29
 -14  -3   6  -42.78   46.87
  14   3   6   25.93   31.70
 -14  -2  -6   22.35   30.25
  14   2  -6  -37.61   34.69
  14   2  -6   30.95   45.75
 -14  -2   6   45.73   45.05
 -14  -2   6   11.21   28.57
  14   2   6   33.36   44.63
  14   1  -6   -2.22   48.85
  14   1  -6   33.41   35.75
 -14  -1   6  -14.32   42.04
 -14  -1   6  -28.15   33.62
  14   0  -6    9.36   41.29
  14   0  -6   89.56   46.89
 -14   0   6  -51.20   35.10
 -14   0   6   36.58   44.53
 -14   1  -6   -2.69   45.70
  14  -1  -6   -2.34   34.08
 -14   1   6   -8.38   44.20
 -14   2  -6   10.57   44.07
  14  -2  -6   -7.15   36.84
 -14   2   6   -5.62   43.77
  14  -2   6   55.62   32.89
  14  -3  -6   29.80   37.46
  14  -3  -6    2.40   54.73
 -14   3  -6   32.96   44.11
 -14   3   6   -8.84   43.83
  14  -3   6   57.73   30.69
  14  -4  -6  -52.55   52.60
 -14   4  -6  -12.33   41.81
  14  -4  -6  -21.59   42.99
 -14   4   6   37.26   42.54
  14  -5  -6   -6.07   39.34
  14  -5  -6  -14.14   60.78
 -14   5   6   25.14   50.93
  15   6  -6  109.00   55.42
  15   6  -6   11.52   41.22
 -15  -6   6   22.40   37.85
  15   5  -6  -90.61   38.52
  15   5  -6   90.17   52.43
 -15  -5   6    3.12   47.90
 -15  -5   6  -27.27   37.12
  15   4  -6  184.63   44.68
  15   4  -6   67.70   54.00
 -15  -4   6   18.89   55.14
 -15  -4   6  -13.25   34.30
  15   3  -6  -15.59   40.84
  15   3  -6   66.42   52.90
  15   3   6   -2.34   33.53
 -15  -3   6    3.23   36.08
 -15  -3   6   12.65   51.38
  15   2  -6  -18.31   39.74
 -15  -2  -6  -15.34   31.85
  15   2  -6  -75.36   52.91
  15   2   6    9.76   49.03
  15   2   6  -45.24   32.72
 -15  -2   6    3.12   33.36
 -15  -2   6  -28.56   50.94
  15   1  -6    2.45   53.65
  15   1  -6  -49.75   40.96
 -15  -1  -6   17.09   31.90
 -15  -1  -6  -29.39   54.48
  15   1   6  -15.97   41.41
 -15  -1   6    6.23   36.33
  15   1   6   -2.30   33.54
 -15  -1   6   66.41   48.63
  15   0  -6   -2.44   54.00
 -15   0  -6   13.70   29.81
 -15   0  -6   62.07   53.83
  15   0  -6  -90.57   43.85
  15   0   6   -6.71   45.43
 -15   0   6   -9.37   48.32
  15   0   6    2.37   34.69
 -15   0   6  -40.36   31.95
 -15   1  -6   57.45   51.49
 -15   1  -6    5.33   29.24
  15  -1  -6   -2.58   39.89
  15  -1   6   80.38   35.90
  15  -1   6  -34.91   44.74
 -15   1   6   27.82   50.77
 -15   2  -6  -20.67   47.79
 -15   2  -6   -5.15   28.19
  15  -2  -6   -2.63   38.88
  15  -2   6  -10.85   46.29
  15  -2   6  -73.93   35.01
 -15   2   6  -24.85   46.99
  15  -3  -6 -130.33   58.68
  15  -3  -6   57.13   40.05
 -15   3  -6  -28.34   46.77
 -15   3  -6    2.60   28.64
  15  -3   6   -6.64   46.54
 -15   3   6   16.21   48.71
  15  -3   6   -2.38   35.52
 -15   4  -6   38.61   45.80
  15  -4  -6    2.93   41.46
 -15   4  -6    8.01   30.27
  15  -4  -6   13.69   57.69
  15  -4   6  -22.53   48.76
  15  -4   6    2.31   30.30
 -15   4   6   47.45   47.90
 -15   5  -6   -2.83   32.95
  15  -5  -6   99.32   64.62
  15  -5  -6   32.32   43.26
 -15   5  -6   19.92   44.54
 -15   5   6   15.38   48.02
  15  -5   6    2.34   31.85
  15  -5   6   -9.37   48.62
 -15   6  -6    6.03   44.01
  15  -6   6   39.26   53.72
  15  -6   6   65.36   37.15
  16   6  -6   61.40   61.74
  16   6  -6   98.91   48.86
 -16  -6   6  -16.59   41.77
 -16  -6   6    3.39   55.65
  16   5  -6   99.26   56.81
  16   5  -6   -9.12   48.63
 -16  -5   6   10.36   58.71
 -16  -5   6  -11.41   39.87
  16   4  -6    2.76   54.12
  16   4  -6   -2.92   43.43
 -16  -4   6   -3.70   38.21
 -16  -4   6   62.60   56.22
  16   3  -6    2.83   40.63
  16   3  -6   13.62   50.96
 -16  -3   6   62.84   54.10
  16   3   6   30.74   36.26
 -16  -3   6    3.62   36.34
 -16  -2  -6  -20.31   34.65
  16   2  -6   38.02   44.75
 -16  -2  -6   84.33   69.13
  16   2  -6   42.53   61.01
  16   2   6    2.50   36.01
  16   2   6  -16.08   53.54
 -16  -2   6    3.54   59.17
 -16  -2   6   70.04   39.84
  16   1  -6  108.78   44.78
 -16  -1  -6  146.26   58.75
  16   1  -6  -10.62   60.46
 -16  -1  -6   -3.14   34.62
  16   1   6  -82.86   51.14
 -16  -1   6    3.44   38.82
 -16  -1   6   -3.48   57.03
  16   1   6    7.65   38.04
  16   0  -6  -17.07   39.46
 -16   0  -6   39.64   29.71
 -16   0  -6  -73.11   55.55
  16   0   6  -71.19   49.28
 -16   0   6   13.73   51.18
 -16   0   6  -47.98   36.40
  16   0   6  -15.59   38.26
 -16   1  -6  -54.82   60.10
 -16   1  -6   -2.97   31.84
  16  -1  -6   19.92   39.50
  16  -1   6   80.12   41.69
  16  -1   6  -50.74   52.29
 -16   1   6    3.40   52.74
  16  -2  -6    2.90   42.50
 -16   2  -6    5.79   31.10
 -16   2  -6   26.30   53.58
  16  -2  -6    2.74   59.03
 -16   2   6  -25.13   42.46
  16  -2   6   -2.74   39.42
 -16   2   6    6.88   50.57
  16  -2   6  -49.92   50.17
  16  -3  -6  -37.30   63.08
 -16   3  -6  -20.20   30.22
 -16   3  -6   -9.51   50.55
  16  -3  -6   50.77   45.11
  16  -3   6   -4.81   50.78
 -16   3   6   10.73   50.80
  16  -3   6   34.39   39.93
 -16   4  -6  -40.14   49.09
  16  -4  -6  -31.91   45.90
 -16   4  -6   11.85   32.06
  16  -4  -6   60.45   65.87
  16  -4   6  -24.51   54.15
  16  -4   6  -30.67   39.34
 -16   4   6   48.31   56.39
  16  -5  -6  -10.43   49.37
  16  -5  -6   62.00   78.40
 -16   5  -6   50.45   49.07
 -16   5  -6  -24.58   38.18
  16  -5   6  195.57   43.72
 -16   5   6   33.32   61.43
 -16   6  -6  -26.87   34.48
 -16   6  -6   26.38   50.15
  16  -6   6  -29.84   38.46
  17   6  -6   38.87   51.27
 -17  -6   6   78.84   48.75
 -17  -6   6  -34.05   61.96
  17   5  -6   94.02   65.27
  17   5  -6    3.35   45.95
 -17  -5   6  -11.50   56.74
 -17  -5   6   51.13   46.45
  17   4  -6 -102.99   61.07
  17   4  -6  -25.51   50.76
 -17  -4   6  -15.44   65.04
 -17  -4   6    4.13   38.82
 -17  -3  -6  -85.96   80.94
  17   3  -6  -66.41   51.43
  17   3  -6    3.01   55.34
 -17  -3   6  -44.51   46.08
 -17  -3   6  -30.97   65.66
  17   3   6  -34.08   45.22
  17   2  -6   22.26   45.15
 -17  -2  -6    7.51   40.52
  17   2  -6   -2.90   64.96
 -17  -2  -6    9.06   76.98
 -17  -2   6   54.86   45.10
  17   2   6   44.31   56.04
 -17  -2   6  -27.25   58.47
  17   2   6  -46.85   41.23
 -17  -1  -6   10.46   38.08
  17   1  -6   75.44   44.99
 -17  -1  -6   45.11   62.74
  17   1  -6   86.96   63.39
  17   1   6 -107.96   54.79
 -17  -1   6    7.64   43.76
 -17  -1   6   49.77   62.58
  17   1   6   -5.57   41.21
 -17   0  -6  -23.75   39.19
  17   0  -6   56.13   45.46
 -17   0  -6   35.01   63.26
 -17   0   6    7.58   58.67
  17   0   6  -16.16   53.67
  17   0   6    2.87   43.61
  17  -1  -6  -43.75   41.40
 -17   1  -6   11.40   63.82
 -17   1  -6    3.32   36.56
 -17   1   6   40.98   59.84
  17  -1   6  -93.69   45.27
  17  -1   6    2.68   55.49
  17  -2  -6    3.20   43.87
 -17   2  -6   16.24   36.47
  17  -2  -6   82.49   65.71
 -17   2  -6   -3.64   56.48
 -17   2   6    3.81   54.60
 -17   2   6   31.26   35.63
  17  -2   6  -24.02   43.54
  17  -2   6   41.62   56.54
  17  -3  -6   -3.04   65.82
 -17   3  -6   22.51   35.35
 -17   3  -6  -91.32   60.95
  17  -3  -6    3.28   46.26
 -17   3   6   31.65   59.69
  17  -3   6  -47.09   43.80
  17  -3   6  -34.24   57.43
  17  -4  -6  -69.88   47.59
 -17   4  -6   20.62   55.51
  17  -4  -6   29.61   70.67
 -17   4  -6  -19.68   34.63
 -17   4   6  -40.94   56.17
  17  -4   6  -18.85   57.81
  17  -4   6   17.22   42.90
  17  -5  -6  -18.86   53.85
  17  -5  -6    3.57   79.44
 -17   5  -6  -10.48   54.10
 -17   5  -6   20.33   38.42
  17  -5   6   45.39   42.33
  17  -5   6  -41.35   60.90
 -17   5   6  -45.48   70.91
 -17   6  -6   32.49   42.06
  18   6  -6 -137.90   65.82
 -18  -6   6  -21.06   69.10
 -18  -6   6  -57.33   60.03
  18   5  -6  -36.55   59.55
  18   5  -6 -225.45   77.02
 -18  -5   6  -89.41   71.77
 -18  -5   6    4.79   54.49
  18   4  -6    3.33   60.39
  18   4  -6   31.38   48.87
 -18  -4   6    4.27   67.63
 -18  -4   6   -4.62   44.69
  18   3  -6    6.60   67.65
  18   3  -6   32.04   53.46
 -18  -3  -6 -109.62   93.38
 -18  -3   6   39.04   71.20
 -18  -3   6   63.20   49.54
  18   3   6    9.37   46.39
  18   2  -6  -83.23   54.19
 -18  -2  -6   40.81   76.33
 -18  -2  -6  -29.28   44.47
  18   2  -6  -38.62   70.39
 -18  -2   6   55.61   63.29
  18   2   6   -9.78   65.51
 -18  -2   6  -26.42   48.64
  18   2   6   15.19   45.24
  18   1  -6 -136.12   68.83
 -18  -1  -6  -13.85   76.33
  18   1  -6   23.95   47.83
 -18  -1  -6   62.14   43.54
  18   1   6    3.04   43.72
 -18  -1   6  -29.55   63.98
 -18  -1   6  -25.28   39.26
  18   1   6  -42.71   60.35
 -18   0  -6  -11.32   40.02
  18   0  -6  154.26   55.28
 -18   0  -6   87.39   72.67
  18   0   6   -3.17   46.07
 -18   0   6  -20.89   64.91
  18   0   6    2.95   61.39
  18  -1  -6   12.68   68.24
  18  -1  -6    3.43   45.94
 -18   1  -6  138.82   69.68
 -18   1  -6   18.53   37.98
  18  -1   6   -3.30   48.25
 -18   1   6   41.45   62.51
  18  -1   6  -61.66   66.79
  18  -2  -6    9.51   72.55
 -18   2  -6   52.51   63.51
  18  -2  -6  -10.65   50.43
 -18   2  -6   65.82   42.72
 -18   2   6   51.42   49.26
  18  -2   6   -2.89   61.17
 -18   2   6  -21.12   64.31
  18  -2   6   13.21   47.44
  18  -3  -6   61.39   50.28
 -18   3  -6  -17.96   39.12
 -18   3  -6   -3.89   62.12
  18  -3  -6   13.01   72.05
 -18   3   6   52.55   66.29
  18  -3   6   84.53   50.58
  18  -3   6   37.44   59.12
 -18   3   6   23.21   54.44
  18  -4  -6  -69.16   55.56
 -18   4  -6 -106.51   61.40
  18  -4  -6 -217.28   77.71
 -18   4  -6   -3.62   41.31
 -18   4   6   77.00   68.05
  18  -4   6  -28.75   46.23
  18  -4   6  -17.47   62.25
 -18   5  -6    7.50   41.94
  18  -5  -6   -4.12   58.69
  18  -5  -6 -318.29   90.31
 -18   5  -6   77.40   63.61
 -18   5   6  -95.18   75.12
  18  -5   6   15.77   48.92
  19   6  -6 -144.12   65.49
 -19  -6   6   -9.43   74.24
 -19  -6   6   -5.89   62.32
  19   5  -6   -4.03   55.83
  19   5  -6  265.83   81.30
 -19  -5   6  -32.39   60.89
 -19  -5   6  -57.02   78.04
  19   4  -6   -3.67   74.65
  19   4  -6    3.91   57.36
 -19  -4   6  -61.94   72.46
 -19  -4   6  -10.32   54.42
  19   3  -6    7.23   78.02
  19   3  -6   -3.87   61.84
 -19  -3  -6  132.05  109.03
 -19  -3   6   86.08   79.19
 -19  -3   6  -25.16   53.80
  19   3   6   10.38   47.71
  19   2  -6   64.62   58.49
 -19  -2  -6  154.48   48.74
  19   2  -6    3.55   77.98
 -19  -2  -6  173.27   96.36
 -19  -2   6  -14.15   74.08
  19   2   6   -3.31   49.25
 -19  -2   6  -24.46   48.54
 -19  -1  -6  -31.10   83.71
 -19  -1  -6    8.69   45.54
  19   1  -6   48.76   57.63
  19   1   6  -36.69   50.50
 -19  -1   6   -4.71   56.52
  19   1   6  -30.33   70.63
 -19  -1   6   -4.65   75.35
 -19   0  -6  137.52   80.97
 -19   0  -6   63.00   44.09
  19   0  -6 -183.89   60.17
  19   0   6   32.43   67.55
  19   0   6  -46.03   46.85
 -19   0   6  -78.62   69.79
 -19   1  -6  -46.47   77.24
  19  -1  -6    3.42   72.81
 -19   1  -6   20.63   46.02
  19  -1  -6 -124.00   59.00
  19  -1   6  -74.01   68.00
 -19   1   6  -60.02   52.29
  19  -1   6   78.89   52.59
 -19   1   6  133.79   71.22
  19  -2  -6   74.18   50.89
  19  -2  -6    3.46   76.11
 -19   2  -6  -53.28   72.55
 -19   2  -6   16.31   44.64
  19  -2   6  -22.33   68.89
  19  -2   6  -36.19   52.08
 -19   2   6  108.20   73.94
 -19   2   6    4.71   55.19
 -19   3  -6   32.18   45.72
  19  -3  -6    3.53   79.91
  19  -3  -6  -19.96   54.77
 -19   3  -6  -85.51   68.61
  19  -3   6   21.53   55.26
 -19   3   6   15.20   55.33
  19  -3   6   12.52   67.69
 -19   3   6   38.72   67.56
 -19   4  -6   29.54   70.59
 -19   4  -6   -4.02   43.47
  19  -4  -6  -56.99   85.49
  19  -4  -6    4.23   60.95
 -19   4   6   65.47   74.97
  19  -4   6   22.22   68.99
 -19   4   6   58.41   57.27
  19  -4   6   35.51   49.84
  19  -5  -6  -99.94   71.51
  19  -5  -6    4.24   92.66
 -19   5   6  -66.68   79.37
 -20  -2  -6  -19.75  109.16
 -20  -2  -6   42.09   55.71
  20   2  -6  -12.39   60.84
  20   2   6  -10.86   52.07
 -20  -2   6  -15.61   88.19
  20   1  -6  135.22   66.90
 -20  -1  -6  -17.57   99.20
 -20  -1  -6  -73.14   52.76
 -20  -1   6  -77.20   85.93
  20   1   6   29.52   52.76
  20   1   6   48.59   78.78
 -20   0  -6   43.63   87.77
  20   0  -6   32.90   60.13
 -20   0  -6  -60.58   52.68
 -20   0   6  -20.38   81.29
  20   0   6    3.84   50.70
  20   0   6  -32.17   72.98
 -20   1  -6  -18.40   49.98
 -20   1  -6  -10.24   84.15
  20  -1  -6    4.18   58.84
  20  -1   6  -35.16   55.91
 -20   1   6  -56.24   80.40
  20  -1   6   42.15   72.87
 -20   2  -6   54.09   79.79
 -20   2  -6   -9.11   46.81
  20  -2  -6  -81.43   58.41
  20  -2   6  -35.66   55.80
 -20   2   6  -21.00   78.16
  20  -2   6  -45.53   70.02
 -20   3  -6   23.54   76.55
 -20   3  -6  -18.13   48.53
  20  -3   6   79.30   78.15
  20  -3   6  -19.71   55.06
 -20   4  -6  -22.46   48.92
 -21   2  -6   75.49   92.65
  21  -2   6  -17.31   65.45
 -21   3  -6  -10.42   87.72
  21  -3   6  -39.29   64.02
   0   0  -7    1.01   15.67
   0   0   7   -6.77    9.58
   0   0   7   -7.84   12.74
   0   1  -7   81.75   27.71
  -1   0  -7   90.72   28.17
   1   0  -7  116.33   26.59
   0  -1   7   96.53   25.15
   0  -1   7  138.21   24.79
  -1   0   7  118.66   23.93
   1   0   7  109.49   23.88
   1   0   7  170.83   27.89
   1   1  -7    3.93   13.78
   1   1  -7    1.10    5.37
  -1   1  -7   -3.78   15.51
  -1  -1   7   -0.34    3.84
  -1  -1   7   -3.17    8.10
  -1  -1   7   -6.56   11.40
   1  -1   7   -5.44   12.70
   1  -1   7    8.71    9.30
   2   1  -7  106.89   17.38
   2   1  -7  100.82   23.35
  -1   2  -7  128.42   23.95
   2   1  -7  117.98   19.27
  -2  -1   7  106.83   15.29
  -2  -1   7   76.35   20.19
  -2  -1   7  112.59   21.61
   1  -2   7   64.30   22.01
   1  -2   7   79.86   19.92
  -2   0  -7  -11.78   19.81
   2   0  -7    2.44    7.56
   0   2  -7    2.21   13.11
   0  -2   7   -1.39   12.02
   2   0   7   -1.02   15.46
  -2   0   7    5.30    9.70
   0  -2   7   -0.64    7.80
   1   2  -7  106.42   16.91
   1   2  -7   41.43   21.66
   1   2  -7   79.56   18.80
  -2   1  -7   92.98   26.81
  -1  -2   7   79.76   19.19
  -1  -2   7   76.93   21.29
  -1  -2   7   80.92   15.55
   2  -1   7  113.90   22.93
   2   2  -7    1.36    4.79
   2   2  -7    1.03    6.48
  -2   2  -7    6.35   16.88
   2   2  -7    1.16   12.29
   2   2  -7   -8.96    6.44
  -2  -2   7    0.80    5.46
  -2  -2   7    0.77    3.49
  -2  -2   7   -6.17    6.86
   2  -2   7   17.96   14.81
  -2  -2   7   -4.95   10.99
   3   2  -7 1767.83  315.36
   3   2  -7 1749.51  261.73
   3   2  -7 1761.88  296.48
  -3  -2   7 1726.67  267.42
  -3  -2   7 1315.25  315.13
   3   1  -7  136.82   30.92
   3   1  -7  144.09   25.59
  -1   3  -7  120.88   23.82
   3   1  -7   84.58   28.70
  -3  -1   7  119.49   22.78
  -3  -1   7  205.75   29.55
   1  -3   7  168.34   31.26
  -3  -1   7  142.90   28.77
   1  -3   7  103.33   27.03
  -3   0  -7 1021.21  217.02
   0   3  -7 1087.87  176.79
   3   0  -7  972.58  197.16
   3   0   7 1190.14  217.68
   0  -3   7 1139.69  208.02
   3   0   7 1258.75  205.29
  -3   0   7 1247.30  172.57
  -3   0   7 1136.25  208.57
  -3   1  -7  173.77   36.10
   1   3  -7  138.44   23.32
   1   3  -7  109.97   24.59
  -1  -3   7  104.12   30.02
   3  -1   7  201.65   23.71
   3  -1   7  115.86   29.13
  -1  -3   7  139.16   26.70
   3  -1   7  177.35   30.91
  -3   2  -7 2000.69  322.69
  -3   2  -7 1687.12  277.69
   2   3  -7 1442.14  291.71
  -3   2  -7 1818.88  262.78
   2   3  -7 1736.49  337.38
   2   3  -7 1782.36  263.04
   3  -2   7 1698.51  316.81
   3  -2   7 1660.53  316.44
  -2  -3   7 1800.76  311.40
   3  -2   7 1632.61  279.61
  -2  -3   7 1526.61  304.97
   3   3  -7   -6.76    9.99
   3   3  -7    7.33    7.64
  -3   3  -7   -0.38    6.11
   3   3  -7    0.57    7.49
  -3  -3   7   14.94   14.48
  -3  -3   7   -4.88    6.77
   3  -3   7    1.23    7.43
  -3  -3   7    4.83    5.63
   3  -3   7    1.97    4.79
  -3   4  -7  959.56  131.59
   4   3  -7  851.78  168.22
   4   3  -7  899.68  128.17
   4   3  -7  772.73  146.99
   3  -4   7 1032.21  170.75
  -4  -3   7  866.35  137.68
  -4  -3   7  880.37  154.98
   3  -4   7  940.74  168.11
   4   2  -7   31.09   13.42
   4   2  -7   27.17    9.91
   4   2  -7   35.94   13.10
   4   2  -7   25.78    7.55
  -4  -2   7   31.85    7.67
  -4  -2   7   33.00   13.00
  -4  -2   7   12.08   10.88
  -4  -2   7   26.70    8.29
   4   1  -7  160.75   30.00
   4   1  -7  134.85   34.00
   4   1  -7  176.77   33.90
  -4  -1   7  155.07   32.64
  -4  -1   7  184.74   32.17
  -4  -1   7  188.66   27.31
   4   0  -7    6.39    9.51
  -4   0  -7    2.80   27.77
   4   0  -7   -4.18   12.45
  -4   0   7   -9.18    9.55
  -4   0   7   -3.77   11.58
   0  -4   7  -11.84   17.18
   4   0   7    2.36   21.75
  -4   1  -7  149.51   27.92
   4  -1  -7  192.74   29.85
   1   4  -7  203.03   26.75
  -4   1  -7   -1.28   42.11
  -1  -4   7  149.26   31.44
   4  -1   7  135.90   32.35
  -1  -4   7  135.25   36.79
  -4   1   7  156.89   26.01
   4  -1   7  158.42   27.36
  -4   2  -7   23.86    6.98
   2   4  -7   24.31    9.67
  -4   2  -7   12.88    8.99
  -2  -4   7   15.89   17.10
  -2  -4   7   26.40    9.54
   4  -2   7   29.98    7.79
   4  -2   7   30.94   10.28
   3   4  -7  854.03  152.74
  -4   3  -7  913.24  131.00
   4  -3   7  786.39  175.15
   4  -3   7  863.49  150.83
  -3  -4   7  938.44  166.06
   4  -3   7  880.24  155.39
   4  -3   7  995.32  161.40
   4   4  -7   15.68   10.88
  -4   4  -7    1.16   14.55
   4   4  -7   -0.76   12.10
  -4  -4   7   13.11    6.58
   4  -4   7   11.17   11.81
   4  -4   7    6.58   10.75
   4  -4   7    2.36   23.66
  -4  -4   7   14.38   16.43
  -4   5  -7  676.52   98.46
   5   4  -7  636.50  131.34
   4  -5   7  483.15  135.99
   4  -5   7  663.67  125.45
  -5  -4   7  515.11  121.32
  -5  -4   7  764.69  105.10
   3  -5   7  465.73  113.54
  -5  -3   7  456.53   94.89
   3  -5   7  571.71   96.46
   5   2  -7  775.62  205.57
  -5  -2   7 1133.80  196.11
  -5  -2   7 1060.36  196.04
   2  -5   7  924.85  224.43
  -1   5  -7   26.54   11.79
   1  -5   7    3.27   22.92
   1  -5   7    7.23   12.00
  -5  -1   7    9.18    5.44
   5   0   7 1784.88  331.29
   0  -5   7 2245.44  376.08
   5  -1  -7   11.72   15.18
  -5   1  -7    0.70    7.08
   5  -1   7   19.15    7.73
   5  -1   7    8.86   11.19
  -5   2  -7 1356.22  180.35
  -5   2  -7 1218.64  169.43
   5  -2  -7 1200.12  205.12
   5  -2   7 1024.23  176.36
   5  -2   7 1290.93  204.10
   5  -2   7 1149.21  196.57
  -5   3  -7  519.98   83.16
  -5   3  -7  601.58  108.97
  -5   3  -7  457.88   80.75
   5  -3   7  564.80   96.21
   5  -3   7  545.50   90.80
   5  -3   7  512.88  101.99
  -5   4  -7  668.57   98.38
   5  -4   7  684.67  114.47
   5  -4   7  671.28  112.54
   5  -4   7  609.68  131.57
   5   5  -7   -3.84   13.32
  -5   5  -7  -10.81   15.34
   5  -5   7    0.74   15.03
   5  -5   7    2.94   14.39
   5  -5   7  -15.12   28.39
   6   5  -7   80.34   21.79
  -5   6  -7   63.81   22.81
   5  -6   7   83.76   22.60
   5  -6   7   71.22   36.79
  -6  -5   7  113.99   19.60
   6   4  -7  414.70   80.73
  -4   6  -7  385.56   60.33
   6   4  -7  416.65   68.97
  -6  -4   7  344.55   73.27
   4  -6   7  445.06   87.83
   6   3  -7  591.93   93.36
   6   3  -7  649.85  107.06
  -6  -3   7  263.25   96.93
   3  -6   7  638.39  117.31
  -6  -3   7  693.55   87.87
   6   2  -7  477.56   78.98
   6   2  -7  400.06   72.33
  -6  -2   7  533.37   66.42
   2  -6   7  508.30   89.51
  -6  -2   7  314.37   77.09
   2  -6   7  571.74   79.18
   6   1  -7  213.90   41.52
   6   1  -7  174.02   35.62
  -6  -1   7  145.58   32.96
   6   1   7  209.88   41.09
   6   0  -7   -2.92   18.02
   6   0  -7   -4.68   11.93
  -6   0   7    4.37   14.01
   6   0   7  -12.30   20.64
   6  -1  -7  194.42   35.68
   6  -1  -7  154.47   39.98
   6  -1   7  166.52   32.22
   6  -1   7  259.55   42.98
  -6   1   7  172.30   33.39
   6  -1   7  162.07   39.99
  -6   2  -7  665.45   87.76
   6  -2  -7  551.64   72.05
   6  -2  -7  293.34   79.24
  -6   2  -7  464.93   66.10
   6  -2   7  582.25   77.88
  -6   2   7  458.42   63.71
   6  -2   7  542.73   76.55
   6  -2   7  456.93   67.57
   6  -2   7  517.93   79.68
  -6   3  -7  576.89   86.10
  -6   3  -7  469.73   83.60
  -6   3  -7  538.27  111.95
   6  -3   7  512.65   98.94
   6  -3   7  634.35  106.21
   6  -3   7  668.42  110.65
  -6   4  -7  304.24   62.35
  -6   4  -7  439.92   60.95
   6  -4   7  369.91   69.80
   6  -4   7  299.42   79.03
   6  -4   7  412.58   69.32
  -6   5  -7   48.55   22.00
   6  -5   7  103.81   22.92
   6  -5   7   99.51   37.03
  -6   6  -7   -4.69   19.37
   6   6  -7  -12.84   15.79
   6  -6   7   10.13   17.23
   6  -6   7   -1.62   37.69
   6  -6   7   -3.06   19.65
  -6   7  -7  108.74   26.71
   7   6  -7  110.61   23.85
   6  -7   7   68.40   42.35
   7   5  -7   12.38   21.93
   7   5  -7    7.44   17.65
  -5   7  -7   10.61   21.57
   5  -7   7  -18.83   33.97
  -7  -5   7   13.92   14.70
   7   4  -7  340.75   73.02
   7   4  -7  350.26   62.28
  -7  -4   7  340.20   58.35
  -7  -4   7  326.52   64.77
   7   3  -7  291.10   55.81
   7   3  -7  335.16   48.39
  -7  -3   7  323.96   46.87
   7   2  -7  611.09  106.89
   7   2  -7  674.43  116.72
  -7  -2   7  682.57  102.21
  -7  -2   7  667.36   97.79
  -7  -1  -7   -4.25   12.04
   7   1  -7    9.54   14.50
   7   1  -7   11.11   22.53
   7   1   7   -9.54   12.47
   7   1   7    8.23   23.59
  -7  -1   7   22.59   18.10
   7   0  -7   10.71   14.08
  -7   0  -7   62.59   43.16
   7   0  -7    1.12   19.17
  -7   0  -7   19.34   10.71
   7   0   7   15.40   12.34
   7   0   7   15.23   33.24
   7   0   7   -1.42   24.04
   7   0   7   13.74   15.71
  -7   0   7   22.70   16.94
   7  -1  -7   15.58   19.70
  -7   1  -7  -26.33   40.10
  -7   1  -7   -5.92    9.74
   7  -1  -7  -16.20   14.79
  -7   1   7   -5.23   16.43
   7  -1   7   -5.03   16.13
   7  -1   7    3.43   11.55
   7  -1   7   10.99   19.85
   7  -1   7  -26.11   29.08
   7  -2  -7  622.63  115.86
  -7   2  -7  541.57  129.80
   7  -2  -7  767.86  109.58
  -7   2   7  527.52   95.47
   7  -2   7  403.89  119.17
   7  -2   7  562.35  113.14
   7  -3  -7  279.67   58.39
  -7   3  -7   71.57   72.79
   7  -3   7  211.91   62.55
   7  -3   7  233.93   50.93
   7  -3   7  344.23   55.93
  -7   4  -7  340.17   79.41
  -7   4  -7  298.06   54.89
  -7   4  -7  443.68   56.45
   7  -4   7  279.54   74.35
   7  -4   7  354.28   62.68
   7  -4   7  382.63   72.42
  -7   5  -7   16.97   18.50
  -7   5  -7   -9.03   19.24
   7  -5   7   49.76   37.90
   7  -5   7   17.34   19.60
   7  -5   7    4.32   17.84
   7  -5   7   22.70   17.31
  -7   6  -7   84.07   26.04
   7  -6   7   73.68   28.21
   7  -6   7   79.84   25.17
   7  -6   7   69.49   41.72
  -7   7  -7  -40.66   25.59
   7  -7   7   24.37   40.55
   7  -7   7  -13.57   27.13
   8   6  -7   14.53   21.09
   8   5  -7   -8.32   21.17
   8   5  -7   16.08   24.66
  -8  -5   7    1.69   16.57
   8   4  -7   70.28   24.02
   8   4  -7   77.33   29.29
  -8  -4   7   57.31   19.75
   8   3  -7   25.47   22.25
   8   3  -7    6.28   17.78
  -8  -3   7   -5.49   12.84
  -8  -3   7    4.41   20.39
   8   2  -7  139.81   50.84
   8   2  -7  199.79   44.16
  -8  -2   7  212.26   42.17
  -8  -2   7  287.77   43.66
   8   1  -7   51.73   27.29
  -8  -1  -7   39.69   16.44
   8   1  -7   73.28   19.70
  -8  -1   7   50.70   22.52
   8   1   7   45.00   30.55
   8   1   7   88.19   24.29
   8   1   7   42.89   17.19
   8   0  -7    9.73   17.22
   8   0  -7   -8.94   25.18
  -8   0  -7  -19.07   46.74
  -8   0  -7    2.59   12.59
   8   0   7    6.26   13.59
  -8   0   7    8.67   21.41
   8   0   7   -5.27   19.12
   8   0   7   11.73   23.37
   8   0   7   21.86   35.50
   8  -1  -7   84.96   19.97
   8  -1  -7   55.22   27.88
  -8   1  -7   37.40   14.15
  -8   1  -7   74.16   48.30
   8  -1   7   52.44   21.95
   8  -1   7   64.64   32.09
  -8   1   7   69.34   22.43
   8  -1   7   57.37   22.21
   8  -1   7   54.24   16.77
  -8   2  -7  307.09   42.43
   8  -2  -7  282.53   46.74
  -8   2  -7  203.35   64.77
  -8   2  -7  238.94   42.69
   8  -2  -7  199.20   51.18
   8  -2   7  187.78   50.09
   8  -2   7  268.55   47.04
   8  -2   7  269.85   40.80
   8  -2   7  275.66   54.06
  -8   2   7  231.63   42.98
  -8   3  -7    9.73   37.99
   8  -3  -7   26.70   29.16
  -8   3  -7   -3.43   17.59
  -8   3  -7   -3.27   10.31
  -8   3  -7   13.17   18.17
   8  -3  -7   -6.64   21.83
   8  -3   7   22.33   33.38
  -8   3   7    1.82   22.94
   8  -3   7    3.88   20.53
   8  -3   7  -20.12   18.59
   8  -3   7    5.07   13.93
  -8   4  -7   96.77   46.12
  -8   4  -7   56.22   22.52
  -8   4  -7  101.84   22.87
   8  -4   7  163.05   37.75
   8  -4   7   90.54   20.13
   8  -4   7   99.70   23.41
   8  -4   7   57.42   27.66
  -8   5  -7    3.17   21.34
  -8   5  -7    1.40   19.89
   8  -5   7    1.38   18.77
   8  -5   7   -3.39   17.36
   8  -5   7   12.23   23.52
   8  -5   7   62.97   36.84
  -8   6  -7   22.63   21.92
   8  -6   7  -28.73   41.02
   8  -6   7   -1.18   24.48
   8  -6   7    3.68   18.66
  -8   7  -7  335.89   42.85
   8  -7   7  173.77   62.11
   8  -7   7  151.30   50.56
   8  -8   7   15.17   49.79
   9   6  -7   95.39   36.50
  -9  -6   7  181.65   34.96
   9   5  -7  185.95   44.62
   9   5  -7  139.29   36.16
  -9  -5   7  176.10   33.74
   9   4  -7   10.20   22.03
   9   4  -7   -2.75   26.64
  -9  -4   7    8.47   16.22
   9   3  -7   45.63   21.46
   9   3  -7   32.76   26.05
  -9  -3   7   28.51   26.10
  -9  -3   7   25.08   16.18
   9   2  -7   22.60   25.44
   9   2  -7    1.38   19.46
   9   2   7   19.67   17.61
  -9  -2   7    7.88   15.58
  -9  -2   7  -37.94   25.50
   9   1  -7   32.14   20.97
   9   1  -7   16.71   27.12
  -9  -1  -7    9.95   16.23
   9   1   7   18.40   23.31
   9   1   7   56.04   30.90
   9   1   7   31.70   18.25
  -9  -1   7    6.65   23.88
   9   0  -7  -19.18   19.20
   9   0  -7   -1.45   27.83
  -9   0  -7    8.72   14.41
  -9   0  -7  -11.83   53.33
  -9   0   7   -8.20   23.49
   9   0   7  -16.78   42.70
   9   0   7    2.39   22.31
   9   0   7    3.58   16.70
   9   0   7   20.66   23.75
   9  -1  -7    8.66   27.77
  -9   1  -7   54.38   54.06
  -9   1  -7   22.06   15.05
   9  -1  -7   26.86   20.39
  -9   1  -7   41.83   22.13
   9  -1   7   39.98   22.40
   9  -1   7   45.62   34.57
   9  -1   7    6.31   22.93
  -9   1   7    1.64   23.66
   9  -1   7   42.91   17.14
   9  -2  -7   10.74   21.04
  -9   2  -7   -4.89   12.96
  -9   2  -7  -11.71   48.37
   9  -2  -7   17.37   27.71
  -9   2  -7    8.08   21.40
   9  -2   7   38.92   20.61
   9  -2   7   -5.73   32.88
   9  -2   7   14.26   22.48
  -9   2   7  -15.93   24.66
   9  -2   7   17.13   16.01
   9  -3  -7   32.42   29.58
  -9   3  -7   27.75   20.01
  -9   3  -7   30.74   21.12
  -9   3  -7    2.49   14.71
   9  -3  -7   26.26   23.68
  -9   3  -7   16.03   44.65
   9  -3   7   29.07   16.22
   9  -3   7   20.89   19.19
   9  -3   7   27.07   24.59
  -9   3   7   64.10   26.91
   9  -3   7   44.75   33.62
  -9   4  -7  -18.17   20.96
  -9   4  -7    8.15   20.94
  -9   4  -7   -1.84   45.21
   9  -4   7   14.66   17.42
   9  -4   7  -20.47   38.73
   9  -4   7  -20.91   19.04
   9  -4   7   -1.22   24.70
  -9   5  -7  184.83   35.88
  -9   5  -7  145.11   32.93
   9  -5   7  161.32   49.04
   9  -5   7  121.95   34.58
   9  -5   7  222.48   43.93
   9  -5   7  138.32   35.66
  -9   6  -7  165.71   33.61
  -9   6  -7  228.01   40.51
   9  -6   7  147.62   42.44
   9  -6   7  152.32   35.32
   9  -6   7  222.07   55.32
  -9   7  -7   47.96   31.64
   9  -7   7   55.64   34.15
   9  -7   7  143.18   50.30
   9  -8   7  513.76  113.28
  10   6  -7  211.37   42.36
 -10  -6   7  137.28   38.44
  10   5  -7  -16.92   28.81
  10   5  -7  -16.04   32.98
 -10  -5   7   32.79   21.55
  10   4  -7   48.84   38.85
  10   4  -7   90.08   32.37
 -10  -4   7  123.33   29.28
  10   3  -7  -27.36   24.48
  10   3  -7  -17.66   30.37
 -10  -3   7   -7.60   28.08
 -10  -3   7  -65.86   18.85
  10   2  -7   68.37   23.20
  10   2  -7   61.58   32.96
  10   2   7   33.01   20.96
 -10  -2   7   21.54   19.68
 -10  -2   7   26.26   29.05
  10   2   7   27.04   33.31
  10   1  -7  206.76   50.75
 -10  -1  -7  255.19   40.02
  10   1  -7  238.02   42.27
  10   1   7  223.08   47.98
  10   1   7  160.94   38.61
 -10  -1   7  200.50   41.99
 -10  -1   7  218.21   43.02
  10   1   7  211.05   48.54
  10   0  -7    6.16   21.98
  10   0  -7   29.57   34.05
 -10   0  -7    3.25   16.17
 -10   0  -7  -26.48   63.78
  10   0   7   -1.35   19.43
  10   0   7  -14.61   24.83
 -10   0   7    9.24   26.52
  10   0   7    2.09   48.62
  10   0   7  -28.14   25.80
  10  -1  -7  256.18   51.42
 -10   1  -7  296.20   43.25
 -10   1  -7  256.04   71.90
  10  -1  -7  163.50   41.52
 -10   1  -7  150.32   38.69
  10  -1   7  220.63   39.55
  10  -1   7  181.02   54.02
 -10   1   7  238.71   41.31
  10  -1   7  189.73   44.19
  10  -1   7  167.00   47.59
 -10   2  -7   41.30   20.57
  10  -2  -7   50.51   24.52
  10  -2  -7   19.61   31.07
 -10   2  -7    2.14   57.18
 -10   2  -7   48.44   26.57
 -10   2  -7    5.59   15.20
  10  -2   7   34.16   19.81
  10  -2   7   38.38   21.30
  10  -2   7   10.74   37.22
  10  -2   7   53.13   26.34
 -10   2   7   17.59   27.87
 -10   3  -7    1.46   20.74
 -10   3  -7   13.86   24.38
 -10   3  -7   49.64   49.18
  10  -3  -7  -13.16   24.19
  10  -3  -7   -5.11   31.41
 -10   3  -7    1.42   15.86
  10  -3   7  -33.86   19.04
  10  -3   7    3.80   26.52
  10  -3   7   -1.50   37.05
 -10   3   7    4.19   28.10
  10  -3   7    9.27   18.93
 -10   4  -7   95.41   28.40
 -10   4  -7   61.73   54.07
 -10   4  -7  140.54   31.63
  10  -4   7  173.26   38.75
 -10   4   7  121.49   39.86
  10  -4   7  186.52   28.96
  10  -4   7  122.10   29.84
  10  -4   7  127.04   47.41
 -10   5  -7   39.32   55.37
 -10   5  -7   41.75   24.47
 -10   5  -7   36.06   27.52
  10  -5   7   12.29   21.67
  10  -5   7    8.74   42.92
  10  -5   7   19.77   21.10
  10  -5   7   73.32   31.12
 -10   6  -7  216.15   37.79
 -10   6  -7  142.18   42.73
  10  -6   7  197.71   39.46
  10  -6   7  176.42   48.36
  10  -6   7  129.63   40.85
  10  -6   7  175.68   57.29
 -10   7  -7  198.34   45.43
  10  -7   7  220.57   56.85
  10  -7   7  233.65   68.35
  10  -8   7   69.85   60.50
  11   7  -7   59.52   30.50
  11   6  -7  104.86   42.81
  11   6  -7   38.62   31.98
 -11  -6   7   18.05   26.67
  11   5  -7  211.18   59.90
  11   5  -7  377.95   50.94
 -11  -5   7  237.54   46.30
  11   4  -7    7.33   26.03
  11   4  -7  -28.89   33.28
 -11  -4   7   38.22   31.66
 -11  -4   7   36.21   22.53
 -11  -3   7   90.61   28.28
 -11  -3   7  161.27   39.76
  11   2  -7  116.40   51.66
  11   2  -7  102.90   56.55
 -11  -2  -7  183.58   46.77
 -11  -2   7  356.46   47.88
  11   2   7  266.33   46.87
 -11  -2   7  181.11   51.33
  11   1  -7  -12.36   27.99
 -11  -1  -7   25.72   19.73
  11   1  -7    3.44   36.68
  11   1   7   -3.18   29.66
  11   1   7   11.50   30.68
 -11  -1   7   -4.21   23.91
  11   1   7   15.08   18.82
 -11  -1   7  -19.01   31.36
  11   0  -7  611.93   94.34
 -11   0  -7  653.65  135.73
 -11   0  -7  527.66   94.45
  11   0  -7  618.35  107.71
 -11   0   7  561.59   87.83
  11   0   7  438.86   89.29
  11   0   7  501.70  100.48
  11   0   7  501.97  111.14
 -11   1  -7   38.82   31.72
  11  -1  -7   15.71   26.66
 -11   1  -7   -1.68   16.91
 -11   1  -7   58.59   66.12
  11  -1  -7    1.80   37.43
  11  -1   7   20.36   21.26
  11  -1   7  -23.94   28.63
  11  -1   7  -57.40   44.12
  11  -1   7  -30.93   22.45
 -11   1   7  -12.40   30.05
  11  -2  -7  205.20   49.57
 -11   2  -7  273.28   46.12
  11  -2  -7  313.97   60.42
 -11   2  -7  282.64   49.58
 -11   2  -7  238.58   80.27
 -11   2  -7  198.36   43.76
  11  -2   7  309.47   45.54
  11  -2   7  305.94   59.98
  11  -2   7  252.74   56.07
  11  -2   7  241.68   48.76
 -11   2   7  184.45   50.32
 -11   3  -7   51.89   61.86
 -11   3  -7  108.70   33.25
  11  -3  -7  181.79   37.62
 -11   3  -7   44.80   24.69
 -11   3  -7   60.45   27.96
  11  -3   7   72.55   35.10
  11  -3   7   20.65   41.76
 -11   3   7  187.10   42.28
  11  -3   7   68.99   27.82
  11  -3   7   93.61   28.11
 -11   4  -7    1.71   19.95
 -11   4  -7    9.93   24.61
  11  -4  -7   27.45   32.06
 -11   4  -7   27.78   27.57
 -11   4  -7   43.58   55.52
  11  -4   7   40.41   21.08
 -11   4   7   13.12   36.72
  11  -4   7   13.55   31.20
  11  -4   7   29.74   40.51
  11  -4   7   18.81   18.63
 -11   5  -7  175.23   49.20
 -11   5  -7  206.94   75.33
 -11   5  -7  160.33   44.29
  11  -5   7  189.94   47.68
  11  -5   7  231.22   47.85
  11  -5   7  224.17   63.20
  11  -5   7  312.04   61.27
 -11   6  -7   84.42   29.99
 -11   6  -7   81.71   67.07
 -11   6  -7   59.88   34.47
  11  -6   7   58.35   37.70
  11  -6   7   83.54   30.52
  11  -6   7   56.90   49.35
  11  -6   7   73.18   25.45
 -11   7  -7   82.73   34.77
  11  -7   7   23.98   56.41
  11  -7   7   -7.09   37.52
  11  -8   7  143.26   67.26
  12   5  -7   34.99   31.17
  12   4  -7   37.62   40.00
  12   4  -7  -36.56   31.90
 -12  -4   7   19.11   22.58
 -12  -4   7    4.73   35.77
  12   3  -7  288.85   67.76
  12   3  -7  374.39   59.79
 -12  -3   7  251.65   52.91
 -12  -3   7  390.89   59.41
  12   2  -7   25.35   28.25
 -12  -2  -7    7.56   23.04
  12   2  -7   42.58   41.46
 -12  -2   7   -6.87   21.38
  12   2   7   -8.53   22.61
 -12  -2   7  -30.62   36.84
  12   1  -7  905.57  154.43
 -12  -1  -7  816.92  138.74
  12   1  -7  962.36  141.78
 -12  -1   7  738.71  129.96
  12   1   7  907.81  163.97
 -12  -1   7  913.87  139.83
  12   0  -7    1.94   40.53
 -12   0  -7   28.40   35.46
 -12   0  -7   50.24   22.29
  12   0  -7   13.45   30.16
 -12   0   7   -6.94   35.48
  12   0   7   -6.61   34.00
  12   0   7    6.92   26.63
 -12   1  -7  861.79  134.64
  12  -1  -7  629.06  140.16
  12  -1  -7  770.28  158.38
 -12   1   7  697.39  127.57
  12  -1   7  662.09  163.85
  12  -1   7  768.33  132.45
  12  -2  -7   -6.08   27.12
  12  -2  -7  -43.59   42.69
 -12   2  -7  -14.40   36.18
 -12   2  -7    1.81   19.48
 -12   2   7  -54.41   35.47
  12  -2   7    6.27   31.72
  12  -2   7   15.66   24.23
 -12   3  -7  289.37   56.23
 -12   3  -7  322.64   56.79
  12  -3  -7  404.74   60.21
 -12   3   7  312.65   58.01
  12  -3   7  168.75   52.38
  12  -3   7  238.60   67.17
 -12   4  -7  -11.74   30.41
 -12   4  -7  -15.11   21.20
  12  -4  -7  -26.44   31.32
  12  -4   7    3.32   22.94
 -12   4   7    5.58   39.35
  12  -4   7   33.12   35.58
 -12   5  -7   67.92   28.71
 -12   5  -7  -18.69   32.21
  12  -5   7   44.16   25.26
  12  -5   7   30.22   38.79
 -12   6  -7   -2.71   68.67
 -12   6  -7  -61.30   35.39
 -12   6  -7   23.90   30.65
  12  -6   7  -12.33   28.46
  12  -6   7   35.52   40.65
  12  -7   7   75.84   58.17
  12  -8   7 -102.41   65.99
  13   7  -7   44.08   36.70
  13   6  -7    2.33   35.18
 -13  -6   7    3.04   30.49
  13   5  -7   -2.12   41.71
  13   5  -7  160.04   33.63
 -13  -5   7  -33.36   24.76
 -13  -5   7  174.87   41.35
  13   4  -7   -2.08   46.29
 -13  -4   7  -10.70   28.26
  13   3   7   -2.05   29.84
 -13  -2  -7   89.69   33.12
  13   2   7  106.62   36.55
 -13  -1  -7   19.02   24.57
  13   1   7   43.97   37.13
  13   1   7   29.77   27.06
 -13   0  -7  459.10   72.36
 -13   0  -7  321.42   69.68
  13   0   7  470.77   67.24
  13   0   7  319.38   83.45
 -13   1  -7  -23.83   38.83
 -13   1  -7   -8.49   22.88
  13  -1   7  -12.35   35.43
  13  -1   7   -7.83   28.19
 -13   2  -7  157.47   44.72
 -13   2  -7  147.67   32.50
  13  -2   7  153.05   44.87
  13  -2   7  138.16   36.61
 -13   3  -7  -47.16   35.63
 -13   3  -7   -8.15   21.81
  13  -3   7  -28.35   26.94
  13  -3   7    1.76   36.62
  13  -4  -7  133.35   36.00
 -13   4  -7    2.19   35.33
  13  -4  -7   -2.42   50.94
 -13   4  -7   23.03   23.53
  13  -4   7   32.63   39.66
 -13   4   7  107.86   39.93
  13  -4   7   -1.84   27.16
 -13   5  -7   27.48   35.31
 -13   5  -7   53.64   24.36
  13  -5   7   -5.74   27.97
  13  -5   7   38.27   42.13
 -13   6  -7  -53.01   44.98
  13  -6   7  -34.44   30.12
  13  -6   7  -12.30   45.29
  14   7  -7   40.08   41.67
  14   6  -7   57.99   46.42
  14   6  -7   51.58   41.80
 -14  -6   7   30.05   38.39
  14   5  -7  -45.33   38.27
  14   5  -7    2.34   48.87
 -14  -5   7   11.38   44.12
 -14  -5   7  -12.36   32.19
  14   4  -7  -52.78   53.32
  14   4  -7   47.13   39.06
 -14  -4   7  173.81   52.81
 -14  -4   7   20.98   32.82
  14   3  -7  -66.58   49.37
  14   3  -7  -45.84   40.06
 -14  -3   7   20.34   31.76
  14   3   7    2.18   32.83
 -14  -3   7  -11.67   47.21
  14   2  -7  -31.54   39.83
  14   2  -7    2.24   48.09
 -14  -2  -7  -11.78   31.62
 -14  -2   7   -2.86   34.71
 -14  -2   7   17.56   47.71
  14   2   7  -48.64   51.76
  14   1  -7   34.17   53.99
  14   1  -7    2.41   41.09
 -14  -1   7   63.77   45.37
 -14  -1   7  -63.05   39.19
  14   0  -7  -61.59   43.07
  14   0  -7 -126.84   52.58
 -14   0   7  -42.69   45.50
 -14   0   7   29.03   40.42
  14  -1  -7  -67.45   52.72
  14  -1  -7    9.46   37.59
 -14   1  -7    8.03   44.91
  14  -1   7   -2.17   33.41
 -14   1   7   11.26   43.25
  14  -2  -7  -43.75   34.45
 -14   2  -7   -2.64   44.12
 -14   2   7   20.14   41.96
  14  -2   7   35.57   34.12
 -14   3  -7   -7.58   41.94
  14  -3  -7  -25.37   38.16
  14  -3   7   14.79   31.98
 -14   3   7   21.11   48.87
 -14   4  -7  104.32   41.52
  14  -4  -7   91.06   38.62
 -14   4   7   80.94   47.22
  14  -4   7  114.47   32.76
  14  -5  -7    3.00   62.22
 -14   5  -7   10.13   41.42
 -14   5   7   54.12   53.70
  15   7  -7   26.68   46.14
  15   6  -7  105.63   44.89
  15   6  -7   22.09   57.36
 -15  -6   7    7.39   38.08
 -15  -6   7   51.56   50.20
  15   5  -7  -55.67   41.05
  15   5  -7   20.58   46.05
 -15  -5   7  -24.08   36.59
 -15  -5   7   22.05   51.26
  15   4  -7    2.71   40.40
  15   4  -7 -121.38   53.69
 -15  -4   7   -3.19   55.42
 -15  -4   7  -16.76   33.08
  15   3  -7  -81.57   53.72
  15   3  -7  -44.83   40.04
  15   3   7  -30.77   32.10
 -15  -3   7   80.41   50.55
 -15  -3   7    9.84   34.45
 -15  -2  -7   -9.64   29.01
  15   2  -7    2.71   42.56
  15   2  -7   24.59   50.93
 -15  -2   7   35.83   55.31
 -15  -2   7   25.46   36.35
  15   2   7   10.10   50.12
  15   2   7  -27.07   32.36
  15   1  -7    2.66   41.25
  15   1  -7 -140.80   57.11
 -15  -1  -7    2.88   33.04
 -15  -1  -7    3.29   52.25
 -15  -1   7    6.36   38.09
 -15  -1   7   22.39   47.38
  15   1   7  -27.60   35.23
  15   1   7   16.11   46.33
 -15   0  -7    9.31   52.03
 -15   0  -7   19.23   28.89
  15   0  -7    2.49   55.36
  15   0  -7   28.74   41.09
 -15   0   7  -25.24   37.71
  15   0   7  -14.31   35.19
  15   0   7   -8.83   40.66
 -15   0   7   -3.14   47.77
  15  -1  -7   49.75   54.94
  15  -1  -7   -2.61   38.85
 -15   1  -7   -2.65   28.77
 -15   1  -7   -6.03   50.28
 -15   1   7  -67.99   50.64
  15  -1   7  -99.59   36.11
 -15   1   7  -26.02   34.83
  15  -1   7   10.87   43.74
  15  -2  -7   18.72   39.39
 -15   2  -7   12.79   29.23
 -15   2  -7  106.03   46.11
  15  -2   7    6.34   45.42
  15  -2   7    2.47   36.79
 -15   2   7  -25.39   49.03
  15  -3  -7    8.31   40.50
 -15   3  -7    7.61   27.43
 -15   3  -7   36.57   39.44
  15  -3   7  -12.82   47.45
 -15   3   7   56.46   51.70
  15  -3   7  -28.38   37.35
  15  -4  -7  -23.96   43.01
  15  -4  -7    2.83   59.31
 -15   4  -7    5.15   26.79
 -15   4  -7  135.66   44.30
 -15   4   7   84.63   51.87
  15  -4   7   31.77   34.29
  15  -4   7   -8.70   46.80
 -15   5  -7    2.67   29.42
  15  -5  -7 -104.94   70.45
 -15   5  -7  -22.41   43.88
  15  -5   7  -58.41   47.03
  15  -5   7    4.57   30.80
 -15   5   7   -4.09   52.35
  16   7  -7   66.26   50.64
 -16  -7   7   -9.60   46.12
  16   6  -7  -30.36   61.04
  16   6  -7    9.46   42.52
 -16  -6   7   57.62   38.53
 -16  -6   7  -26.91   50.52
  16   5  -7  -39.80   46.55
  16   5  -7   28.35   58.12
 -16  -5   7   -6.93   54.64
 -16  -5   7   30.63   42.26
  16   4  -7  -94.45   57.73
  16   4  -7    5.92   45.30
 -16  -4   7   11.25   40.15
 -16  -4   7  -14.13   56.10
  16   3  -7   54.68   61.07
  16   3  -7   14.68   43.19
 -16  -3   7  -53.33   60.23
 -16  -3   7  -33.04   37.86
  16   3   7   64.34   40.70
 -16  -2  -7  -14.09   36.53
  16   2  -7  -43.08   58.89
  16   2  -7   41.39   45.02
 -16  -2  -7  -61.66   65.40
  16   2   7  -25.00   35.62
 -16  -2   7  -24.85   43.89
 -16  -2   7   93.08   55.46
  16   1  -7  -20.34   45.58
  16   1  -7   -2.68   59.50
 -16  -1  -7   25.49   36.76
 -16  -1  -7   55.24   64.90
  16   1   7  -15.29   37.96
  16   1   7   12.65   48.41
 -16  -1   7   77.37   52.97
 -16  -1   7    6.99   38.33
 -16   0  -7    6.96   56.69
 -16   0  -7   15.22   32.70
  16   0  -7   51.76   44.38
  16   0  -7  -89.31   61.57
  16   0   7   26.11   38.01
 -16   0   7   20.85   39.92
  16   0   7    2.42   46.72
 -16   0   7  -20.89   55.58
  16  -1  -7   22.97   42.02
 -16   1  -7  -14.79   32.71
  16  -1  -7   -2.73   58.38
 -16   1  -7  -37.14   56.02
 -16   1   7   31.54   41.26
  16  -1   7   -7.18   52.22
  16  -1   7   10.87   40.11
 -16   1   7  -48.01   51.35
 -16   2  -7   84.81   53.37
  16  -2  -7   53.43   43.56
 -16   2  -7  -34.65   34.45
 -16   2   7   66.71   54.49
  16  -2   7    9.29   46.35
  16  -2   7   10.91   37.47
 -16   3  -7  -16.89   32.15
  16  -3  -7   -2.94   63.38
  16  -3  -7  -30.42   43.93
 -16   3  -7  -18.78   49.36
  16  -3   7    4.69   48.08
 -16   3   7   -7.29   56.21
  16  -3   7   89.32   38.46
  16  -4  -7    9.77   47.47
 -16   4  -7   48.48   50.28
 -16   4  -7   -8.56   32.40
  16  -4  -7  142.46   71.70
  16  -4   7  -74.31   55.02
 -16   4   7   23.13   53.72
  16  -4   7  -12.59   35.05
 -16   5  -7    6.20   48.12
  16  -5  -7   88.86   84.38
 -16   5  -7  -35.04   32.18
  16  -5   7 -155.84   40.65
 -16   5   7  -92.40   63.04
 -17  -7   7   -3.56   59.02
  17   6  -7 -123.95   69.85
  17   6  -7  -28.06   47.76
 -17  -6   7  -36.89   48.89
 -17  -6   7   37.19   62.24
  17   5  -7   53.48   49.46
  17   5  -7    6.26   66.91
 -17  -5   7  -38.24   61.98
 -17  -5   7  -12.86   42.65
  17   4  -7   54.82   45.22
  17   4  -7   36.64   67.49
 -17  -4   7   15.54   63.83
 -17  -4   7  -20.97   40.33
  17   3  -7    3.02   62.75
  17   3  -7  -23.12   45.84
 -17  -3   7    4.10   45.77
 -17  -3   7   -3.95   61.87
  17   3   7   -8.54   43.56
 -17  -2  -7  132.13   66.84
 -17  -2  -7 -281.46   97.25
  17   2  -7 -138.91   48.52
  17   2  -7    2.94   64.35
 -17  -2   7   86.43   62.10
  17   2   7   13.76   66.31
 -17  -2   7   -7.91   42.99
 -17  -1  -7  -10.61   38.76
 -17  -1  -7  119.43   70.37
  17   1  -7   38.11   44.88
  17   1  -7    2.94   61.62
 -17  -1   7   23.25   43.31
 -17  -1   7   23.23   59.81
  17   1   7   50.38   49.19
  17   1   7  -41.73   57.11
 -17   0  -7  -15.50   62.70
  17   0  -7    8.76   64.07
 -17   0  -7  -10.13   34.00
  17   0  -7   22.19   47.81
 -17   0   7   65.09   62.10
 -17   0   7   23.00   44.38
  17   0   7  -54.09   43.85
  17   0   7    5.32   52.63
 -17   1  -7  -36.19   36.16
  17  -1  -7  176.64   49.03
 -17   1  -7  -30.21   62.90
  17  -1   7  -21.32   47.76
 -17   1   7   -7.61   62.65
  17  -1   7   23.67   53.46
 -17   2  -7  -14.40   57.06
  17  -2  -7   -3.27   47.46
 -17   2  -7   -6.45   36.57
 -17   2   7   23.33   57.23
  17  -2   7  -15.48   50.49
  17  -2   7  -18.09   45.37
  17  -3  -7 -214.18   52.03
  17  -3  -7  -99.40   68.17
 -17   3  -7   -3.48   57.31
 -17   3  -7   25.19   36.57
 -17   3   7   68.22   58.99
  17  -3   7  -17.98   54.58
  17  -3   7    2.92   42.94
  17  -4  -7   20.51   79.04
 -17   4  -7  -40.88   36.84
 -17   4  -7    3.38   52.68
  17  -4  -7   67.67   48.54
  17  -4   7  -70.09   55.03
  17  -4   7   19.55   41.54
 -17   4   7  144.07   63.50
  17  -5  -7 -100.71   86.20
 -17   5   7   -9.57   74.14
  18   6  -7   -3.88   53.96
  18   6  -7   48.24   70.00
 -18  -6   7    4.13   65.64
 -18  -6   7   57.17   58.41
  18   5  -7  401.36   90.94
  18   5  -7  399.78   76.43
 -18  -5   7   93.27   79.61
 -18  -5   7   96.30   65.67
  18   4  -7   60.34   68.12
  18   4  -7 -107.48   57.41
 -18  -4   7  -21.51   66.98
 -18  -4   7   -4.68   53.55
  18   3  -7  -79.13   57.34
  18   3  -7    3.32   61.20
 -18  -3   7   13.74   50.49
 -18  -3   7   34.84   68.33
 -18  -2  -7   21.52   45.51
  18   2  -7  -93.04   70.53
  18   2  -7 -126.59   54.05
 -18  -2  -7  -20.72   79.64
 -18  -2   7  -22.21   51.35
 -18  -2   7   -4.31   68.78
  18   2   7  -21.30   44.60
  18   1  -7 -124.67   69.80
 -18  -1  -7   -9.24   77.96
  18   1  -7 -128.95   53.82
 -18  -1  -7   35.38   41.59
 -18  -1   7  -34.02   68.24
  18   1   7  -42.98   61.59
  18   1   7   60.73   48.32
 -18  -1   7   55.46   43.38
 -18   0  -7   43.27   71.30
  18   0  -7  -34.74   50.54
 -18   0  -7   11.22   41.51
  18   0  -7  -67.25   69.98
  18   0   7  -31.63   47.00
 -18   0   7  -16.84   47.37
  18   0   7 -105.21   62.76
 -18   0   7  -33.84   67.26
  18  -1  -7  -10.51   53.30
 -18   1  -7 -104.16   69.33
 -18   1  -7  -21.95   41.21
  18  -1   7  -89.20   57.85
  18  -1   7    9.95   50.32
 -18   1   7  -21.12   66.47
 -18   2  -7   -3.59   38.12
 -18   2  -7   19.88   65.24
  18  -2  -7    3.59   51.83
  18  -2  -7   -3.21   71.89
  18  -2   7  115.42   53.03
 -18   2   7  -30.25   63.98
  18  -2   7   99.80   60.07
  18  -3  -7    3.69   48.61
 -18   3  -7   76.66   62.63
  18  -3  -7  -94.79   77.95
 -18   3  -7    3.52   39.92
 -18   3   7  -88.61   66.31
  18  -3   7  -11.19   57.58
 -18   3   7   97.68   57.52
  18  -3   7  -80.81   47.69
 -18   4  -7  -34.89   40.42
  18  -4  -7    7.81   56.31
  18  -4  -7   22.05   83.85
 -18   4  -7 -100.67   64.17
 -18   4   7  -65.49   68.89
  18  -5  -7   82.24  103.63
 -18   5   7  309.93   97.90
  19   6  -7   38.43   62.32
 -19  -6   7   17.65   62.31
 -19  -6   7  -41.38   70.99
  19   5  -7   28.48   56.29
  19   5  -7    3.84   74.50
 -19  -5   7  -32.58   57.46
 -19  -5   7  -14.09   78.59
  19   4  -7  -64.89   60.64
  19   4  -7    7.37   76.21
 -19  -4   7   78.53   56.01
 -19  -4   7 -129.44   80.66
  19   3  -7   54.96   59.79
  19   3  -7   47.41   78.99
 -19  -3   7  -57.61   76.65
 -19  -3   7   40.81   53.89
  19   2  -7  -92.28   56.16
 -19  -2  -7 -116.81   97.35
  19   2  -7   53.38   79.32
 -19  -2  -7   -9.61   51.65
  19   2   7    6.66   50.65
 -19  -2   7  -19.82   54.04
 -19  -2   7    4.73   75.45
  19   1  -7  -99.01   59.04
  19   1  -7 -237.19   76.46
 -19  -1  -7   83.34   47.42
 -19  -1  -7    5.17   85.96
  19   1   7  -40.67   65.82
 -19  -1   7  -28.12   76.46
 -19  -1   7   37.98   47.41
  19   1   7  -36.41   44.34
 -19   0  -7  -62.23   48.47
  19   0  -7    3.81   55.41
 -19   0  -7  -58.50   81.15
 -19   0   7  -27.78   51.93
  19   0   7   -9.66   62.63
  19   0   7  -14.24   53.32
 -19   0   7 -195.07   79.13
 -19   1  -7   -8.13   43.46
 -19   1  -7   27.50   76.67
  19  -1  -7 -123.76   62.43
  19  -1   7   25.24   53.94
  19  -1   7   -3.15   67.11
 -19   1   7   60.66   78.92
  19  -2  -7   63.11   57.37
 -19   2  -7  -82.96   69.80
 -19   2  -7    4.00   46.60
  19  -2  -7 -153.60   75.89
 -19   2   7   19.19   70.84
  19  -2   7  -40.73   67.21
  19  -2   7  -54.32   57.36
 -19   2   7   70.79   56.19
 -19   3  -7   -3.95   44.84
  19  -3  -7   65.98   59.13
  19  -3  -7   29.26   79.99
 -19   3  -7  -46.24   68.07
  19  -3   7 -104.82   68.28
 -19   3   7   19.60   73.42
  19  -3   7   32.05   51.65
 -19   3   7    5.10   54.83
  19  -4  -7    3.92   85.06
  19  -4  -7  -34.41   61.10
 -19   4   7    5.19   70.11
  19  -5  -7  -97.36   95.44
 -19   5   7  -17.47   78.82
 -20  -2  -7  -99.54  109.17
  20   2   7   72.58   56.19
 -20  -1  -7   -4.92   50.82
 -20  -1  -7  -17.42   93.89
  20   1   7   14.68   53.81
  20   1   7  -71.44   72.38
 -20   0  -7   64.59   90.67
 -20   0  -7   41.70   57.07
  20   0   7   84.44   59.80
  20   0   7  170.48   72.43
 -20   1  -7  -20.10   80.63
 -20   1  -7  -18.09   49.90
  20  -1   7  -11.77   53.61
  20  -1   7  -82.62   72.72
 -20   2  -7   52.71   79.56
 -20   2  -7   40.04   47.85
  20  -2   7  -19.76   54.37
  20  -2   7   27.43   72.53
 -20   3  -7   -4.39   46.85
 -21   2  -7   62.84   90.56
  21  -2   7 -133.93   64.24
   0   0  -8  716.27  123.46
   0   0   8  473.73  119.14
   0   0   8  839.11  128.50
   0   1  -8   17.26   18.35
   1   0  -8    5.50   17.41
  -1   0  -8    1.26   19.70
   0  -1   8   -2.54   14.89
   1   0   8   13.12   17.06
  -1   0   8   -0.94   10.51
   0  -1   8    0.82   10.15
   1   0   8    3.09   11.62
  -1   1  -8  150.91   43.06
   1   1  -8  217.33   38.32
   1   1  -8  169.96   41.67
  -1  -1   8  172.41   39.80
   1  -1   8  182.07   39.59
   1  -1   8  141.33   38.19
  -1  -1   8  210.65   38.68
   2   1  -8    6.33   18.30
   2   1  -8   17.69    9.31
   2   1  -8   14.45    7.47
  -1   2  -8   23.33   17.93
  -2  -1   8   30.11    6.71
   1  -2   8   12.49   11.37
  -2  -1   8   20.73   15.47
   1  -2   8   -0.87   16.04
  -2  -1   8   22.77   10.17
  -2   0  -8   26.80   23.01
   0   2  -8   10.99   15.47
   2   0  -8   16.71    9.62
  -2   0   8   22.48   12.86
   0  -2   8   11.94   14.80
   0  -2   8   33.39   11.64
   2   0   8   19.70   18.70
  -2   1  -8   31.18   22.25
   1   2  -8   -3.05   15.58
   1   2  -8   13.20    5.48
   1   2  -8   20.63    6.56
  -1  -2   8   13.68   14.97
  -1  -2   8   18.68    5.36
   2  -1   8   23.41   18.65
  -1  -2   8   15.47    9.73
  -2   2  -8   -2.06   20.75
   2   2  -8    5.99    5.92
   2   2  -8    2.19    7.85
   2   2  -8   -8.25   14.87
  -2  -2   8   -0.58    9.03
  -2  -2   8    5.81   13.54
   2  -2   8   -0.95   17.70
  -2  -2   8    0.43    6.36
   3   2  -8   11.88   15.28
   3   2  -8   13.56    7.67
   3   2  -8   20.09    8.09
   3   2  -8   24.40   10.78
  -3  -2   8    5.13   14.43
  -3  -2   8   10.38    8.43
  -3  -2   8   17.03    8.64
   3   1  -8  339.75   70.68
   3   1  -8  382.68   64.95
  -3  -1   8  368.19   56.50
  -3  -1   8  360.34   72.53
  -3  -1   8  292.27   71.55
   3   0  -8   -2.20    8.46
   3   0  -8    6.96   11.02
  -3   0  -8   -1.44   25.62
   0   3  -8   -2.49    8.66
   3   0   8   -1.23   21.07
   0  -3   8   10.46    9.09
  -3   0   8   -6.78   13.42
  -3   0   8   -7.61    7.99
   0  -3   8    2.50   16.22
   1   3  -8  378.82   62.76
   1   3  -8  368.33   57.24
  -1  -3   8  382.37   67.23
  -1  -3   8  270.64   67.90
   3  -1   8  353.92   61.23
  -3   2  -8   12.26    5.08
   2   3  -8   15.26    9.11
   2   3  -8    7.07    6.92
  -3   2  -8   20.01    6.44
   2   3  -8   25.27    9.70
  -2  -3   8   16.93    8.84
   3  -2   8   10.98    5.04
  -2  -3   8    9.22   15.56
   3  -2   8   12.60    6.78
  -2  -3   8   29.66    5.39
  -3   3  -8 2242.32  463.59
   3   3  -8 2327.93  397.44
  -3   3  -8 2223.17  350.00
   3   3  -8 2531.47  458.57
  -3  -3   8 2351.32  415.98
  -3  -3   8 2567.44  418.61
   3  -3   8 2046.92  459.28
   3  -3   8 2604.28  436.64
   4   3  -8  573.70   90.73
   4   3  -8  536.30   80.70
   4   3  -8  459.12  104.28
  -4  -3   8  560.49   95.10
   3  -4   8  399.94  106.97
   3  -4   8  553.60   95.95
   3  -4   8  387.66  106.16
  -4  -3   8  551.29   97.08
   4   2  -8  374.78   84.09
  -2   4  -8  466.08   66.45
   4   2  -8  358.44   81.81
   4   2  -8  419.84   65.85
   4   2  -8  473.33   74.47
  -4  -2   8  403.13   79.09
   2  -4   8  420.48   77.48
   2  -4   8  467.23   87.01
  -4  -2   8  389.02   78.49
   2  -4   8  469.64   83.13
  -4  -2   8  398.45   68.89
   4   1  -8   -0.66    9.08
   4   1  -8   -9.55   13.44
   4   1  -8   10.59   21.29
  -1   4  -8    1.02   11.33
  -4  -1   8  -15.94   13.53
  -4  -1   8   -7.38   10.09
   1  -4   8    0.77   11.71
  -4  -1   8    3.82   10.40
   4   0  -8 2491.40  478.54
  -4   0   8 2477.04  390.84
  -4   1  -8   -1.21    6.00
   4  -1   8   11.68   17.41
   4  -1   8   -6.09    6.53
  -1  -4   8    3.65   18.32
  -4   2  -8  462.36   67.82
   2   4  -8  384.63   75.60
   2   4  -8  424.53   66.20
  -4   2  -8  529.31   87.86
  -4   2  -8  437.13   70.89
   4  -2   8  535.46   80.80
  -2  -4   8  299.38   79.21
   4  -2   8  491.69   80.89
   4  -2   8  402.74   70.53
  -2  -4   8  387.83   84.05
  -4   3  -8  631.23  107.92
   3   4  -8  636.00   92.40
  -4   3  -8  600.03   80.77
   4  -3   8  570.60   92.36
   4  -3   8  546.95   97.06
  -3  -4   8  496.13   83.91
   4  -3   8  587.54  103.85
  -3  -4   8  639.03  102.11
  -3  -4   8  500.62   99.86
   4  -3   8  578.52  103.25
   4   4  -8  666.80   83.45
  -4  -4   8  705.40   91.20
   4  -4   8  558.61   98.68
   4  -4   8  675.20   96.13
   4  -4   8  581.77   86.54
   5   4  -8   44.52   17.93
  -4   5  -8   60.77   18.53
   4  -5   8   47.99   15.75
   4  -5   8   43.29   28.16
  -5  -4   8   72.72   21.51
   4  -5   8   48.58   16.16
  -5  -4   8   49.27   12.68
   5   3  -8  876.19  152.91
  -5  -3   8  916.80  186.67
   5   2  -8   86.79   16.87
   5   2  -8   78.28   25.61
  -2   5  -8   44.69   20.75
   2  -5   8   99.85   22.44
  -5  -2   8   97.72   19.11
  -5  -2   8  128.22   23.79
   2  -5   8   84.01   32.65
  -1   5  -8  864.00  136.89
   1  -5   8  976.37  185.30
   5   1   8  961.03  160.03
   1  -5   8  871.58  163.74
  -5  -1   8  951.21  173.77
   0   5  -8    2.12   12.25
   5   0  -8   -0.85   15.58
  -5   0  -8  105.70   34.66
   5   0   8    9.91   21.55
  -5   0   8   18.51   13.17
   5   0   8   75.90   28.10
   0  -5   8  -19.68   22.61
   5   0   8   -1.93    7.51
   0  -5   8   10.42   12.07
  -5   1  -8  972.36  149.82
   5  -1  -8 1050.94  169.51
   1   5  -8  893.18  136.60
   5  -1   8  897.40  173.71
  -1  -5   8  879.97  169.66
   5  -1   8 1001.80  166.40
   5  -1   8  689.30  145.78
  -5   2  -8  106.07   37.98
  -5   2  -8   99.75   19.02
  -5   2  -8  108.95   18.15
   5  -2   8  105.01   18.40
   5  -2   8  131.09   30.99
   5  -2   8   86.41   25.65
   5  -2   8  101.99   22.33
  -5   3  -8 1121.08  208.50
  -5   3  -8  987.04  160.00
  -5   3  -8 1154.69  186.73
   5  -3   8 1137.60  201.98
   5  -3   8 1110.45  178.00
  -3  -5   8 1139.56  204.19
   5  -3   8 1214.59  190.44
   5  -3   8 1017.25  205.54
  -5   4  -8   37.76   13.69
  -5   4  -8   51.60   17.48
   5  -4   8   43.41   13.49
  -4  -5   8   36.90   22.34
   5  -4   8   43.05   16.42
   5  -4   8   45.81   28.71
   5  -4   8   46.14   17.90
   5   5  -8  722.46  107.32
   5  -5   8  498.11  126.24
   5  -5   8  625.43  106.44
   5  -5   8  534.04  122.32
  -5   6  -8  134.96   34.36
   6   5  -8  164.46   45.64
   6   5  -8  245.26   38.60
   5  -6   8  231.01   39.34
   5  -6   8  155.74   53.55
   5  -6   8  187.04   42.04
  -6  -5   8  228.38   34.79
   6   4  -8  663.33   96.99
  -4   6  -8  384.75   71.17
   6   4  -8  452.80   81.35
  -6  -4   8  349.85   76.17
   4  -6   8  479.32  102.51
  -6  -4   8  569.82   86.24
   4  -6   8  425.19   85.12
   6   3  -8 1152.54  211.92
   6   3  -8 1165.45  188.90
   6   3  -8 1033.89  206.34
   3  -6   8 1300.71  232.41
  -6  -3   8 1044.95  198.43
  -2   6  -8  533.45   74.29
   6   2  -8  459.33   83.44
   6   2  -8  439.59   92.42
   6   2  -8  452.62   68.38
   6   2  -8  426.83   90.50
   2  -6   8  485.99   91.06
  -6  -2   8  536.66   81.73
  -6  -2   8  430.83   77.36
   2  -6   8  443.48  104.16
  -6  -2   8  470.92   90.45
  -6  -2   8  466.45   86.38
   6   1  -8  127.63   24.56
   6   1  -8   85.17   17.90
   6   1  -8  129.22   29.23
  -1   6  -8  123.83   22.73
  -6  -1   8  137.58   24.06
  -6  -1   8  116.85   21.86
   1  -6   8  112.64   26.52
   1  -6   8  172.61   36.08
   6   1   8  133.71   32.24
   6   0  -8   30.23   15.20
   6   0  -8   60.93   20.94
  -6   0  -8   58.05   40.67
   0   6  -8   37.24   15.58
   6   0   8   57.53   22.51
  -6   0   8   42.21   13.69
   6   0   8   86.48   32.06
  -6   0   8   35.78   15.72
   0  -6   8   71.28   25.69
   6  -1  -8  127.62   25.32
  -6   1  -8  130.66   46.29
   6  -1  -8  143.36   29.22
   6  -1   8  131.95   21.37
   6  -1   8  155.73   31.10
   6  -1   8  157.90   35.73
  -6   1   8  103.25   24.07
  -6   2  -8  532.25  104.43
   6  -2  -8  381.28   92.61
  -6   2  -8  483.99   77.68
   6  -2   8  456.11   92.75
   6  -2   8  541.85   90.86
  -6   2   8  528.52   74.00
  -6   3  -8  966.37  167.99
  -6   3  -8 1126.76  194.48
  -6   3  -8 1180.49  172.35
  -6   3  -8 1164.00  216.94
   6  -3   8 1121.28  182.10
   6  -3   8 1092.52  210.37
   6  -3   8 1092.23  198.42
   6  -3   8 1025.85  215.30
   6  -4   8  448.41   84.02
   6  -4   8  503.83   95.59
   6  -4   8  495.86   82.57
   6  -4   8  440.04   97.99
  -6   5  -8  212.02   35.86
   5   6  -8  177.72   38.34
   6  -5   8  141.92   38.40
   6  -5   8  248.85   52.21
   6   6  -8   11.18   16.10
  -6   6  -8    6.44   19.43
   6  -6   8   15.22   16.14
   6  -6   8    3.33   35.50
   7   6  -8  -15.13   18.73
  -6   7  -8    7.27   22.02
   6  -7   8    3.57   23.10
   6  -7   8  -14.66   38.59
   6  -7   8   -5.16   20.71
  -5   7  -8   38.33   19.89
   7   5  -8   13.33   22.84
   7   5  -8   13.57   19.14
  -7  -5   8   24.37   13.91
   5  -7   8   -8.76   38.62
   5  -7   8   23.70   19.53
  -4   7  -8  640.12   84.30
   7   4  -8  439.44  112.23
   7   4  -8  398.62   95.21
   4  -7   8  561.62  103.37
   4  -7   8  583.78  120.38
  -7  -4   8  609.07   90.35
   7   3  -8  301.67   52.44
   7   3  -8  297.61   59.08
   3  -7   8  189.05   68.69
  -7  -3   8  334.60   49.26
   7   2  -8  633.27  112.13
   7   2  -8  673.08  124.25
  -7  -2   8  862.35  109.82
  -7  -2   8  740.51  103.92
   7   1  -8  306.56   59.96
   7   1  -8  347.55   52.32
   7   1   8  327.45   49.92
   7   1   8  273.04   58.25
  -7  -1   8  349.37   48.60
   7   0  -8    5.76   22.63
  -7   0  -8  -37.78   16.37
   7   0  -8  -16.57   17.58
  -7   0  -8 -103.36   58.60
   7   0   8 -113.78   43.45
  -7   0   8  -22.03   17.96
   7   0   8  -67.57   22.91
   7   0   8  -20.68   28.33
   7   0   8  -11.93   14.43
  -7   1  -8  220.50   49.31
   7  -1  -8  245.87   58.20
  -7   1  -8  499.41   81.82
   7  -1  -8  222.04   53.04
   7  -1   8  281.40   64.42
  -7   1   8  296.60   48.90
   7  -1   8  222.68   58.55
   7  -1   8  293.76   47.02
   7  -1   8  215.87   58.73
   7  -2  -8  441.45  113.86
  -7   2  -8  282.22  142.25
   7  -2  -8  725.78  123.04
   7  -2   8  610.26  119.31
   7  -2   8  489.70  121.41
   7  -2   8  627.98  126.25
  -7   2   8  642.53  101.19
  -7   3  -8  333.61   67.07
  -7   3  -8  291.76   48.84
   7  -3   8  306.07   64.08
   7  -3   8  234.65   55.53
   7  -3   8  277.25   59.05
  -7   4  -8  584.76   85.67
  -7   4  -8  747.36  118.02
   7  -4   8  472.92   98.24
   7  -4   8  588.98  109.57
   7  -4   8  611.20  116.02
  -7   5  -8   81.03   19.10
  -7   5  -8   72.04   20.75
   7  -5   8   35.14   17.08
   7  -5   8   -7.92   35.51
   7  -5   8   23.99   20.67
   7  -5   8   11.26   17.77
  -7   6  -8   -1.70   21.25
   7  -6   8   -9.07   21.22
   7  -6   8    3.66   19.92
   7  -6   8   51.47   38.51
  -7   7  -8  114.42   32.63
   7  -7   8   82.90   31.58
   7  -7   8  184.23   36.39
   7  -7   8  163.87   50.08
   7  -8   8   29.65   47.61
   8   6  -8  119.83   29.22
  -8  -6   8  128.74   26.96
   8   5  -8   -6.62   24.71
   8   5  -8    1.38   21.14
  -8  -5   8  -11.75   15.56
   8   4  -8  -18.37   18.87
   8   4  -8   12.26   23.44
  -8  -4   8  -12.01   13.35
   8   3  -8  628.73  116.88
   8   3  -8  679.75  130.40
  -8  -3   8  659.75  106.94
   8   2  -8    7.16   23.46
   8   2  -8   13.35   16.99
  -8  -2   8   17.70   20.96
  -8  -2   8    5.70   14.16
   8   1  -8  181.07   39.52
   8   1  -8  197.23   47.02
   8   1   8  222.60   37.01
   8   1   8  266.17   48.70
  -8  -1   8  180.46   38.90
  -8   0  -8  217.64   63.72
  -8   0  -8  176.74   34.08
   8   0  -8  146.43   44.13
   8   0  -8  153.11   36.87
  -8   0   8  128.74   34.95
   8   0   8  126.18   43.19
   8   0   8  118.79   51.95
   8   0   8  172.27   33.31
  -8   1  -8  210.74   36.68
  -8   1  -8  212.67   66.19
   8  -1  -8  165.14   40.08
   8  -1  -8  186.82   46.81
   8  -1   8  218.98   35.69
   8  -1   8  173.24   44.08
  -8   1   8  160.71   37.98
   8  -1   8  199.71   43.98
   8  -1   8  186.37   50.48
   8  -2  -8   36.18   21.32
  -8   2  -8   -2.12   11.61
   8  -2  -8   18.09   24.43
  -8   2  -8   36.86   48.41
  -8   2  -8   23.78   17.48
   8  -2   8   -1.25   20.71
   8  -2   8   17.56   14.00
   8  -2   8    9.40   19.45
   8  -2   8    1.46   32.27
  -8   2   8   13.19   21.51
  -8   3  -8  740.53  106.58
  -8   3  -8  803.12  140.11
   8  -3  -8  714.67  127.91
  -8   3   8  522.76  104.29
   8  -3   8  675.92  127.25
   8  -3   8  620.39  110.45
   8  -3   8  615.37  121.40
   8  -3   8  640.32  134.07
  -8   4  -8   -9.24   45.77
  -8   4  -8  -12.03   19.05
  -8   4  -8  -19.94   18.50
   8  -4   8   11.33   36.69
   8  -4   8   -5.06   21.44
   8  -4   8   -3.21   14.18
   8  -4   8   -4.63   19.33
  -8   5  -8  -14.94   20.55
  -8   5  -8  -29.57   22.73
   8  -5   8    4.25   22.65
   8  -5   8   -9.40   17.19
   8  -5   8   21.97   38.78
   8  -5   8  -22.83   19.49
  -8   6  -8   93.85   28.24
   8  -6   8   67.54   28.10
   8  -6   8   98.28   32.18
   8  -6   8  114.58   47.52
  -8   7  -8   12.02   26.57
   8  -7   8   18.00   27.34
   8  -7   8  -11.11   21.59
   8  -7   8   32.14   47.29
   8  -8   8  309.98   80.03
   9   7  -8  224.55   53.14
   9   6  -8   79.15   28.03
  -9  -6   8   53.18   23.18
   9   5  -8   -7.27   29.41
   9   5  -8  -12.27   23.80
  -9  -5   8   12.97   17.17
   9   4  -8   50.69   28.44
   9   4  -8   43.27   21.91
  -9  -4   8   28.75   18.30
   9   3  -8   29.23   28.47
   9   3  -8   23.28   20.76
  -9  -3   8   49.86   26.54
  -9  -3   8   55.79   16.31
   9   2  -8   13.83   20.91
   9   2  -8   10.89   27.68
   9   2   8   13.60   16.32
  -9  -2   8   -3.37   23.86
  -9  -2   8    6.48   16.47
  -9  -1  -8    7.33   16.55
   9   1  -8    4.27   30.08
   9   1  -8    5.61   20.50
   9   1   8    1.23   16.06
   9   1   8    9.61   29.20
  -9  -1   8   -6.75   25.61
   9   0  -8   13.34   29.54
   9   0  -8   15.36   20.34
  -9   0  -8  -12.16   15.47
  -9   0  -8  -10.17   61.00
   9   0   8   -1.98   42.18
   9   0   8   18.00   16.86
  -9   0   8   10.02   24.46
   9   0   8   19.63   22.76
   9   0   8  -20.00   28.38
   9  -1  -8   33.69   21.04
  -9   1  -8   16.48   55.28
   9  -1  -8   17.78   28.38
  -9   1  -8   20.92   21.50
  -9   1  -8  -13.57   14.77
  -9   1   8   10.24   23.14
   9  -1   8  -23.87   16.01
   9  -1   8   14.80   36.87
   9  -1   8  -20.19   24.60
   9  -1   8  -19.45   23.14
  -9   2  -8   41.45   21.44
  -9   2  -8   16.96   52.19
  -9   2  -8   11.01   13.07
   9  -2  -8   -7.99   21.36
   9  -2  -8   25.34   28.28
  -9   2   8   14.70   24.76
   9  -2   8   20.22   36.45
   9  -2   8   19.36   16.54
   9  -2   8   -3.87   20.34
   9  -2   8   30.09   20.57
   9  -3  -8   29.12   33.40
  -9   3  -8   23.83   13.54
  -9   3  -8    4.44   20.78
  -9   3  -8    5.97   49.08
  -9   3  -8   52.84   21.61
   9  -3  -8    1.84   24.79
   9  -3   8   33.64   20.49
   9  -3   8   30.03   23.51
   9  -3   8  -17.06   38.99
  -9   3   8   10.34   26.87
   9  -3   8   32.91   17.14
  -9   4  -8   10.60   21.73
  -9   4  -8   97.52   49.50
  -9   4  -8   20.46   22.90
   9  -4   8   31.79   24.03
   9  -4   8   64.54   41.37
   9  -4   8   32.06   17.67
   9  -4   8   29.98   20.39
  -9   5  -8  -43.78   54.54
  -9   5  -8   37.93   22.88
  -9   5  -8   -5.16   24.24
   9  -5   8   18.29   19.44
   9  -5   8    9.78   21.50
   9  -5   8    1.22   25.01
   9  -5   8  -10.75   43.32
  -9   6  -8   88.11   33.36
  -9   6  -8   92.93   29.37
   9  -6   8   88.91   27.09
   9  -6   8  160.17   46.70
   9  -6   8   98.06   32.62
  -9   7  -8  276.67   47.44
   9  -7   8  242.58   51.98
   9  -7   8  330.04   73.95
   9  -8   8    4.55   51.07
  10   7  -8  115.32   31.57
  10   6  -8   74.21   39.54
  10   6  -8   91.67   28.01
 -10  -6   8   75.34   26.46
  10   5  -8  334.58   51.30
 -10  -5   8  241.40   47.23
  10   4  -8    1.68   25.08
  10   4  -8  -44.30   32.13
 -10  -4   8   26.63   19.81
 -10  -4   8   62.71   29.42
  10   3  -8   29.52   24.64
  10   3  -8   13.46   28.85
 -10  -3   8   -7.26   18.45
 -10  -3   8   21.40   29.86
  10   2  -8  141.45   35.31
  10   2  -8   86.84   25.43
 -10  -2   8   78.48   34.01
  10   2   8   81.43   24.26
 -10  -2   8  101.35   25.29
  10   1  -8  -15.82   23.56
  10   1  -8   14.33   33.91
 -10  -1  -8    1.96   16.46
  10   1   8    3.09   27.53
 -10  -1   8  -11.47   28.35
  10   1   8   -9.52   30.95
  10   1   8   20.60   18.60
 -10  -1   8    1.97   18.40
 -10   0  -8   91.20   31.86
  10   0  -8  192.55   36.97
 -10   0  -8   96.35   72.31
  10   0  -8  229.17   44.13
  10   0   8  136.21   40.83
  10   0   8  150.01   59.61
  10   0   8  147.75   32.52
  10   0   8  232.04   42.78
 -10   0   8  125.76   36.86
 -10   1  -8    1.53   13.86
  10  -1  -8   26.18   35.19
 -10   1  -8  -72.61   26.14
 -10   1  -8  -36.30   66.86
  10  -1  -8    1.60   21.25
  10  -1   8    8.87   40.02
 -10   1   8  -28.57   28.53
  10  -1   8  -12.94   26.08
  10  -1   8   15.08   19.91
  10  -1   8   19.29   25.46
  10  -2  -8   86.94   34.86
 -10   2  -8   69.86   21.31
 -10   2  -8  122.55   29.73
  10  -2  -8   90.11   29.19
 -10   2  -8  127.18   60.02
  10  -2   8   51.12   23.60
  10  -2   8   88.48   40.89
 -10   2   8   95.34   32.10
  10  -2   8   54.94   30.15
  10  -2   8   77.81   28.46
  10  -3  -8   -7.78   26.12
 -10   3  -8   41.28   55.66
 -10   3  -8    1.55   21.86
  10  -3  -8   37.67   32.09
 -10   3  -8    9.60   14.72
 -10   3  -8   32.00   23.85
  10  -3   8   14.77   25.70
  10  -3   8    5.19   17.62
  10  -3   8   52.38   39.97
  10  -3   8  -13.57   22.49
 -10   3   8   -2.21   29.73
 -10   4  -8   30.49   16.43
 -10   4  -8    6.59   24.40
 -10   4  -8  -15.24   24.07
 -10   4  -8  -31.35   52.16
  10  -4   8   11.35   26.92
  10  -4   8    8.61   21.56
  10  -4   8   -2.63   18.43
  10  -4   8  -29.57   41.71
 -10   5  -8  167.87   43.94
 -10   5  -8  106.10   46.76
 -10   5  -8  168.18   77.01
  10  -5   8  206.07   47.79
  10  -5   8  208.89   48.15
  10  -5   8  224.41   66.16
  10  -5   8  230.51   61.29
 -10   6  -8   70.08   27.97
 -10   6  -8   91.23   32.51
 -10   6  -8  -15.54   66.13
  10  -6   8   31.73   33.55
  10  -6   8   22.04   49.42
  10  -6   8   81.67   28.67
  10  -6   8   34.23   25.73
 -10   7  -8   78.04   33.11
  10  -7   8   45.08   28.46
  10  -7   8   89.90   56.50
  10  -8   8  247.85   76.26
  11   7  -8   48.66   30.33
  11   6  -8  211.88   36.21
  11   6  -8  135.98   46.48
 -11  -6   8   93.55   32.79
  11   5  -8  -17.60   37.64
  11   5  -8   13.18   29.17
 -11  -5   8   22.63   22.72
  11   4  -8   18.69   30.99
  11   4  -8   45.82   35.32
 -11  -4   8  109.56   34.57
 -11  -4   8   29.93   22.19
  11   3  -8   26.62   40.68
  11   3  -8   27.40   30.06
 -11  -3   8   84.13   27.12
 -11  -3   8   21.78   36.69
  11   2   8   41.20   38.75
  11   2   8   -1.60   25.44
 -11  -2   8  166.36   40.17
 -11  -2   8   81.24   25.37
  11   1  -8  159.80   59.09
 -11  -1  -8  425.36   55.41
 -11  -1   8  207.68   57.58
  11   1   8  411.61   69.43
 -11  -1   8  388.86   58.40
  11   1   8  413.03   65.36
  11   1   8  291.76   53.42
 -11   0  -8   -9.33   18.74
 -11   0  -8   25.13   74.58
 -11   0   8  -60.93   34.24
  11   0   8  -11.22   29.01
  11   0   8    1.53   23.04
  11   0   8  -43.66   31.00
 -11   1  -8  384.15   96.90
 -11   1  -8  360.21   56.11
  11  -1  -8  104.78   69.55
 -11   1  -8  316.81   57.98
  11  -1  -8  403.40   59.35
  11  -1   8  304.77   59.82
  11  -1   8  447.22   74.94
  11  -1   8  349.92   67.03
 -11   1   8  246.81   56.53
  11  -1   8  141.06   52.72
 -11   2  -8   44.58   31.86
 -11   2  -8   54.64   26.38
 -11   2  -8  -25.21   62.46
 -11   2  -8   41.17   21.16
  11  -2   8   24.72   31.51
  11  -2   8   68.39   44.72
  11  -2   8   53.78   24.53
 -11   2   8   11.15   35.23
  11  -2   8   59.85   27.30
 -11   3  -8   64.26   21.79
  11  -3  -8   64.82   33.17
 -11   3  -8   83.69   29.76
  11  -3  -8   21.29   43.84
 -11   3  -8   67.96   62.70
 -11   3  -8   35.40   26.51
  11  -3   8  143.73   45.24
  11  -3   8   75.48   30.96
  11  -3   8  107.59   25.95
  11  -3   8   47.11   23.91
 -11   3   8   80.88   35.14
 -11   4  -8   65.10   25.99
 -11   4  -8   74.16   21.18
  11  -4  -8  110.53   46.91
 -11   4  -8   83.72   60.49
 -11   4  -8   53.48   29.82
 -11   4   8   62.48   38.51
  11  -4   8   81.67   33.00
  11  -4   8   20.09   24.06
  11  -4   8    8.76   45.47
  11  -4   8   65.59   23.78
 -11   5  -8   52.00   58.70
 -11   5  -8  105.80   29.96
 -11   5  -8    5.59   26.90
  11  -5   8   61.37   24.94
  11  -5   8    4.78   22.41
  11  -5   8  -91.65   49.81
  11  -5   8   13.86   31.38
 -11   6  -8   91.78   34.35
 -11   6  -8   82.88   36.40
 -11   6  -8  145.14   73.24
  11  -6   8   92.31   32.44
  11  -6   8   51.80   41.82
  11  -6   8   98.30   32.91
  11  -6   8  142.81   57.04
 -11   7  -8  122.81   34.66
  11  -7   8   54.65   30.32
  11  -7   8   31.65   56.02
  11  -8   8  -82.58   62.79
  11  -9   8   -2.74   67.13
  12   5  -8  -10.50   33.22
 -12  -5   8  -11.93   38.24
  12   4  -8  203.88   41.05
  12   4  -8   66.59   32.37
 -12  -4   8  -21.96   36.95
 -12  -4   8   48.02   27.17
  12   3  -8  -32.28   27.44
  12   3  -8    1.85   39.02
 -12  -3   8  -34.07   41.26
 -12  -3   8    4.62   25.08
  12   2  -8  392.31   74.90
  12   2  -8  453.03   85.04
  12   2   8  322.12   70.15
 -12  -2   8  399.22   73.01
 -12  -2   8  425.64   73.96
  12   1  -8    1.98   31.35
 -12  -1  -8   20.64   24.08
  12   1  -8  -34.23   42.51
 -12  -1   8  -21.52   38.33
  12   1   8  -11.75   23.41
  12   1   8   25.47   34.68
 -12  -1   8  -26.49   23.56
 -12   0  -8  732.39  132.65
  12   0  -8  887.78  139.29
  12   0  -8  984.25  154.46
  12   0   8  692.05  163.42
 -12   0   8  941.96  127.73
  12   0   8  599.26  130.99
 -12   1  -8    5.76   20.74
 -12   1  -8  -10.50   35.01
  12  -1  -8  -21.53   28.09
  12  -1  -8    2.04   41.07
 -12   1   8   35.03   34.73
  12  -1   8  -33.63   26.55
  12  -1   8  -14.36   32.52
  12  -2  -8  367.48   74.82
 -12   2  -8  370.75   72.58
 -12   2  -8  407.93   72.43
  12  -2  -8  539.02   86.24
  12  -2   8  364.76   85.82
 -12   2   8  372.43   72.15
  12  -2   8  399.97   68.06
 -12   3  -8    5.31   19.85
 -12   3  -8   51.49   31.78
  12  -3  -8   11.28   32.04
 -12   3  -8   23.16   24.72
  12  -3   8    1.67   24.33
 -12   3   8  -20.61   39.22
  12  -3   8   -7.72   32.31
 -12   4  -8   90.66   25.01
 -12   4  -8   12.53   21.03
 -12   4  -8  -78.65   65.62
 -12   4  -8   29.15   31.52
  12  -4   8   29.15   23.89
  12  -4   8   47.44   34.77
 -12   5  -8    8.19   31.91
 -12   5  -8   59.46   27.99
 -12   5  -8  -17.22   21.66
 -12   5  -8   -9.96   63.91
  12  -5   8   13.35   34.41
  12  -5   8  -20.61   23.92
  12  -5   8    1.38   23.18
  12  -5   8   -9.80   50.28
 -12   6  -8   34.11   27.54
 -12   6  -8  -11.14   70.54
  12  -6   8  -34.81   52.14
  12  -6   8   27.95   26.79
 -12   7  -8  -32.18   85.56
 -12   7  -8  -32.71   35.11
  12  -7   8   11.30   29.02
  12  -7   8  -75.42   62.84
  12  -8   8   12.83   64.41
  13   7  -8  -25.81   35.75
  13   6  -8    4.65   35.40
  13   6  -8    2.29   45.27
 -13  -6   8   -3.01   30.16
  13   5  -8   57.93   34.64
  13   5  -8  -23.41   46.43
 -13  -5   8   94.84   40.00
 -13  -5   8   33.51   31.74
  13   4  -8   50.20   46.68
 -13  -4   8   -2.70   29.59
  13   3  -8   -2.05   46.59
  13   2   8   -5.64   28.55
 -13  -1  -8  226.90   46.28
  13   1   8  219.56   58.36
  13   1   8  254.70   45.88
 -13   0  -8   12.34   41.87
 -13   0  -8  -11.36   24.44
  13   0   8    1.94   28.01
  13   0   8  -14.57   36.67
 -13   1  -8  220.22   53.05
 -13   1  -8  179.96   44.46
  13  -1   8  245.72   58.86
  13  -1   8  234.70   46.29
  13  -2  -8   31.33   48.52
 -13   2  -8  -10.12   19.92
 -13   2  -8   -2.32   38.01
  13  -2   8    3.92   27.99
  13  -2   8  -22.04   35.13
 -13   3  -8   -4.46   37.10
  13  -3  -8    2.29   46.10
 -13   3  -8    1.98   24.33
 -13   3   8  205.48   40.43
  13  -3   8    9.37   26.91
  13  -3   8   -6.80   35.70
  13  -4  -8  -23.99   35.71
 -13   4  -8   43.55   34.83
 -13   4  -8   60.19   23.37
  13  -4   8   22.73   38.09
 -13   4   8   34.73   43.31
  13  -4   8    7.20   25.87
 -13   5  -8   22.55   37.33
 -13   5  -8  -27.28   23.68
  13  -5   8    1.86   27.15
  13  -5   8  -21.83   39.94
  14   7  -8   23.29   39.67
  14   6  -8   98.06   41.30
  14   6  -8   39.96   54.26
 -14  -6   8   19.40   43.95
 -14  -6   8   26.50   34.28
  14   5  -8    4.68   44.39
  14   5  -8   17.91   39.74
 -14  -5   8    6.23   31.68
 -14  -5   8  139.74   50.08
  14   4  -8    2.52   41.37
  14   4  -8   -2.31   45.77
 -14  -4   8   -6.07   33.51
 -14  -4   8  -14.81   51.27
  14   3  -8  -14.83   36.18
  14   3  -8   65.27   48.54
 -14  -3   8   50.73   50.08
 -14  -3   8    2.94   32.61
 -14  -2  -8  -12.66   33.42
  14   2  -8 -104.99   41.82
  14   2  -8   -2.26   49.78
 -14  -2   8    8.74   33.07
 -14  -2   8  -75.07   52.52
  14   1  -8  153.64   47.95
  14   1  -8  101.39   56.27
 -14  -1   8   55.69   49.06
 -14  -1   8  -79.04   47.57
  14   0  -8  221.49   58.56
  14   0  -8   67.00   50.13
 -14   0   8   35.59   38.85
 -14   0   8   17.37   49.92
  14  -1  -8  120.95   59.86
 -14   1  -8    2.67   45.60
  14  -1  -8  169.46   42.19
 -14   1   8   45.88   49.08
  14  -1   8   96.29   39.35
  14  -2  -8    2.49   36.95
  14  -2  -8 -128.39   52.78
 -14   2  -8  -15.71   43.92
  14  -2   8   -1.87   30.60
  14  -2   8   -2.23   33.59
 -14   2   8   26.66   45.57
 -14   3  -8   12.48   42.53
  14  -3  -8    7.92   37.20
  14  -3   8    2.09   30.46
  14  -3   8  158.69   41.83
 -14   3   8   -3.08   44.45
 -14   4  -8  -26.67   40.01
  14  -4  -8   14.26   38.89
  14  -4   8  158.68   40.07
 -14   4   8   27.15   48.85
  14  -4   8   26.00   29.56
 -14   5  -8  104.72   39.20
  15   7  -8  101.15   46.12
  15   6  -8   73.93   40.71
  15   6  -8  -21.89   55.40
 -15  -6   8   -6.12   47.69
 -15  -6   8  -18.37   32.60
  15   5  -8  -84.49   44.44
  15   5  -8    2.58   53.48
 -15  -5   8  -41.48   52.45
 -15  -5   8  -24.34   36.91
  15   4  -8    8.24   40.30
  15   4  -8  -56.04   54.39
 -15  -4   8   29.46   53.26
 -15  -4   8   20.39   34.81
  15   3  -8    2.73   41.93
  15   3  -8    7.41   54.35
 -15  -3   8  -26.46   35.07
 -15  -3   8    3.30   53.35
 -15  -2  -8   23.92   33.92
  15   2  -8   43.94   44.89
  15   2  -8   12.48   54.61
 -15  -2   8  -89.32   54.84
 -15  -2   8    6.51   33.54
  15   2   8   11.28   32.38
  15   1  -8  104.98   55.56
 -15  -1  -8   33.09   55.11
 -15  -1  -8    2.98   26.11
  15   1  -8  -26.76   40.82
  15   1   8   -9.23   33.39
  15   1   8   18.82   45.25
 -15  -1   8   45.33   49.42
 -15  -1   8   -6.48   40.75
 -15   0  -8  -19.35   29.48
 -15   0  -8   95.92   52.23
  15   0  -8   52.71   56.89
  15   0  -8   -7.95   45.50
  15   0   8  -54.85   43.28
  15   0   8  -40.81   35.59
 -15   0   8   12.76   53.13
 -15   0   8   42.10   38.09
 -15   1  -8    7.95   30.01
  15  -1  -8  -42.10   38.02
  15  -1  -8  -85.00   55.92
 -15   1  -8  -47.62   47.57
  15  -1   8   41.01   34.28
 -15   1   8  -16.41   38.55
 -15   1   8  -76.15   45.84
  15  -1   8   -8.57   43.86
 -15   2  -8  168.89   48.25
 -15   2  -8   17.97   29.26
  15  -2  -8  -56.15   53.04
  15  -2  -8    2.73   40.35
  15  -2   8   46.88   33.36
 -15   2   8   32.69   51.14
  15  -2   8   22.90   42.65
 -15   3  -8   -4.94   24.66
 -15   3  -8  259.75   45.47
  15  -3   8   63.27   32.15
 -15   3   8   40.57   50.81
  15  -3   8   10.37   44.79
 -15   4  -8  133.51   41.75
  15  -4  -8   -3.07   41.78
 -15   4  -8   -9.94   27.16
  15  -4   8  -29.65   43.24
 -15   4   8   -7.35   52.68
  15  -4   8  100.32   31.28
  15  -5  -8    3.38   69.52
 -15   5   8  -57.33   61.71
  16   7  -8   86.68   51.94
 -16  -7   8  113.77   51.52
  16   6  -8   75.19   62.56
  16   6  -8    3.15   44.13
 -16  -6   8  -47.15   57.12
 -16  -6   8  -16.40   42.27
  16   5  -8  -17.03   61.40
  16   5  -8  -98.44   48.13
 -16  -5   8  -87.57   56.85
 -16  -5   8  -58.21   43.35
  16   4  -8   77.84   46.54
  16   4  -8   33.66   59.81
 -16  -4   8   10.76   55.37
 -16  -4   8  -11.41   39.20
  16   3  -8  -96.03   59.04
  16   3  -8 -110.70   45.19
 -16  -3   8   -3.73   40.82
 -16  -3   8  -58.49   62.36
 -16  -2  -8   11.16   39.14
  16   2  -8    9.00   43.28
 -16  -2  -8 -129.86   71.61
  16   2  -8   21.81   63.27
 -16  -2   8   68.93   56.55
  16   2   8    2.51   40.08
 -16  -2   8   25.18   39.66
  16   1  -8    2.74   58.52
 -16  -1  -8   -3.28   34.00
  16   1  -8   -2.95   45.63
 -16  -1  -8   44.38   59.76
  16   1   8    2.55   35.77
 -16  -1   8   35.69   57.54
  16   1   8  -23.14   48.29
 -16  -1   8  -25.00   41.14
  16   0  -8   -2.73   60.42
  16   0  -8   84.69   43.20
 -16   0  -8   86.16   57.93
 -16   0  -8   15.26   33.88
 -16   0   8   14.06   42.04
  16   0   8   94.31   40.90
  16   0   8   16.85   49.35
 -16   0   8    3.53   55.10
 -16   1  -8   36.54   55.34
  16  -1  -8   14.65   46.10
 -16   1  -8   61.78   34.79
  16  -1  -8    2.77   59.42
  16  -1   8   49.33   46.14
 -16   1   8   10.75   39.78
 -16   1   8  -14.06   52.63
  16  -1   8   70.31   42.17
 -16   2  -8   11.42   29.26
  16  -2  -8   36.02   46.63
  16  -2  -8    2.83   62.61
 -16   2  -8    9.67   50.96
  16  -2   8   39.23   49.97
 -16   2   8   36.09   56.49
  16  -2   8   13.65   43.33
 -16   3  -8   -3.09   51.70
  16  -3  -8    3.15   47.83
 -16   3  -8    2.77   31.04
 -16   3   8   14.86   54.70
  16  -3   8  -13.04   40.44
  16  -3   8  -47.63   51.32
  16  -4  -8    6.67   47.34
  16  -4  -8   22.45   71.34
 -16   4  -8   65.36   48.02
 -16   4  -8  -32.91   30.12
 -16   4   8   24.04   51.70
  16  -5  -8   39.78   80.76
 -16   5   8   56.60   63.82
  17   7  -8 -132.09   57.50
 -17  -7   8   21.02   55.06
  17   6  -8   -3.48   54.28
  17   6  -8   46.53   58.85
 -17  -6   8   13.79   40.76
 -17  -6   8  -66.81   56.41
  17   5  -8    3.13   62.93
  17   5  -8  -33.61   46.76
 -17  -5   8   -3.87   57.28
 -17  -5   8   21.73   44.01
  17   4  -8   58.50   61.63
  17   4  -8   -3.31   50.84
 -17  -4   8    8.51   45.05
 -17  -4   8  -35.58   60.41
  17   3  -8   36.90   50.96
  17   3  -8    3.04   65.42
 -17  -3   8  -29.13   44.25
 -17  -3   8    4.02   64.02
 -17  -2  -8   18.66   84.55
  17   2  -8    8.95   61.37
  17   2  -8  -69.19   51.52
 -17  -2   8   43.76   65.83
 -17  -2   8   28.10   44.45
  17   1  -8 -136.19   64.53
 -17  -1  -8   28.78   66.54
 -17  -1  -8   -3.62   39.64
  17   1  -8    3.23   48.85
  17   1   8  -56.45   58.60
  17   1   8   30.85   44.67
 -17  -1   8   43.11   61.30
 -17  -1   8    3.91   46.18
 -17   0  -8  -33.63   39.26
  17   0  -8   19.24   48.83
 -17   0  -8  -53.65   65.33
  17   0  -8    5.98   64.78
 -17   0   8  -19.33   44.17
  17   0   8    2.86   42.59
 -17   0   8  -85.39   61.61
  17   0   8  -63.47   54.95
  17  -1  -8   12.94   49.79
 -17   1  -8  -26.12   62.69
 -17   1  -8    3.26   34.01
  17  -1  -8    2.97   67.51
 -17   1   8  -27.12   40.06
 -17   1   8   11.61   61.49
  17  -1   8   42.91   44.98
  17  -1   8  -12.86   50.64
  17  -2  -8    3.30   46.40
 -17   2  -8    3.18   35.29
 -17   2  -8  117.37   59.91
 -17   2   8   32.03   39.43
  17  -2   8  -43.27   53.15
 -17   2   8  -51.83   57.96
  17  -2   8  -27.19   45.82
 -17   3  -8   -3.42   55.83
 -17   3  -8   61.91   35.63
  17  -3  -8 -110.89   47.36
 -17   3   8   -4.08   59.08
  17  -3   8   42.22   53.49
  17  -3   8   -2.89   40.15
  17  -4  -8  -28.27   72.10
  17  -4  -8  -36.42   51.88
 -17   4   8  -13.18   63.68
  17  -5  -8   86.46   90.50
 -17   5   8  -40.85   67.64
  18   7  -8  -19.95   57.23
 -18  -7   8    7.73   58.17
  18   6  -8    3.81   50.60
  18   6  -8  -73.65   72.99
 -18  -6   8   28.63   67.30
 -18  -6   8    5.19   55.33
  18   5  -8 -114.23   69.43
  18   5  -8 -128.55   60.70
 -18  -5   8   58.30   57.53
 -18  -5   8  -38.18   72.10
  18   4  -8 -123.31   62.62
 -18  -4   8  -13.10   76.42
 -18  -4   8  -61.86   60.93
  18   3  -8 -146.14   55.98
  18   3  -8   40.17   69.06
 -18  -3   8  -52.88   66.02
 -18  -3   8   46.42   54.36
  18   2  -8    9.73   68.22
 -18  -2  -8    5.22   91.21
  18   2  -8 -154.03   52.55
 -18  -2   8  -17.86   48.20
 -18  -2   8    4.36   66.12
  18   2   8    3.04   42.93
  18   1  -8   67.74   68.16
 -18  -1  -8   36.17   44.02
 -18  -1  -8  -73.21   73.97
  18   1  -8   24.77   54.03
 -18  -1   8  -17.24   69.25
  18   1   8   18.64   61.06
 -18  -1   8    8.66   49.98
  18   1   8   12.19   45.42
 -18   0  -8   14.93   40.27
  18   0  -8 -144.57   55.09
 -18   0  -8   25.57   70.67
  18   0  -8  -64.57   72.32
  18   0   8   26.16   57.22
 -18   0   8   63.83   65.44
  18   0   8  -31.55   47.09
 -18   0   8   -4.26   47.15
 -18   1  -8 -159.72   69.32
 -18   1  -8   25.31   38.53
  18  -1  -8  158.32   71.33
  18  -1  -8  -39.29   50.87
  18  -1   8   39.41   56.18
 -18   1   8 -120.01   69.10
  18  -1   8  -16.63   48.74
 -18   1   8   21.07   49.13
 -18   2  -8  -15.59   61.62
 -18   2  -8    3.54   40.36
  18  -2  -8   14.51   50.38
  18  -2   8  -52.80   46.12
  18  -2   8   47.48   58.90
 -18   2   8  -44.09   62.13
 -18   3  -8  -13.88   40.25
  18  -3  -8  -53.45   58.23
 -18   3   8  -72.12   69.01
  18  -4  -8 -163.72   65.62
  18  -4  -8 -251.04   95.09
 -18   4   8  -96.85   77.44
  18  -5  -8   25.82   95.60
 -18   5   8 -240.39   85.82
  19   6  -8  -58.92   61.43
  19   6  -8    4.10   69.73
 -19  -6   8   81.50   70.69
  19   5  -8  -78.05   63.70
  19   5  -8   11.50   79.77
 -19  -5   8  -70.42   74.55
 -19  -5   8  -10.94   63.43
  19   4  -8    4.10   61.83
  19   4  -8  -33.40   76.66
 -19  -4   8  116.87   58.89
 -19  -4   8 -101.27   79.50
  19   3  -8  -47.82   61.81
  19   3  -8 -161.74   79.49
 -19  -3   8  -82.81   61.24
 -19  -3   8  -28.91   77.49
  19   2  -8 -189.53   74.27
  19   2  -8   31.25   63.67
 -19  -2  -8   58.46   94.34
 -19  -2   8   -4.78   77.81
 -19  -2   8  -45.12   54.38
  19   2   8   23.37   51.30
 -19  -1  -8   62.74   42.52
  19   1  -8    3.52   74.05
 -19  -1  -8   -5.10   83.61
  19   1  -8  -81.60   55.52
  19   1   8  -49.80   49.77
 -19  -1   8  -14.22   73.78
 -19  -1   8  -19.04   52.99
  19   1   8   44.57   66.44
 -19   0  -8  -16.63   45.41
  19   0  -8    3.49   74.48
 -19   0  -8    4.75   77.35
  19   0  -8  -84.99   59.21
 -19   0   8    4.68   78.05
 -19   0   8    4.66   47.75
  19   0   8  124.87   66.81
  19   0   8  -90.92   54.62
  19  -1  -8   47.25   56.01
 -19   1  -8   -4.48   73.38
  19  -1  -8 -108.67   76.94
 -19   1  -8    8.02   42.46
 -19   1   8  -23.28   49.24
  19  -1   8  -21.70   54.14
  19  -1   8   18.49   65.96
 -19   1   8  -57.01   76.71
 -19   2  -8   25.68   70.23
 -19   2  -8  -23.52   43.82
  19  -2  -8   -4.01   61.26
  19  -2   8  -61.14   62.08
  19  -2   8  -43.41   54.72
 -19   2   8   97.82   74.78
  19  -3  -8    4.22   63.32
  19  -3  -8   -3.74   85.73
 -19   3   8   39.89   70.61
 -19   3   8   -5.18   53.39
  19  -4  -8    4.05   86.71
  19  -4  -8   -4.40   66.27
 -19   4   8  -53.66   80.30
  19  -5  -8    4.67   99.29
 -19   5   8   -6.18   83.94
 -20  -2  -8  -39.50  111.14
  20   2   8   32.63   51.75
 -20  -1  -8   39.85   92.16
 -20  -1  -8   30.10   49.07
  20   1   8   21.92   53.65
 -20   0  -8   18.57   49.67
 -20   0  -8 -125.84   85.33
  20   0   8   31.86   72.54
  20   0   8   38.58   59.31
 -20   1  -8   53.85   81.78
 -20   1  -8  -13.33   47.60
  20  -1   8   57.60   67.79
  20  -1   8   39.39   54.28
 -20   2  -8    8.70   48.59
   0   0  -9   16.21   24.28
   0   0   9   -5.62   14.04
   0   0   9    9.28   19.55
  -1   0  -9 1219.07  203.51
   1   0  -9 1024.59  197.15
   0   1  -9 1320.47  210.31
   0  -1   9 1284.43  202.65
  -1   0   9 1246.61  194.67
   0  -1   9 1332.03  202.98
   1   0   9 1346.32  208.85
  -1   1  -9   17.65   23.88
   1   1  -9   23.53   22.38
   1   1  -9   -3.51    7.95
   1  -1   9  -18.71   19.51
  -1  -1   9    2.76   17.72
  -1  -1   9   -8.58   12.03
   2   1  -9   33.44   24.38
   2   1  -9   19.93    9.67
   2   1  -9   30.47   11.29
  -2  -1   9   20.10   19.06
  -2  -1   9    1.56   12.44
  -2  -1   9   15.51    7.26
   0   2  -9   22.89   21.04
   2   0  -9   -1.18    9.96
   0  -2   9   -5.30   17.83
  -2   0   9   14.77   15.55
   0  -2   9   31.62   12.16
   1   2  -9   16.45    8.12
   1   2  -9   15.05    6.76
   1   2  -9   21.03   19.59
  -1  -2   9   26.64   17.05
  -1  -2   9   26.94   12.04
  -1  -2   9   23.73    6.09
   2   2  -9    0.40    9.04
   2   2  -9    2.02    6.44
   2   2  -9   -5.12   18.91
  -2  -2   9   -2.70    7.64
  -2  -2   9   -8.13   17.09
  -2  -2   9   -4.20   10.30
   3   2  -9  132.43   34.51
  -2   3  -9  245.62   38.43
   3   2  -9  146.13   26.61
   3   2  -9  148.12   29.72
  -3  -2   9  128.70   30.49
   2  -3   9  180.88   34.31
  -3  -2   9  147.05   28.10
  -3  -2   9  146.85   24.12
   2  -3   9  119.02   28.73
   3   1  -9   65.38   16.63
   3   1  -9  101.28   29.41
   3   1  -9   74.38   19.25
  -3  -1   9   62.96   24.28
  -3  -1   9   64.19   15.71
  -3  -1   9   63.02   19.80
   3   0  -9   10.73   12.39
  -3   0   9   -1.72    9.74
  -3   0   9  -11.03   14.92
   3   0   9    6.57   18.01
   1   3  -9   71.49   16.53
   1   3  -9   71.80   15.35
   1   3  -9   43.00   26.07
   1   3  -9   97.69   17.82
  -1  -3   9   91.17   13.39
   3  -1   9   79.77   22.55
  -1  -3   9  125.68   18.83
  -1  -3   9   85.30   14.40
  -1  -3   9   57.35   23.68
   2   3  -9  158.73   29.38
   2   3  -9  174.65   25.65
   2   3  -9  156.02   23.96
   2   3  -9  112.52   33.56
  -3   2  -9  145.79   39.74
   3  -2   9  168.33   31.34
   3  -2   9  106.37   23.29
  -2  -3   9  129.08   22.93
  -2  -3   9   97.16   27.39
  -2  -3   9  146.10   23.65
  -2  -3   9  115.47   31.79
   3  -2   9  158.29   34.87
  -3   3  -9    3.52    3.71
   3   3  -9    3.08   10.21
   3   3  -9   -0.51    8.17
   3   3  -9   21.89   19.21
   3   3  -9    2.08    9.80
  -3   3  -9   -0.29    5.47
  -3   3  -9   -1.29   26.63
  -3  -3   9   -1.14    9.35
   3  -3   9    1.96    4.36
   3  -3   9  -19.30   25.18
   3  -3   9    2.74    6.51
  -3  -3   9   -2.90   17.88
  -3  -3   9   16.71    9.31
  -3  -3   9   10.60    5.82
   4   3  -9  181.07   50.11
   4   3  -9  366.17   56.49
   4   3  -9  248.44   43.97
   4   3  -9  293.17   56.62
   3  -4   9  252.04   59.83
  -4  -3   9  314.69   54.56
   3  -4   9  187.44   59.57
  -4  -3   9  318.28   46.33
  -4  -3   9  356.24   45.61
   4   2  -9   11.39   13.88
   4   2  -9   14.76   20.24
  -2   4  -9   12.71   13.35
   4   2  -9   15.82    8.25
   4   2  -9    9.20    9.68
   2  -4   9    3.49   24.37
  -4  -2   9    3.82   16.84
   2  -4   9    4.56   12.76
  -4  -2   9   13.35    9.23
  -4  -2   9   11.62   11.18
  -1   4  -9   93.17   31.33
   4   1  -9  219.02   38.57
   4   1  -9  193.17   34.15
   4   1  -9  140.38   40.89
  -4  -1   9  160.53   37.99
  -4  -1   9  152.68   38.03
   1  -4   9  151.54   42.18
   1  -4   9  201.72   35.48
  -4  -1   9  193.87   30.22
   4   0  -9   -1.72   11.99
   0   4  -9   -1.01   12.28
  -4   0  -9  -17.29   33.21
   4   0   9    4.34   27.97
   0  -4   9    3.95   10.98
  -4   0   9    6.03   10.64
  -4   0   9    3.66   14.96
   4   0   9   -2.85   20.75
   1   4  -9  211.20   32.02
  -4   1  -9  207.79   49.12
   4  -1   9  176.54   38.24
   4  -1   9  157.60   30.70
   4  -1   9  144.85   42.38
  -4   2  -9   10.33    6.00
  -4   2  -9    5.84   31.16
   2   4  -9    4.64    8.06
  -4   2  -9   10.84    8.18
   4  -2   9    7.68    6.02
   4  -2   9    8.49   25.43
   4  -2   9   14.71    8.62
   4  -2   9    7.13   16.81
  -2  -4   9   24.03   20.42
   3   4  -9  308.61   44.48
  -4   3  -9  245.34   44.00
  -4   3  -9  211.27   63.10
  -4   3  -9  316.81   47.54
   3   4  -9  313.98   49.54
   3   4  -9  353.77   58.81
   4  -3   9  326.14   53.94
  -3  -4   9  277.53   55.94
   4  -3   9  292.89   61.42
  -3  -4   9  213.70   52.91
   4  -3   9  310.97   54.40
  -3  -4   9  226.13   45.21
   4  -3   9  320.80   49.68
  -4   4  -9   -1.30   15.27
   4   4  -9   -0.72   11.19
   4   4  -9   -0.76   10.18
   4   4  -9   -6.48   11.38
  -4  -4   9   12.17   19.86
   4  -4   9    1.33   26.69
   4  -4   9   11.34   15.17
  -4  -4   9   13.99    8.54
  -4  -4   9    3.48    8.92
   4  -4   9    7.74   10.11
  -4   5  -9  385.91   85.56
   4  -5   9  619.48  113.20
   4  -5   9  537.49  116.62
  -5  -4   9  492.75  102.12
   5   3  -9  532.54   80.53
   5   3  -9  500.86  102.98
   3  -5   9  621.84  107.84
  -5  -3   9  566.14  102.19
  -5  -3   9  594.82   98.36
   3  -5   9  525.17  113.01
  -2   5  -9  297.62   60.16
   5   2  -9  287.39   58.34
   5   2  -9  428.30   75.67
  -5  -2   9  449.10   73.87
   2  -5   9  355.01   81.13
  -5  -2   9  434.30   69.64
   5   1  -9  262.10   54.83
  -1   5  -9  202.20   43.91
   1  -5   9  330.16   59.58
   1  -5   9  284.31   49.88
  -5  -1   9  225.47   54.43
   0   5  -9  299.16   46.79
   5   0  -9  287.90   57.89
  -5   0  -9  331.52   69.24
   5   0   9  269.13   57.35
  -5   0   9  273.90   47.44
   5   0   9  327.96   63.94
  -5   0   9  308.75   57.62
   0  -5   9  242.04   62.94
  -5   1  -9  292.26   45.99
   5  -1  -9  275.98   54.68
  -5   1  -9  285.28   66.69
   5  -1  -9  317.13   48.31
   1   5  -9  258.87   43.38
  -1  -5   9  255.37   51.19
   5  -1   9  324.51   54.69
   5  -1   9  255.87   57.06
  -5   1   9  270.92   43.09
   5  -1   9  267.63   44.95
  -1  -5   9  261.35   57.89
  -5   2  -9  447.38   85.52
  -5   2  -9  415.57   61.69
   2   5  -9  414.32   58.94
   5  -2   9  379.60   74.80
  -2  -5   9  435.24   72.54
   5  -2   9  426.24   62.32
   5  -2   9  370.68   72.90
   5  -2   9  507.17   75.25
  -5   3  -9  618.93  111.84
   3   5  -9  724.66   96.85
   5  -3   9  470.71  104.62
   5  -3   9  609.85   91.45
   5  -3   9  470.18  108.21
  -5   4  -9  571.97   86.66
  -5   4  -9  590.61   88.17
  -5   4  -9  532.79  119.80
   5  -4   9  650.42  111.91
   5  -4   9  530.00  116.62
  -4  -5   9  680.85  107.57
   5  -4   9  580.41   99.96
   5   5  -9  -17.98   15.73
  -5   5  -9  -17.88   18.47
   5  -5   9   10.75   13.58
  -5  -5   9   -9.95   23.06
  -5  -5   9    5.03   12.80
   5  -5   9  -24.24   34.34
   5  -5   9   19.57   17.42
   6   5  -9   76.53   24.95
   6   5  -9   52.80   19.80
  -5   6  -9   56.17   23.29
  -6  -5   9   76.89   17.79
   5  -6   9   77.70   22.32
   5  -6   9  117.51   38.88
  -6  -5   9   73.36   26.46
   5  -6   9  101.87   22.06
   6   4  -9  755.91  117.82
   6   4  -9  650.89  140.41
   4  -6   9  732.24  123.66
   4  -6   9  773.56  145.85
  -6  -4   9  695.29  123.58
   4  -6   9  592.32  135.04
   6   3  -9  803.56  158.40
   6   3  -9  814.41  142.83
   6   3  -9  572.77  154.95
  -6  -3   9  932.89  153.14
   3  -6   9  735.68  174.09
  -6  -3   9  895.35  132.26
  -6  -3   9  862.20  130.48
   6   2  -9  427.26   90.68
  -2   6  -9  519.19   73.96
   6   2  -9  519.88   84.33
   6   2  -9  480.47   92.96
   6   2  -9  463.51   71.61
  -6  -2   9  467.19   91.78
   2  -6   9  531.41   89.44
  -6  -2   9  471.37   83.58
   2  -6   9  493.43  104.29
  -6  -2   9  431.45   77.67
   6   1  -9  262.27   49.68
   6   1  -9  341.05   56.59
  -1   6  -9  264.26   44.15
   1  -6   9  292.64   53.04
  -6  -1   9  351.02   45.42
   1  -6   9  373.66   63.26
   6   1   9  290.35   56.04
  -6  -1   9  205.11   52.17
   6   0  -9    2.06   14.45
  -6   0  -9    8.17   42.09
   0   6  -9   -1.28   14.84
   6   0  -9   -7.20   19.39
  -6   0   9    5.81   15.86
   0  -6   9   -5.75   13.48
   6   0   9    3.30   32.44
   6   0   9   -8.24   22.50
   0  -6   9    7.74   28.28
  -6   0   9   -6.30   13.54
  -6   1  -9  253.67   70.18
   6  -1  -9  261.90   51.07
   1   6  -9  296.67   44.21
   6  -1  -9  247.86   55.11
  -6   1   9  259.15   45.19
   6  -1   9  421.06   55.42
   6  -1   9  271.06   44.89
   6  -1   9  236.89   58.73
  -1  -6   9  292.97   59.63
  -6   2  -9  420.68  105.79
   6  -2  -9  667.23   93.90
  -6   2  -9  463.89   78.16
   6  -2   9  408.36   78.20
  -2  -6   9  459.19   97.39
   6  -2   9  376.48   91.99
   6  -2   9  405.38   93.16
   6  -2   9  448.20   90.45
  -6   3  -9  952.14  127.41
   6  -3   9  803.10  159.73
  -3  -6   9  907.12  160.61
   6  -3   9  738.01  136.54
  -6   4  -9  713.97  109.42
  -6   4  -9  944.40  145.68
   6  -4   9  797.76  137.10
   6  -4   9  610.60  122.17
   6  -4   9  725.20  123.13
   6  -4   9  666.15  143.45
   5   6  -9   65.40   19.42
  -6   5  -9   54.65   23.17
   6  -5   9   31.95   21.93
   6  -5   9   99.05   22.50
   6  -5   9   42.99   37.78
  -6   6  -9    5.08   21.74
   6   6  -9  -13.10   16.86
   6  -6   9    1.76   39.04
   6  -6   9   -2.44   19.32
   7   6  -9   -8.79   18.84
  -6   7  -9   16.59   22.94
   6  -7   9    3.94   21.18
   6  -7   9   39.11   39.60
   7   5  -9  205.30   37.55
   7   5  -9  213.86   45.59
  -5   7  -9  288.17   36.23
   5  -7   9  165.86   40.16
  -7  -5   9  214.08   34.59
   5  -7   9  313.95   57.38
  -4   7  -9   10.21   21.22
   7   4  -9  -11.96   20.97
   7   4  -9  -12.85   18.20
   4  -7   9   12.08   35.17
   4  -7   9   -1.23   19.02
  -7  -4   9    5.31   13.79
   7   3  -9 1978.04  209.83
  -7  -3   9 2045.95  190.42
  -2   7  -9   -9.61   19.48
   7   2  -9   26.83   16.45
   7   2  -9   27.91   21.89
  -7  -2   9   11.68   13.35
   2  -7   9   29.10   17.45
  -7  -2   9   16.96   19.99
   2  -7   9   11.20   33.34
   7   1  -9  456.05  100.98
   7   1  -9  587.03  113.21
  -1   7  -9  775.25   89.58
  -7  -1   9  529.72   90.96
   1  -7   9  563.32  122.50
   7   1   9  315.19  106.77
  -7   0  -9  -12.21   14.74
   7   0  -9    3.42   14.62
   7   0  -9  -13.07   23.69
  -7   0  -9  -96.34   56.06
  -7   0   9    9.25   18.61
   0  -7   9  -63.90   34.54
  -7   0   9   -3.70   10.84
   7   0   9   12.01   12.98
   7   0   9  -55.15   41.01
   7   0   9  -19.16   27.39
  -7   1  -9  501.37  126.00
   7  -1  -9  614.60  102.76
   7  -1  -9  526.59  109.80
   7  -1   9  502.34  108.17
   7  -1   9  592.94  112.76
   7  -1   9  539.20  109.55
  -7   1   9  673.95   93.20
   7  -1   9  581.58   93.02
  -7   2  -9   -9.46   10.32
  -7   2  -9   17.42   44.68
   7  -2  -9   12.05   20.90
   7  -2  -9   22.11   25.16
   7  -2   9    2.99   34.62
  -7   2   9   29.44   19.54
   7  -2   9    8.34   22.14
   7  -2   9   19.46   16.58
  -7   3  -9 2003.23  244.46
   7  -3   9 1775.65  225.72
  -7   4  -9    7.62   19.91
  -7   4  -9  -35.13   43.39
   7  -4   9   -0.80   16.99
   7  -4   9  -10.77   19.53
   7  -4   9  -26.46   37.42
  -7   5  -9  219.11   36.73
   7  -5   9  192.95   38.30
   7  -5   9  277.93   53.91
   7  -5   9  233.75   44.69
  -7   6  -9  -49.50   24.80
   7  -6   9  -22.70   21.30
   7  -6   9   -1.27   20.24
   7  -6   9   31.15   41.99
  -7   7  -9   13.47   24.56
   7   7  -9    4.84   16.76
   7  -7   9    2.74   20.78
   7  -7   9    3.94   44.43
  -7   8  -9  249.02   44.42
   8   7  -9  215.30   46.99
   7  -8   9  189.58   67.17
   8   6  -9   77.48   25.35
  -6   8  -9   64.77   30.98
   6  -8   9   98.53   48.86
  -8  -6   9   65.79   23.39
   8   5  -9   -2.63   26.53
   8   5  -9  -17.91   20.78
  -5   8  -9   -8.37   25.54
  -8  -5   9   10.03   16.16
   5  -8   9    5.96   44.17
   8   4  -9   56.24   26.42
   8   4  -9   43.01   22.61
  -8  -4   9   54.07   19.08
  -8  -4   9   76.39   26.36
   8   3  -9   20.13   23.97
   8   3  -9    7.75   19.83
  -8  -3   9   47.83   23.42
  -8  -3   9   12.70   14.31
   8   2  -9  389.94   63.63
   8   2  -9  389.91   71.40
  -8  -2   9  422.87   62.18
  -8  -2   9  350.11   59.75
   8   1  -9  157.54   36.77
   8   1  -9  187.15   44.22
   8   1   9  184.83   48.19
   8   1   9  201.94   34.48
  -8  -1   9  181.10   35.93
   8   0  -9  -11.48   18.37
   8   0  -9    9.34   26.07
  -8   0  -9   -1.48   14.60
  -8   0  -9   59.18   56.07
   8   0   9   -1.17   20.60
   8   0   9  -17.33   38.77
   8   0   9    3.63   30.45
  -8   0   9   -3.02   20.99
   8   0   9   13.89   15.26
  -8   1  -9  230.25   65.02
   8  -1  -9  168.01   38.82
   8  -1  -9  135.54   42.78
  -8   1  -9  178.88   33.60
   8  -1   9  249.69   51.65
  -8   1   9  168.40   36.41
   8  -1   9  146.99   33.24
   8  -1   9  149.20   43.50
   8  -1   9  251.39   41.95
  -8   2  -9  446.65   90.13
   8  -2  -9  314.11   65.92
  -8   2  -9  265.25   59.98
   8  -2  -9  221.47   71.88
   8  -2   9  357.34   71.29
  -8   2   9  315.25   59.85
   8  -2   9  291.79   58.93
   8  -2   9  316.96   73.48
   8  -2   9  460.61   68.34
  -8   3  -9   18.26   10.26
  -8   3  -9    7.82   18.71
  -8   3  -9   12.25   20.59
  -8   3  -9   27.92   46.26
   8  -3  -9    5.45   32.65
   8  -3   9   28.75   36.13
   8  -3   9   25.01   14.52
   8  -3   9   13.10   21.59
   8  -3   9   17.14   18.73
  -8   4  -9   74.54   48.24
  -8   4  -9   74.14   16.34
  -8   4  -9   54.32   23.47
  -8   4  -9   63.94   21.08
   8  -4   9   67.21   24.08
   8  -4   9   22.99   23.37
   8  -4   9   60.16   17.63
   8  -4   9  108.39   43.66
  -8   5  -9  -19.63   53.37
  -8   5  -9    8.55   23.88
  -8   5  -9  -13.25   21.31
   8  -5   9  -23.44   18.66
   8  -5   9   -3.72   19.57
   8  -5   9   29.17   42.64
   8  -5   9   17.26   22.46
  -8   6  -9   89.77   27.21
   8  -6   9   68.58   44.14
   8  -6   9   34.46   24.91
  -8   7  -9  275.52   43.86
   8  -7   9  198.52   67.93
   8  -7   9  218.85   48.34
  -8   8  -9   -2.35   29.13
   8  -8   9   13.35   50.47
   9   7  -9   30.84   25.08
   9   6  -9  -18.74   24.29
   9   6  -9  -44.83   34.03
  -9  -6   9  -17.31   21.77
   9   5  -9   98.79   34.93
   9   5  -9   98.31   28.88
  -9  -5   9   83.05   23.94
   9   4  -9  169.00   32.03
   9   4  -9  105.37   35.34
  -9  -4   9   97.32   32.98
  -9  -4   9  101.74   26.93
   9   3  -9   19.08   22.18
   9   3  -9   25.51   27.80
  -9  -3   9    5.28   25.38
  -9  -3   9    8.08   16.42
   9   2  -9   11.04   29.13
   9   2  -9   27.10   22.37
  -9  -2   9   15.57   25.02
  -9  -2   9    6.75   17.71
   9   1  -9   28.36   29.58
   9   1  -9   21.29   21.51
   9   1   9   -4.15   36.35
   9   1   9   39.70   17.77
  -9  -1   9   20.52   24.82
  -9   0  -9    6.50   17.24
   9   0  -9   24.29   20.51
  -9   0  -9   59.86   61.29
   9   0  -9    1.51   31.37
   9   0   9   18.20   17.10
   9   0   9   25.22   47.06
   9   0   9  -10.39   23.57
  -9   0   9   15.37   25.36
   9   0   9   35.37   31.45
  -9   1  -9   25.27   60.18
   9  -1  -9   28.91   29.03
   9  -1  -9  -15.30   22.05
  -9   1  -9   34.08   15.19
  -9   1   9   31.86   25.25
   9  -1   9   20.29   17.53
   9  -1   9   -1.62   28.12
   9  -1   9   48.00   24.26
   9  -1   9  -31.85   39.56
   9  -2  -9   60.67   31.50
  -9   2  -9   36.68   55.10
  -9   2  -9   31.75   22.32
   9  -2  -9   35.69   24.05
  -9   2  -9   23.91   13.94
   9  -2   9   14.75   17.00
   9  -2   9   56.02   40.56
   9  -2   9   37.27   24.99
   9  -2   9   12.86   21.73
  -9   2   9   55.00   27.42
  -9   3  -9   23.97   22.91
  -9   3  -9    7.85   21.06
  -9   3  -9    2.36   12.59
   9  -3  -9   21.93   34.50
  -9   3  -9   58.89   55.05
   9  -3   9   -8.42   40.00
   9  -3   9   12.52   21.99
   9  -3   9   30.65   22.93
   9  -3   9    1.11   16.76
  -9   3   9   17.96   29.52
  -9   4  -9  158.12   31.49
  -9   4  -9   90.87   26.33
  -9   4  -9   61.13   56.27
  -9   4  -9  142.79   29.29
   9  -4   9  117.28   26.49
   9  -4   9  143.39   31.64
   9  -4   9  125.15   33.78
   9  -4   9  121.00   47.69
  -9   5  -9   51.74   26.64
  -9   5  -9   84.26   58.81
  -9   5  -9   95.89   27.94
   9  -5   9   84.04   32.12
   9  -5   9   96.11   25.07
   9  -5   9  115.97   48.75
   9  -5   9   66.60   24.76
  -9   6  -9    7.90   29.79
  -9   6  -9    1.91   24.68
   9  -6   9    4.13   24.16
   9  -6   9  -46.62   49.34
  -9   7  -9   71.54   28.89
   9  -7   9    7.34   23.99
   9  -7   9   -4.36   54.23
  -9   8  -9  360.01   57.75
   9  -8   9  252.15   88.79
   9  -9   9  -55.42   59.32
  10   7  -9  119.40   30.91
  10   6  -9  269.91   53.93
  10   6  -9  278.79   66.60
 -10  -6   9  226.22   49.26
  10   5  -9   38.48   34.15
  10   5  -9   22.41   25.77
 -10  -5   9  -10.21   21.64
  10   4  -9   -1.71   28.61
 -10  -4   9   51.64   20.79
 -10  -4   9   12.17   33.40
  10   3  -9  -16.48   25.24
  10   3  -9  -30.19   32.89
 -10  -3   9  -12.87   17.29
 -10  -3   9  -57.84   32.26
  10   2  -9   40.58   32.42
  10   2  -9   17.86   22.13
 -10  -2   9   11.81   30.09
  10   2   9   16.37   20.10
 -10  -2   9   17.06   18.29
  10   1  -9   97.66   28.89
  10   1  -9  130.18   38.51
  10   1   9   60.87   24.89
 -10  -1   9   83.12   32.74
  10   1   9   83.48   40.09
 -10   0  -9   10.67   19.24
  10   0  -9   27.08   32.52
 -10   0  -9    3.02   70.57
  10   0  -9   -7.98   23.58
  10   0   9   39.15   34.03
  10   0   9   13.73   19.51
  10   0   9    6.99   52.15
  10   0   9  -11.40   26.36
 -10   0   9   -1.92   28.40
 -10   1  -9  122.16   32.31
  10  -1  -9  100.63   37.48
  10  -1  -9   96.66   30.33
 -10   1  -9  144.17   71.18
 -10   1  -9   74.58   22.75
  10  -1   9  149.04   33.50
  10  -1   9   74.59   32.14
  10  -1   9   74.35   47.54
 -10   1   9   90.16   32.04
  10  -1   9   68.69   24.94
  10  -2  -9   30.59   23.65
 -10   2  -9   24.98   61.98
 -10   2  -9    9.24   26.35
 -10   2  -9    8.58   16.11
  10  -2  -9  -34.37   33.55
  10  -2   9   27.48   18.80
 -10   2   9   10.46   29.15
  10  -2   9   68.05   44.41
  10  -2   9   29.25   25.53
  10  -2   9    4.83   24.63
 -10   3  -9  -32.93   58.70
 -10   3  -9    1.35   14.87
  10  -3  -9    5.67   38.95
 -10   3  -9   29.92   23.81
  10  -3  -9  -10.21   26.76
 -10   3  -9  -37.82   25.43
 -10   3   9   -4.70   31.10
  10  -3   9   -5.47   23.56
  10  -3   9   -7.66   19.15
  10  -3   9   -3.54   41.22
  10  -3   9    2.39   24.53
 -10   4  -9   19.10   15.56
 -10   4  -9   34.59   25.03
 -10   4  -9   28.69   26.12
 -10   4  -9   27.32   57.78
  10  -4   9   22.11   47.10
  10  -4   9   33.62   25.61
  10  -4   9   39.60   17.31
  10  -4   9    6.68   22.47
 -10   5  -9  -29.58   25.95
 -10   5  -9    8.30   25.54
 -10   5  -9  -62.00   61.59
  10  -5   9   56.71   50.66
  10  -5   9   37.03   23.21
  10  -5   9   17.91   28.24
  10  -5   9  -10.09   20.97
 -10   6  -9  239.65   87.83
 -10   6  -9  266.80   48.48
  10  -6   9  265.50   53.00
  10  -6   9  297.99   74.27
 -10   7  -9   90.28   29.85
  10  -7   9   38.63   56.07
  10  -7   9   12.20   27.80
 -10   8  -9   80.75   37.26
  10  -8   9   37.17   60.44
  10  -9   9   16.01   62.48
  11   7  -9    5.65   28.39
  11   6  -9    5.69   28.74
  11   6  -9   32.62   39.99
 -11  -6   9   44.84   25.45
  11   5  -9   48.19   29.29
  11   5  -9   40.64   38.82
 -11  -5   9   17.83   34.91
 -11  -5   9   43.04   25.00
  11   4  -9   15.31   28.31
  11   4  -9 -105.47   34.59
 -11  -4   9  -51.99   35.52
 -11  -4   9    2.16   23.58
  11   3  -9  -31.35   27.57
  11   3  -9   -1.69   36.29
 -11  -3   9    8.38   19.94
 -11  -3   9    2.24   33.77
  11   2  -9  130.29   40.39
  11   2  -9  134.90   49.17
  11   2   9  168.45   35.07
 -11  -2   9  172.18   44.24
 -11  -2   9  177.58   36.10
 -11  -1  -9    4.65   23.86
 -11  -1   9    6.49   34.60
 -11  -1   9    2.27   25.47
  11   1   9    6.12   21.44
  11   1   9  -20.41   35.12
 -11   0  -9  305.34   54.82
 -11   0  -9  302.76  101.36
  11   0  -9  181.79   71.22
  11   0  -9  222.25   57.33
 -11   0   9  179.71   55.37
  11   0   9  268.65   52.39
  11   0   9  362.81   66.20
  11   0   9  439.44   63.62
  11  -1  -9 -173.13   48.22
 -11   1  -9  -21.19   20.39
 -11   1  -9    3.68   27.57
 -11   1  -9    9.10   73.70
  11  -1   9    7.83   23.21
 -11   1   9  -23.85   32.79
  11  -1   9    1.45   30.18
  11  -1   9   12.86   28.75
  11  -1   9   -6.16   48.06
  11  -2  -9  211.43   39.11
  11  -2  -9  132.99   49.20
 -11   2  -9  159.15   38.67
 -11   2  -9  148.98   33.33
 -11   2  -9  133.16   76.48
  11  -2   9  242.18   54.36
  11  -2   9  175.94   34.14
  11  -2   9  111.69   38.06
  11  -2   9  144.26   43.58
 -11   2   9  184.82   42.76
 -11   3  -9    6.14   17.00
  11  -3  -9   27.94   41.04
 -11   3  -9   17.67   66.25
  11  -3  -9  -23.75   30.35
 -11   3  -9  -24.15   25.45
 -11   3  -9  -15.57   28.99
 -11   3   9  -30.14   35.87
  11  -3   9   -3.67   42.44
  11  -3   9   -5.81   21.68
  11  -3   9    1.33   27.48
  11  -3   9   27.38   23.41
 -11   4  -9  -29.03   28.12
 -11   4  -9   10.75   16.66
 -11   4  -9   37.31   61.31
 -11   4  -9   12.54   26.38
  11  -4   9   28.17   45.75
  11  -4   9   13.60   23.27
  11  -4   9   16.19   27.51
  11  -4   9   15.62   20.36
 -11   5  -9   17.93   20.28
 -11   5  -9  110.94   64.66
 -11   5  -9   51.31   30.52
 -11   5  -9   21.12   28.63
  11  -5   9   37.24   26.54
  11  -5   9   24.76   51.01
 -11   6  -9  -19.45   71.97
 -11   6  -9   28.89   31.74
  11  -6   9   28.12   25.91
  11  -6   9   35.93   55.95
 -11   7  -9  106.04   34.31
 -11   7  -9  -71.34   80.19
  11  -7   9  -62.21   60.82
  11  -7   9   28.46   28.11
 -11   8  -9  179.59   41.17
  11  -8   9   -7.67   64.44
  12   5  -9  -46.91   33.59
 -12  -5   9   14.80   38.84
  12   4  -9   67.86   34.21
 -12  -4   9   25.12   38.88
 -12  -4   9   77.72   26.45
  12   3  -9   -6.13   32.32
  12   3  -9    1.87   39.48
 -12  -3   9    2.50   40.57
 -12  -3   9   40.16   26.35
  12   2  -9  -33.10   32.16
  12   2  -9  -19.25   43.56
 -12  -2   9   26.43   26.47
 -12  -2   9  -62.35   38.30
  12   2   9   10.55   25.31
  12   1  -9  421.46   69.80
  12   1  -9  344.30   80.38
 -12  -1  -9  219.00   67.27
  12   1   9  269.77   65.32
 -12  -1   9  394.55   71.36
 -12  -1   9  379.81   69.53
  12   0  -9   31.63   29.11
  12   0  -9  -63.71   45.78
 -12   0  -9   27.65   23.89
  12   0   9   22.58   25.97
  12   0   9   -5.11   31.84
 -12   0   9   -4.77   37.61
 -12   1  -9  395.61   69.27
  12  -1  -9  324.58   71.25
 -12   1  -9  370.60   68.59
  12  -1  -9  669.05   82.68
  12  -1   9  409.36   82.83
  12  -1   9  401.43   65.65
 -12   1   9  412.45   70.01
 -12   2  -9   52.81   27.50
  12  -2  -9   21.15   30.05
 -12   2  -9   94.08   76.33
 -12   2  -9    2.01   32.22
 -12   2  -9   -1.84   19.35
 -12   2   9   53.13   35.48
  12  -2   9   -4.53   29.68
  12  -2   9   13.63   24.84
 -12   3  -9   26.13   19.82
 -12   3  -9   -5.33   26.52
 -12   3  -9   11.77   31.10
 -12   3  -9  -29.55   72.86
  12  -3   9   59.62   33.68
  12  -3   9    1.64   23.48
  12  -3   9   44.40   47.29
  12  -3   9   20.55   24.23
 -12   4  -9   13.47   32.39
 -12   4  -9   12.97   28.43
 -12   4  -9   26.54   68.86
 -12   4  -9   -6.94   20.56
  12  -4   9   -3.16   22.92
  12  -4   9   -1.37   24.16
  12  -4   9   13.62   49.45
  12  -4   9   10.63   35.46
 -12   5  -9   25.11   21.39
 -12   5  -9   39.46   29.29
 -12   5  -9  -16.08   73.66
  12  -5   9   -2.07   52.79
  12  -5   9    2.82   24.86
 -12   6  -9    4.26   29.20
 -12   6  -9  -20.31   76.45
  12  -6   9   24.40   26.18
  12  -6   9  -48.55   58.53
 -12   7  -9   45.75   90.41
 -12   7  -9   24.15   38.85
  12  -7   9  105.25   71.24
  12  -7   9  173.87   38.10
  12  -9   9  423.02  106.33
  13   7  -9  -16.01   36.16
 -13  -7   9  -24.40   38.42
  13   6  -9    2.34   36.77
  13   6  -9  -24.92   47.19
 -13  -6   9  -23.20   40.38
 -13  -6   9   11.92   33.12
  13   5  -9   11.80   37.77
  13   5  -9  -27.82   46.17
 -13  -5   9  -16.85   30.09
 -13  -5   9   13.62   45.55
  13   4  -9  -71.35   40.69
 -13  -4   9    2.73   28.72
 -13  -4   9   -2.77   34.68
  13   3  -9    4.15   43.08
 -13  -3   9   15.90   29.61
  13   2  -9   -2.10   51.38
  13   2   9   74.33   30.12
  13   1  -9   -2.13   43.29
 -13  -1  -9    8.03   25.68
  13   1   9   14.91   28.05
  13   1   9  -62.58   39.87
 -13   0  -9  159.68   49.84
 -13   0  -9  123.39   39.18
  13   0  -9   68.19   56.40
  13   0   9  246.87   51.83
  13   0   9  206.66   40.63
 -13   1  -9   13.04   20.86
  13  -1  -9  -57.34   47.63
 -13   1  -9   25.79   39.90
  13  -1   9    7.02   35.73
  13  -1   9  -11.92   28.90
 -13   2  -9   55.55   27.14
  13  -2  -9   -2.31   32.99
 -13   2  -9    2.28   39.49
  13  -2  -9    2.27   44.87
  13  -2   9   77.28   37.26
  13  -2   9   87.19   32.08
 -13   2   9  249.73   43.21
  13  -3  -9   -2.37   46.97
 -13   3  -9   37.03   21.79
  13  -3  -9   25.04   34.60
 -13   3  -9   37.58   37.49
  13  -3   9   21.45   35.47
  13  -3   9   -5.57   28.24
 -13   3   9   14.61   39.27
 -13   4  -9  -86.26   38.29
 -13   4  -9   13.64   19.05
  13  -4  -9 -151.13   58.25
  13  -4  -9  -16.81   38.70
  13  -4   9  -33.43   26.84
 -13   4   9  -63.83   48.73
  13  -4   9  -15.02   36.27
  14   7  -9   43.30   37.19
 -14  -7   9   15.07   34.61
  14   6  -9   32.21   50.63
  14   6  -9   95.51   39.96
 -14  -6   9   68.05   48.58
 -14  -6   9    9.88   36.35
  14   5  -9  -63.58   48.52
  14   5  -9   46.77   37.85
 -14  -5   9  -56.65   49.64
 -14  -5   9  -21.97   33.80
  14   4  -9   -2.33   50.70
  14   4  -9  -30.59   40.28
 -14  -4   9   -3.06   46.81
 -14  -4   9   30.67   32.88
  14   3  -9    5.09   40.49
  14   3  -9   50.36   52.97
 -14  -3   9   11.96   29.18
 -14  -3   9   52.24   49.67
  14   2  -9  -61.90   52.48
  14   2  -9   25.28   40.15
 -14  -2   9  -18.38   51.12
 -14  -2   9    8.95   33.60
  14   1  -9  -90.83   57.33
  14   1  -9  -46.61   43.98
 -14  -1   9  -20.86   49.79
 -14  -1   9    2.99   40.27
  14   0  -9  -89.56   56.27
  14   0  -9  -26.70   42.69
 -14   0   9  -33.69   37.94
 -14   0   9    5.87   48.91
  14  -1  -9   -2.47   55.66
 -14   1  -9   28.97   44.06
  14  -1  -9  -85.86   39.54
  14  -1   9  -39.47   35.19
 -14   1   9   32.24   47.04
  14  -2  -9    2.53   36.91
 -14   2  -9  -10.35   44.58
  14  -2  -9    2.50   54.54
  14  -2   9  111.89   37.61
 -14   2   9   27.45   44.58
  14  -2   9   24.48   31.91
 -14   3  -9   -2.19   19.93
 -14   3  -9  -79.00   43.07
  14  -3  -9  -32.63   37.56
  14  -3  -9   -2.58   53.34
 -14   3   9  -38.10   44.14
  14  -3   9  107.61   38.61
  14  -3   9   26.96   31.35
  14  -4  -9  -56.45   44.86
 -14   4  -9   -2.16   16.07
  14  -4  -9   28.43   58.59
 -14   4   9   14.33   49.41
  15   7  -9   19.76   40.59
 -15  -7   9  -12.38   43.99
 -15  -7   9   11.48   45.71
  15   6  -9  -28.55   42.98
  15   6  -9   27.20   50.69
 -15  -6   9   40.54   51.26
 -15  -6   9  -47.66   37.93
  15   5  -9   18.13   51.22
  15   5  -9  -76.59   45.08
 -15  -5   9    9.79   55.03
 -15  -5   9   -3.51   36.68
  15   4  -9   41.73   41.21
  15   4  -9    5.14   54.69
 -15  -4   9    6.89   39.10
 -15  -4   9   70.35   53.64
  15   3  -9   48.74   41.94
  15   3  -9   60.17   56.25
 -15  -3   9  -20.14   36.11
 -15  -3   9   68.19   54.57
  15   2  -9   -2.78   45.04
  15   2  -9 -126.14   56.17
  15   2   9  -31.70   31.88
 -15  -2   9  -20.19   55.77
 -15  -2   9   52.89   38.32
  15   1  -9  105.10   59.27
 -15  -1  -9   18.85   30.40
 -15  -1  -9   32.94   55.56
  15   1  -9   43.46   46.26
  15   1   9   69.28   34.16
 -15  -1   9   52.60   54.20
 -15  -1   9   16.47   43.78
  15   1   9    2.44   47.53
  15   0  -9   32.16   43.30
 -15   0  -9   24.44   49.64
  15   0  -9   86.56   56.64
 -15   0  -9  -28.06   29.76
  15   0   9    4.82   37.05
 -15   0   9    6.49   50.60
  15   0   9   46.41   42.95
 -15   0   9   16.47   38.22
 -15   1  -9   64.45   49.61
 -15   1  -9    5.32   26.50
  15  -1  -9   68.16   56.11
  15  -1  -9   37.91   41.97
  15  -1   9    2.11   43.86
  15  -1   9    2.42   36.07
 -15   1   9  -16.20   52.29
  15  -2  -9   88.15   59.37
 -15   2  -9  212.55   46.44
 -15   2  -9  -17.88   26.86
 -15   2   9    3.36   46.27
  15  -2   9  192.75   37.32
  15  -2   9  -53.56   41.35
  15  -3  -9  -53.37   41.91
 -15   3  -9  -14.70   26.37
  15  -3  -9   -5.66   58.56
  15  -3   9  -12.01   42.03
 -15   3   9  -58.97   49.99
  15  -4  -9   38.20   46.62
 -15   4   9   65.60   57.91
  16   7  -9   15.64   48.33
 -16  -7   9    9.49   48.02
 -16  -7   9    9.14   49.78
  16   6  -9   21.99   46.16
  16   6  -9  -35.96   62.29
 -16  -6   9   20.48   43.55
 -16  -6   9  -34.08   56.45
  16   5  -9   22.79   59.61
  16   5  -9  -24.77   47.99
 -16  -5   9   19.65   41.61
 -16  -5   9  -46.58   57.85
  16   4  -9   24.63   42.19
  16   4  -9  -84.89   62.73
 -16  -4   9  -11.05   56.18
 -16  -4   9  -30.92   42.60
  16   3  -9  -35.74   59.48
  16   3  -9   96.67   47.66
 -16  -3   9   34.06   43.43
 -16  -3   9  -14.99   59.24
  16   2  -9   -3.06   48.01
  16   2  -9 -110.42   62.21
 -16  -2   9  -33.07   40.66
  16   2   9   37.65   36.67
 -16  -2   9   33.23   60.10
 -16  -1  -9   10.29   34.64
  16   1  -9   58.15   60.99
 -16  -1  -9  -65.93   57.72
  16   1  -9 -134.43   45.49
 -16  -1   9  -18.09   54.96
  16   1   9  -20.39   40.30
  16   1   9   47.69   52.94
 -16  -1   9  -58.17   41.59
 -16   0  -9   -9.27   32.79
  16   0  -9   20.72   43.11
 -16   0  -9  -16.94   56.21
  16   0  -9    2.79   62.31
  16   0   9   14.50   47.33
 -16   0   9   10.70   53.93
  16   0   9    7.91   38.54
 -16   0   9   24.93   41.52
  16  -1  -9  -23.90   44.06
 -16   1  -9   -3.26   53.35
 -16   1  -9  -26.46   32.19
  16  -1  -9   -2.80   59.52
 -16   1   9   -7.16   52.95
  16  -1   9   18.90   38.37
  16  -1   9   25.35   46.90
 -16   1   9   36.34   40.58
 -16   2  -9  -19.06   53.14
 -16   2  -9  -11.37   32.36
  16  -2  -9   48.86   44.57
  16  -2  -9  -20.74   69.56
  16  -2   9  -13.65   38.33
  16  -2   9  -52.15   51.31
 -16   2   9   40.71   54.88
  16  -3  -9   64.83   44.30
  16  -3  -9  149.89   69.87
 -16   3  -9  -13.78   33.18
 -16   3   9  -30.43   53.35
  16  -4  -9  -89.51   51.80
 -16   4   9  -37.73   60.67
 -17  -7   9   46.00   67.39
 -17  -7   9  111.02   69.14
  17   6  -9    3.31   63.59
  17   6  -9   10.31   51.82
 -17  -6   9   41.44   48.90
 -17  -6   9  -29.82   56.54
  17   5  -9   12.56   65.58
  17   5  -9   13.49   50.34
 -17  -5   9  -22.01   45.12
 -17  -5   9   -3.91   63.79
  17   4  -9  -78.60   47.95
  17   4  -9  -87.15   65.64
 -17  -4   9   52.65   65.80
 -17  -4   9   56.21   45.03
  17   3  -9    3.05   66.06
  17   3  -9   40.83   51.28
 -17  -3   9   86.02   68.48
 -17  -3   9    4.24   48.76
  17   2  -9    3.33   44.86
  17   2  -9   87.45   64.94
 -17  -2  -9  -79.20   77.88
  17   2   9   35.97   47.00
 -17  -2   9  -24.24   57.84
 -17  -2   9  -32.44   47.28
  17   1  -9   74.89   62.92
 -17  -1  -9  -30.16   39.26
 -17  -1  -9  -32.37   64.31
  17   1  -9  101.69   47.90
  17   1   9  -64.74   37.95
 -17  -1   9    7.95   46.04
 -17  -1   9   19.96   63.52
  17   0  -9    9.09   65.51
 -17   0  -9  -27.32   40.34
  17   0  -9   22.77   46.71
 -17   0  -9    3.76   59.78
 -17   0   9 -101.26   60.33
 -17   0   9   43.04   45.24
  17   0   9   42.36   53.76
  17   0   9  -17.28   42.99
 -17   1  -9   -3.25   35.03
  17  -1  -9   18.11   64.79
  17  -1  -9  -56.06   47.65
 -17   1  -9   76.04   60.65
  17  -1   9   33.60   45.98
 -17   1   9   -7.92   59.28
  17  -1   9   32.77   49.66
 -17   1   9   11.72   42.84
 -17   2  -9   22.04   33.15
  17  -2  -9   -3.15   67.85
  17  -2  -9    6.72   45.48
 -17   2  -9  -41.68   58.98
  17  -2   9   19.89   50.09
 -17   2   9   48.99   61.10
  17  -2   9    3.00   45.42
  17  -3  -9   14.19   53.75
 -17   3   9   16.74   66.65
  17  -4  -9   41.27   56.09
 -17   4   9   87.00   70.37
  18   7  -9  -84.80   56.99
 -18  -7   9   11.44   61.00
  18   6  -9 -105.59   58.23
  18   6  -9   29.31   76.78
 -18  -6   9   36.35   55.88
 -18  -6   9   65.58   64.79
  18   5  -9    3.74   55.85
  18   5  -9  260.23   78.10
 -18  -5   9   59.23   57.31
 -18  -5   9   12.90   66.10
  18   4  -9 -129.04   64.50
  18   4  -9  160.41   77.66
 -18  -4   9   77.33   57.79
 -18  -4   9   44.56   73.42
  18   3  -9 -107.54   58.63
  18   3  -9 -256.05   76.72
 -18  -3   9   23.54   53.06
 -18  -3   9   -8.92   70.61
  18   2  -9    3.28   72.14
  18   2  -9   32.82   54.03
 -18  -2  -9   88.12   86.21
  18   2   9  -54.81   44.44
 -18  -2   9  -30.99   72.22
 -18  -2   9  -36.19   47.85
 -18  -1  -9   -8.96   71.73
 -18  -1  -9   -4.16   42.32
  18   1  -9 -131.08   62.17
  18   1  -9    3.61   56.74
  18   1   9  -18.41   44.67
 -18  -1   9   -4.39   50.50
 -18  -1   9   26.26   69.25
  18   0  -9    3.27   64.70
 -18   0  -9   -7.56   39.44
  18   0  -9    7.14   49.18
 -18   0  -9  -45.54   67.92
  18   0   9   26.18   57.47
 -18   0   9  -34.40   49.60
 -18   0   9   69.14   63.08
  18   0   9   12.64   43.53
 -18   1  -9  -14.34   40.49
  18  -1  -9 -175.94   52.75
 -18   1  -9  -11.95   64.87
  18  -1  -9   19.88   71.92
  18  -1   9  -13.82   53.62
  18  -1   9   26.73   49.20
 -18   1   9   -4.38   68.47
 -18   1   9   63.51   47.23
  18  -2  -9   -3.38   72.29
 -18   2  -9   80.17   38.07
  18  -2  -9  155.22   55.38
 -18   2   9  -63.24   70.27
 -18   2   9   26.40   46.61
  18  -3  -9 -206.64   66.04
 -18   3   9  -18.50   73.98
  18  -4  -9  185.00   65.70
 -18   4   9  217.04   82.99
  19   6  -9   53.88   64.25
 -19  -6   9   22.47   72.04
  19   5  -9  -76.15   56.63
  19   5  -9    3.84   77.02
 -19  -5   9   55.27   55.98
 -19  -5   9   23.71   78.94
  19   4  -9   78.63   82.19
  19   4  -9   16.56   60.12
 -19  -4   9   21.60   61.83
 -19  -4   9   14.58   77.84
  19   3  -9  -48.72   59.47
  19   3  -9  115.06   77.38
 -19  -3   9  136.15   77.42
 -19  -3   9   -5.25   60.61
 -19  -2  -9  -74.75   93.52
  19   2  -9  -53.71   78.02
  19   2  -9  -83.71   57.70
 -19  -2   9   24.21   73.49
 -19  -2   9  -20.23   59.77
  19   2   9  -40.14   49.44
  19   1  -9   -3.57   74.60
  19   1  -9   15.80   59.18
 -19  -1  -9   18.46   49.40
 -19  -1  -9  -49.68   83.51
 -19  -1   9  -19.26   75.39
 -19  -1   9   28.88   53.17
  19   1   9   30.01   48.55
 -19   0  -9  -13.72   78.12
  19   0  -9  -35.26   60.17
  19   0  -9   42.36   74.25
 -19   0  -9   -4.20   45.45
  19   0   9    3.49   51.14
 -19   0   9  -42.34   56.24
  19   0   9    6.40   65.77
 -19   0   9   52.72   76.33
  19  -1  -9   44.39   57.70
  19  -1  -9 -136.79   79.90
 -19   1  -9  -87.03   45.58
 -19   1  -9   -8.68   69.19
 -19   1   9  -14.58   78.12
  19  -1   9   47.12   53.45
 -19   1   9   79.27   55.81
  19  -2  -9   12.25   59.83
  19  -2  -9   40.09   83.94
 -19   2   9   38.33   54.67
 -19   2   9  -39.94   79.13
  19  -3  -9   55.88   61.61
 -19   3   9 -102.64   74.20
  19  -4  -9   49.86   67.07
  19  -4  -9    4.21   85.15
 -19   4   9    5.59   82.94
 -20  -2  -9  -44.82  107.74
  20   2   9   18.17   47.86
 -20  -1  -9   32.86   91.55
  20   1   9   -3.65   52.54
 -20   0  -9   -9.39   50.02
 -20   0  -9   10.10   83.31
  20   0   9   91.99   69.70
  20   0   9   23.24   59.00
   0   0 -10 5261.81 1030.64
   0   0  10 5578.57 1066.77
   0   1 -10   29.74   28.12
  -1   0  10  -26.29   17.95
   0  -1  10   -4.41   21.77
   1   1 -10  359.79   83.71
   1   1 -10  414.93   82.27
  -1  -1  10  439.99   80.63
  -1  -1  10  416.99   79.08
   2   1 -10   89.31   17.43
   2   1 -10   65.07   30.07
   1  -2  10   87.23   20.92
  -2  -1  10   54.01   19.54
  -2  -1  10   82.26   26.47
   2   0  10 2089.32  363.97
  -2   0  10 1926.64  372.91
   1   2 -10   86.40   15.49
  -2   1 -10   -1.52   30.95
   1   2 -10   78.60   27.93
   2  -1  10   99.84   22.52
  -1  -2  10   69.80   24.22
   2  -1  10   -1.23   25.15
  -2   2 -10  321.30   79.12
   2   2 -10  376.35   64.96
   2   2 -10  213.83   76.33
   2  -2  10  350.20   70.84
   2  -2  10  378.00   70.39
  -2  -2  10  347.29   70.63
  -2  -2  10  272.67   69.76
  -2  -2  10  439.75   57.27
   3   2 -10  267.34   48.07
   3   2 -10  287.31   53.19
  -2   3 -10  187.55   57.16
   3   2 -10  281.23   57.09
  -3  -2  10  217.79   52.37
   2  -3  10  274.37   50.72
  -3  -2  10  222.06   51.60
   2  -3  10  304.62   57.38
  -3  -2  10  291.20   42.90
  -1   3 -10   57.44   29.73
   3   1 -10   74.58   18.64
   3   1 -10   82.87   16.13
   3   1 -10  155.42   31.13
   1  -3  10   67.89   20.42
   1  -3  10   87.44   28.56
  -3  -1  10   71.72   14.29
  -3  -1  10  111.90   25.55
  -3  -1  10   81.75   19.88
  -3   0 -10    1.78   33.75
   3   0 -10    5.69   12.52
   0  -3  10   -8.24   13.57
  -3   0  10  -19.89   17.95
   3   0  10  -18.12   29.50
   3   0  10    1.44   18.74
  -3   1 -10   52.23   36.64
   1   3 -10   60.42   13.57
   1   3 -10   62.01   15.73
  -1  -3  10   67.62   11.78
   3  -1  10   39.12   30.33
  -1  -3  10   78.33   12.69
   2   3 -10  251.43   47.42
   2   3 -10  177.07   54.45
  -3   2 -10  217.43   63.20
   2   3 -10  298.71   52.67
   2   3 -10  360.64   42.17
   3  -2  10  230.08   54.80
  -2  -3  10  342.80   41.30
  -2  -3  10  295.04   53.90
   3  -2  10  240.58   42.34
  -2  -3  10  312.99   43.86
   3   3 -10    7.77   11.14
   3   3 -10    8.67    8.30
  -3   3 -10    9.74   29.91
  -3   3 -10    2.35    4.97
  -3   3 -10    3.70    3.23
   3   3 -10    6.82   10.28
   3   3 -10   -5.12   20.47
   3  -3  10    6.65   26.59
  -3  -3  10    1.77    6.18
  -3  -3  10   14.00    9.62
  -3  -3  10    7.80   10.73
   3  -3  10    7.89    4.16
  -3  -3  10    1.66   19.67
   3  -3  10    6.74    4.60
   4   3 -10    4.54   10.51
   4   3 -10   15.58   12.58
   4   3 -10   -1.55   19.98
  -3   4 -10    9.38   32.29
   4   3 -10    2.72    9.67
  -4  -3  10   -6.67   19.57
  -4  -3  10    5.43   11.66
  -4  -3  10   -1.13    8.82
   3  -4  10   -1.20    6.11
   3  -4  10   -2.71   29.08
  -4  -3  10   10.32    7.02
   4   2 -10  192.13   30.78
  -2   4 -10  146.42   26.66
   4   2 -10  111.18   26.57
   4   2 -10  146.20   35.07
  -4  -2  10  108.40   32.24
   2  -4  10   95.91   36.73
  -4  -2  10  127.67   27.92
   2  -4  10  104.31   28.84
  -4  -2  10  137.60   24.70
  -1   4 -10  127.34   23.49
   4   1 -10  132.82   24.60
   4   1 -10  148.35   34.28
  -4  -1  10  147.00   22.34
   1  -4  10  148.24   33.38
   1  -4  10  121.29   26.05
  -4  -1  10  136.36   27.90
   0   4 -10   -5.41   13.51
  -4   0 -10   17.11   39.15
   4   0 -10   -0.98   12.08
   4   0  10  -11.11   29.71
   0  -4  10  -12.23   12.73
  -4   0  10   -2.15   17.04
   4   0  10   23.20   20.63
   0  -4  10   -5.52   21.91
  -4   1 -10  100.47   43.09
   1   4 -10  120.07   22.62
   1   4 -10  123.70   21.44
   4  -1  10  131.62   37.70
   4  -1  10  143.26   21.39
   4  -1  10  165.60   30.27
  -1  -4  10  152.81   25.01
   2   4 -10  124.84   24.61
  -4   2 -10  119.18   45.61
   4  -2  10  127.78   37.99
   4  -2  10  142.22   22.79
   4  -2  10  159.22   32.63
   3   4 -10   -0.61   12.54
   3   4 -10    1.67    9.66
  -4   3 -10    6.49    8.74
  -4   3 -10   -1.73    5.79
  -4   3 -10  -19.73   33.05
   4  -3  10    2.66    8.91
   4  -3  10   17.07   17.46
  -3  -4  10    7.28   19.98
   4  -3  10  -23.95   29.63
  -3  -4  10   -2.86    5.96
   4  -3  10   11.81    6.94
   4   4 -10  396.04   48.33
   4   4 -10  420.69   55.00
  -4   4 -10  387.14   52.27
  -4   4 -10  437.84   73.31
  -4  -4  10  336.04   60.29
   4  -4  10  334.99   69.04
  -4  -4  10  345.38   58.23
   4  -4  10  347.11   63.04
   4  -4  10  293.46   59.23
   5   4 -10  516.19   83.92
   5   4 -10  452.47   59.10
  -5  -4  10  414.77   74.18
  -5  -4  10  496.46   65.39
   4  -5  10  442.41   86.22
  -5  -4  10  371.73   74.17
   4  -5  10  480.14   84.64
   4  -5  10  428.38   73.57
   5   3 -10  130.13   32.01
   5   3 -10  131.57   33.89
   5   3 -10   98.17   23.47
  -5  -3  10  160.68   32.45
  -5  -3  10  180.24   25.35
   3  -5  10  108.58   41.89
   3  -5  10  137.21   30.86
  -5  -3  10  134.21   27.00
   5   2 -10  404.69   80.61
   5   2 -10  395.83   81.67
   5   2 -10  287.75   62.30
  -2   5 -10  400.95   64.13
   2  -5  10  377.69   73.64
  -5  -2  10  393.22   75.99
  -5  -2  10  430.21   79.24
   2  -5  10  394.34   86.18
   5   1 -10   16.03   18.19
  -1   5 -10   15.32   15.16
   1  -5  10   19.32   27.92
   1  -5  10   27.28   14.67
  -5  -1  10    9.53   13.31
   5   0 -10   30.20   13.39
   5   0 -10   -4.68   16.83
  -5   0 -10   14.32   45.59
   0   5 -10  -10.83   14.45
  -5   0  10   -7.52   16.52
  -5   0  10   35.27   14.28
   5   0  10  -24.88   25.26
   0  -5  10    6.06   25.29
   0  -5  10   -5.37   13.06
   5   0  10  -52.02   34.00
  -5   1 -10   26.80   39.81
   1   5 -10    2.25   13.69
   5  -1 -10   12.72   19.23
   5  -1  10  -30.94   30.51
   5  -1  10    6.20    8.87
  -1  -5  10    9.44   13.69
  -1  -5  10    1.15   24.84
  -5   1  10   28.69   16.69
   5  -1  10    6.08   22.32
   2   5 -10  444.24   71.70
  -5   2 -10  385.06   92.64
  -5   2 -10  451.35   68.51
   2   5 -10  501.85   62.71
   5  -2  10  409.68   80.01
  -2  -5  10  373.72   75.90
   5  -2  10  354.67   80.42
  -2  -5  10  404.51   81.14
   5  -2  10  485.54   77.77
   5  -2  10  401.00   66.14
  -5   3 -10  157.84   46.51
   3   5 -10  135.19   27.48
  -5   3 -10  158.89   24.81
   3   5 -10  110.21   25.44
  -5   3 -10  119.22   24.64
   5  -3  10   99.66   41.83
   5  -3  10  172.60   30.04
   5  -3  10  175.66   34.45
   5  -3  10  149.84   25.67
  -3  -5  10  140.73   29.39
  -5   4 -10  432.59   63.64
  -5   4 -10  422.87   90.57
  -5   4 -10  541.23   65.73
   5  -4  10  472.45   80.27
   5  -4  10  389.05   72.96
   5  -4  10  425.48   85.72
   5  -4  10  530.64   74.80
  -5   5 -10    3.12   18.25
   5   5 -10   -2.96   17.70
   5   5 -10  -17.71   14.79
   5  -5  10   10.95   13.59
  -5  -5  10   69.17   26.11
   5  -5  10   17.59   34.81
  -5  -5  10   13.56   12.26
   5  -5  10   21.34   17.18
   6   5 -10  123.93   25.42
   6   5 -10  121.94   30.84
  -5   6 -10  132.80   27.91
   5  -6  10  118.38   26.95
  -6  -5  10  114.32   31.28
   5  -6  10   66.07   43.79
  -6  -5  10   88.09   22.38
   6   4 -10   60.04   20.49
   6   4 -10   47.92   22.46
   6   4 -10  110.59   25.58
  -4   6 -10   56.35   22.03
  -6  -4  10   63.98   17.00
   4  -6  10   74.68   38.77
  -6  -4  10   47.34   21.95
   4  -6  10   67.13   21.79
  -6  -4  10   84.91   23.58
   6   3 -10 1616.95  271.78
   6   3 -10 1410.06  309.90
   6   3 -10 1407.01  224.35
  -6  -3  10 1568.81  280.43
  -6  -3  10 1335.23  287.91
  -6  -3  10 1649.63  253.35
   3  -6  10 1554.49  321.44
  -6  -3  10 1653.88  248.99
  -2   6 -10  189.52   35.16
   6   2 -10  297.72   39.33
  -6  -2  10  174.34   36.15
   2  -6  10  211.39   38.82
  -6  -2  10  136.19   43.77
   2  -6  10  113.14   49.90
  -6  -2  10  181.54   36.22
   6   1 -10  525.46   92.40
  -1   6 -10  615.43   79.56
   6   1 -10  642.68  102.50
   6   1  10  554.43   96.74
  -6  -1  10  428.55  101.51
  -6  -1  10  607.42   83.03
   1  -6  10  614.74  109.04
   1  -6  10  538.93   95.50
   6   0 -10   72.89   19.66
  -6   0 -10   26.61   52.09
   6   0 -10   74.46   24.87
   0   6 -10   75.22   19.14
   0  -6  10   81.41   20.08
   6   0  10   35.72   37.84
   0  -6  10   77.46   33.14
  -6   0  10   75.78   22.55
   6   0  10   90.53   28.96
  -6   0  10   52.85   20.30
   1   6 -10  527.78   78.70
   6  -1 -10  519.46   99.56
  -6   1 -10  391.33  115.10
   6  -1  10  466.75   83.75
   6  -1  10  530.71  100.50
  -1  -6  10  479.70   97.77
  -1  -6  10  469.16  106.43
   6  -1  10  529.79   97.86
  -6   2 -10  129.14   34.36
  -6   2 -10  127.90   64.68
  -6   2 -10  148.61   34.71
   2   6 -10  164.76   33.83
   6  -2  10  126.80   49.37
  -2  -6  10  134.10   47.50
   6  -2  10  148.68   43.62
   6  -2  10  188.12   41.59
   6  -2  10  184.60   33.22
  -6   3 -10 1537.30  245.91
  -6   3 -10 1604.79  260.26
  -6   3 -10 1933.78  316.19
   6  -3  10 1761.25  281.23
   6  -3  10 1581.32  260.05
   6  -3  10 1562.17  302.15
   6  -3  10 1906.69  291.85
  -3  -6  10 1379.26  303.95
  -6   4 -10   71.87   46.01
  -6   4 -10   58.07   14.60
  -6   4 -10   72.08   17.60
  -6   4 -10   57.16   22.17
   6  -4  10   64.20   39.62
   6  -4  10   55.56   23.63
   6  -4  10   61.72   19.69
  -4  -6  10  120.79   30.95
   6  -4  10   73.43   16.79
  -6   5 -10  117.94   51.88
  -6   5 -10   94.86   27.36
   5   6 -10  106.65   24.58
   6  -5  10  102.65   28.43
   6  -5  10   96.11   45.02
   6  -5  10  111.69   27.65
  -6   6 -10   -8.77   19.99
   6   6 -10   -3.31   17.46
   6  -6  10   12.67   40.29
   6  -6  10    1.26   19.02
   7   6 -10   19.85   18.70
  -6   7 -10   -1.89   26.01
   6  -7  10    5.83   42.85
   6  -7  10   12.23   21.60
  -7  -6  10    3.85   14.92
   7   5 -10   24.85   25.06
   7   5 -10   68.61   21.26
  -5   7 -10   67.03   22.52
   5  -7  10   64.18   23.49
  -7  -5  10   70.80   18.37
   5  -7  10   80.62   42.61
   7   4 -10  661.30  120.96
  -4   7 -10  820.52  105.09
   7   4 -10  620.24  139.59
   4  -7  10  478.75  150.71
  -7  -4  10  759.33  111.09
   4  -7  10  771.15  128.28
  -3   7 -10   13.42   21.08
   7   3 -10    7.80   15.97
   7   3 -10   -1.06   20.56
  -7  -3  10   29.82   13.05
   3  -7  10  -16.81   36.06
  -7  -3  10   -1.35   20.08
   7   2 -10 1200.82  174.43
   7   2 -10  997.66  161.05
  -7  -2  10 1075.61  145.55
   2  -7  10  891.20  194.31
   2  -7  10 1168.32  170.52
  -1   7 -10  334.27   57.86
   7   1 -10  414.18   74.65
   7   1 -10  401.12   65.67
   1  -7  10  318.03   70.68
   7   1  10  453.86   72.60
  -7  -1  10  218.08   59.96
   1  -7  10  341.72   82.27
   0   7 -10   -9.44   19.16
   7   0 -10  -20.38   16.86
   7   0 -10    3.67   23.73
  -7   0 -10  -28.98   51.32
   0  -7  10  -16.75   32.94
   7   0  10  -19.08   38.69
   7   0  10  -11.30   29.94
   7   0  10    5.57   13.93
  -7   0  10    5.52   19.29
   7  -1 -10  380.56   67.59
   7  -1 -10  285.84   72.10
  -7   1 -10  345.16   90.66
  -7   1  10  337.14   60.51
   7  -1  10  414.18   72.23
  -1  -7  10  432.01   79.62
   7  -1  10  384.67   72.99
   7  -1  10  376.51   75.64
  -7   2 -10 1419.72  195.15
   7  -2 -10  890.18  172.57
   7  -2  10 1178.14  168.54
   7  -2  10 1152.09  166.82
  -7   2  10  755.01  140.27
  -2  -7  10 1170.07  182.05
  -7   3 -10   20.01   50.63
  -3  -7  10   11.14   30.39
   7  -3  10    9.78   22.48
   7  -3  10   -1.64   37.83
  -7   4 -10  606.62  111.23
  -7   4 -10  651.75  146.36
  -4  -7  10  710.77  136.14
   7  -4  10  766.67  126.35
   7  -4  10  750.83  141.90
  -7   5 -10   23.98   23.78
   5   7 -10   61.50   16.16
  -7   5 -10  -10.82   50.08
   7  -5  10   45.24   24.03
   7  -5  10    7.39   42.68
   6   7 -10    7.20   15.71
  -7   6 -10   25.61   21.90
   7  -6  10    5.70   42.93
   7  -6  10   -2.63   19.28
   7   7 -10    4.77   17.80
  -7   7 -10   29.42   25.83
   7  -7  10   20.78   46.79
   7  -7  10   26.80   22.05
   8   7 -10   20.22   21.73
  -7   8 -10   13.23   29.69
   7  -8  10   39.18   53.02
   7  -8  10   23.15   27.27
   8   6 -10    3.05   27.97
  -6   8 -10  -21.24   27.74
   8   6 -10   -8.36   22.10
  -8  -6  10   20.07   19.70
   6  -8  10  -27.05   47.58
   6  -8  10   -5.98   22.73
  -5   8 -10   12.33   26.18
   8   5 -10   19.71   25.09
   8   5 -10   18.03   21.59
   5  -8  10  -12.11   45.87
   5  -8  10   10.16   23.41
  -8  -5  10   16.63   18.22
   8   4 -10  164.38   35.42
   8   4 -10  119.17   40.45
   4  -8  10  141.46   54.41
  -8  -4  10   96.25   34.76
  -8  -4  10  200.40   31.08
   4  -8  10  204.52   37.67
   8   3 -10   89.02   26.36
   8   3 -10   84.95   31.30
  -3   8 -10  149.99   29.97
  -8  -3  10  168.26   31.65
   3  -8  10   63.17   47.30
  -8  -3  10   73.44   22.22
   8   2 -10  182.52   41.44
   8   2 -10  159.54   35.86
   2  -8  10  145.11   52.39
  -8  -2  10  139.59   34.41
  -8  -2  10  222.08   33.68
   8   1 -10   86.28   25.38
   8   1 -10   38.52   33.15
   8   1  10  101.04   22.49
  -8  -1  10   66.96   26.68
   8   1  10  128.20   39.19
  -8   0 -10  171.67   68.89
   8   0 -10  121.80   33.76
   8   0 -10  199.29   40.31
   8   0  10  150.15   52.52
   8   0  10  240.43   42.80
  -8   0  10  130.44   33.71
   8   0  10  120.52   29.73
  -8   1 -10  101.53   61.02
  -8   1 -10   89.82   21.72
   8  -1 -10   89.70   27.63
   8  -1 -10  117.96   33.48
   8  -1  10  126.72   22.36
   8  -1  10   93.68   28.68
   8  -1  10   75.53   37.01
   8  -1  10  115.79   43.98
  -8   1  10  103.94   28.68
  -8   2 -10  141.21   32.91
   8  -2 -10  183.97   42.99
   8  -2 -10  112.33   36.11
  -8   2 -10  159.73   30.97
  -8   2 -10  198.88   64.77
   8  -2  10  163.27   30.21
  -8   2  10  213.85   35.95
   8  -2  10  181.75   50.25
   8  -2  10  152.50   40.22
   8  -2  10  150.73   38.76
  -8   3 -10   93.66   25.36
  -8   3 -10  103.43   21.35
  -8   3 -10   39.34   55.30
  -8   3 -10  123.32   28.37
   8  -3  10  141.83   28.47
   8  -3  10   94.77   22.83
   8  -3  10  147.14   44.47
   8  -3  10  109.28   30.69
  -8   4 -10  141.72   62.64
  -8   4 -10  161.95   34.85
  -8   4 -10  149.47   31.06
  -8   4 -10  153.27   30.51
   8  -4  10  149.16   37.64
   8  -4  10  232.22   54.13
   8  -4  10  167.81   36.89
   8  -4  10  160.54   30.84
  -8   5 -10   31.77   52.42
  -8   5 -10   46.73   21.82
  -8   5 -10   14.32   24.72
   8  -5  10   11.82   45.92
   8  -5  10   22.76   21.61
  -8   6 -10    1.91   23.96
   8  -6  10   52.90   48.18
   8  -6  10    1.36   22.39
  -8   7 -10   22.47   29.40
   8  -7  10   61.47   26.28
   8  -7  10   30.19   53.35
  -8   8 -10    4.60   35.82
   8  -8  10    6.99   60.40
   8  -9  10   41.92   58.87
   9   7 -10   31.60   24.28
   7  -9  10   -2.39   55.31
   9   6 -10  160.27   37.41
   9   6 -10   86.15   47.84
  -9  -6  10  194.94   36.19
   9   5 -10   70.75   27.32
   9   5 -10   62.66   33.05
  -9  -5  10   90.06   22.68
   9   4 -10   15.04   27.17
   9   4 -10   17.03   21.18
  -9  -4  10   -3.37   16.83
  -9  -4  10  -20.45   31.00
   9   3 -10  168.04   38.46
   9   3 -10  149.92   32.10
  -9  -3  10  147.13   28.14
  -9  -3  10  137.02   34.53
   9   2 -10   90.88   27.19
   9   2 -10  107.47   34.43
  -9  -2  10   90.72   24.56
  -9  -2  10   56.76   30.76
   9   1 -10   68.85   21.55
   9   1 -10   18.46   32.49
   9   1  10   59.89   37.57
  -9  -1  10   22.60   26.29
   9   1  10   20.01   18.92
  -9   0 -10  -40.63   67.81
  -9   0 -10   28.75   17.67
   9   0 -10    8.76   19.67
   9   0 -10  -50.88   33.57
   9   0  10   -6.70   47.02
   9   0  10   -2.04   35.37
   9   0  10   -3.67   17.24
  -9   0  10   13.84   25.12
   9  -1 -10  -10.89   33.04
  -9   1 -10   74.46   18.42
   9  -1 -10   48.67   22.62
  -9   1 -10  -21.66   64.09
   9  -1  10   26.24   18.52
   9  -1  10   79.99   44.07
   9  -1  10   34.64   29.44
  -9   1  10   37.01   26.61
   9  -1  10   32.61   23.43
   9  -2 -10  115.14   35.50
  -9   2 -10  128.73   64.89
  -9   2 -10   76.80   21.15
  -9   2 -10   78.73   26.50
   9  -2 -10   93.79   29.64
   9  -2  10  144.93   46.56
  -9   2  10  118.66   32.08
   9  -2  10   62.16   28.65
   9  -2  10  144.38   33.11
   9  -2  10   73.74   22.41
  -9   3 -10   77.08   25.57
  -9   3 -10  135.99   32.39
   9  -3 -10  135.87   43.88
  -9   3 -10  158.70   63.53
  -9   3 -10   98.38   29.52
   9  -3  10   85.88   49.46
   9  -3  10  114.55   33.76
   9  -3  10  123.05   35.68
   9  -3  10  140.51   26.87
  -9   4 -10   28.81   21.48
  -9   4 -10   35.61   26.29
  -9   4 -10   -9.14   56.17
  -9   4 -10   -5.73   13.41
   9  -4  10   -2.80   24.01
   9  -4  10   21.21   22.21
   9  -4  10   15.60   15.61
   9  -4  10  -15.29   44.54
  -9   5 -10  -19.11   60.54
  -9   5 -10   40.97   27.34
   9  -5  10   93.86   27.26
   9  -5  10   70.75   50.80
  -9   6 -10  216.08   36.76
  -9   6 -10   94.91   73.84
   9  -6  10  184.26   38.49
   9  -6  10  158.39   64.48
  -9   7 -10  150.99   32.79
   9  -7  10  144.77   57.69
  -9   8 -10    2.40   32.10
   9  -8  10   21.50   27.58
   9  -8  10   29.26   58.64
   9  -9  10   -2.60   61.23
  10   7 -10   58.47   25.79
  10   6 -10   -8.61   26.13
  10   6 -10   49.03   35.18
 -10  -6  10   -4.54   21.76
  10   5 -10  114.55   33.61
  10   5 -10  136.94   38.83
 -10  -5  10  148.74   28.37
 -10  -5  10  102.18   37.98
  10   4 -10   44.22   35.58
  10   4 -10   85.44   30.49
 -10  -4  10  110.62   35.82
 -10  -4  10  101.05   24.62
  10   3 -10  -67.31   34.64
  10   3 -10  -23.19   29.99
 -10  -3  10  -14.28   34.45
 -10  -3  10   -3.76   18.50
  10   2 -10   13.26   23.66
  10   2 -10   11.08   34.57
 -10  -2  10   34.21   29.35
 -10  -2  10  -17.75   20.63
  10   1 -10    3.23   24.30
  10   1 -10   11.92   35.13
  10   1  10    9.84   20.02
 -10  -1  10   -1.96   28.32
  10   1  10  -20.28   41.12
  10   0 -10  141.74   39.97
  10   0 -10   89.31   29.25
 -10   0 -10   33.02   25.68
 -10   0 -10   25.61   77.67
  10   0  10   78.31   34.45
  10   0  10  113.35   25.68
 -10   0  10  117.43   33.86
  10   0  10  163.04   39.49
  10   0  10  130.65   59.98
 -10   1 -10  -38.15   17.33
  10  -1 -10    1.72   23.84
  10  -1 -10 -106.92   35.79
 -10   1 -10   64.88   72.77
 -10   1 -10   20.77   25.66
  10  -1  10    6.13   46.54
  10  -1  10   10.69   24.95
  10  -1  10   -9.66   20.85
 -10   1  10    4.07   28.16
  10  -1  10  -18.23   32.20
  10  -2 -10    1.91   28.06
 -10   2 -10   -1.49   15.90
 -10   2 -10   10.73   63.08
  10  -2 -10  -46.06   32.47
 -10   2 -10   30.44   25.62
  10  -2  10   32.54   44.71
  10  -2  10   18.24   18.50
  10  -2  10   19.45   24.32
 -10   2  10  -23.82   28.58
  10  -2  10  -29.75   26.69
  10  -3 -10   34.94   30.29
 -10   4 -10  120.17   65.16
 -10   4 -10  114.66   28.81
 -10   4 -10   80.45   20.49
 -10   4 -10   55.17   27.01
  10  -4  10   38.42   21.08
  10  -4  10   11.72   49.55
  10  -4  10   63.64   30.30
  10  -4  10   80.22   26.64
 -10   5 -10   36.77   32.47
 -10   5 -10   81.09   67.94
  10  -5  10   69.43   31.52
  10  -5  10  133.16   55.88
 -10   6 -10   47.30   28.77
 -10   6 -10   41.35   65.88
  10  -6  10    8.93   27.82
  10  -6  10    2.29   57.34
 -10   7 -10   36.12   74.47
 -10   7 -10   79.66   33.42
  10  -7  10   40.85   28.15
  10  -7  10   52.90   58.28
 -10   8 -10   62.63   34.42
  10  -8  10    1.71   29.01
  10  -8  10   42.94   62.41
  11   8 -10   70.30   32.89
  11   7 -10   -1.85   27.41
  11   6 -10    5.76   27.87
  11   6 -10  -11.38   37.79
 -11  -6  10   -2.46   24.02
  11   5 -10    3.55   37.53
  11   5 -10    1.96   29.04
 -11  -5  10   13.59   25.25
 -11  -5  10   30.14   34.97
  11   4 -10   -1.70   36.60
  11   4 -10   17.47   30.24
 -11  -4  10    6.50   20.09
 -11  -4  10  -16.33   39.33
  11   3 -10    7.50   29.18
  11   3 -10  -15.41   38.94
 -11  -3  10   -4.60   37.25
 -11  -3  10    6.39   23.37
  11   2 -10   24.56   35.46
  11   2 -10  -20.52   30.18
 -11  -2  10    8.79   23.59
 -11  -2  10   24.92   33.66
  11   1 -10  405.46   57.42
  11   1 -10  202.45   47.49
  11   1  10  205.21   42.48
  11   1  10  246.11   54.87
 -11  -1  10  147.50   48.21
  11   0 -10  -18.05   25.59
 -11   0 -10   38.73   81.60
 -11   0 -10   -6.29   22.47
  11   0 -10   40.68   40.73
 -11   0  10   10.83   35.41
  11   0  10   71.49   37.00
  11   0  10   -1.54   22.09
  11   0  10    3.31   31.31
 -11   1 -10  192.70   42.67
 -11   1 -10  199.87   91.97
  11  -1 -10  151.55   48.06
  11  -1 -10  289.21   59.61
 -11   1 -10  220.43   45.94
  11  -1  10  201.25   63.64
 -11   1  10  183.57   47.01
  11  -1  10  244.82   42.80
  11  -1  10  154.55   49.05
  11  -1  10  233.24   53.44
 -11   2 -10   70.01   29.47
  11  -2 -10    2.04   28.84
 -11   2 -10    5.02   18.14
  11  -2 -10  -29.35   36.66
 -11   2 -10    2.91   73.94
  11  -2  10   17.92   28.26
  11  -2  10    4.79   27.09
  11  -2  10   37.22   21.80
  11  -2  10  -66.40   45.21
 -11   2  10   -2.37   35.08
  11  -3 -10   -2.27   31.88
 -11   3 -10   15.44   27.48
 -11   3 -10  -13.06   26.85
  11  -3 -10  -47.71   39.75
 -11   3 -10   35.32   71.05
 -11   3 -10    6.14   18.12
  11  -3  10   65.47   48.91
  11  -3  10   -2.86   21.48
  11  -3  10  -21.22   27.47
  11  -3  10   29.90   27.79
 -11   3  10   21.37   37.53
 -11   4 -10  -27.02   28.87
 -11   4 -10   48.45   67.49
 -11   4 -10   32.34   26.26
 -11   4 -10   31.61   17.69
  11  -4  10    2.03   49.84
  11  -4  10   39.68   25.93
 -11   5 -10  -24.01   30.24
 -11   5 -10    5.40   69.03
  11  -5  10    2.89   23.68
  11  -5  10    2.18   53.83
 -11   6 -10   11.58   73.15
 -11   6 -10   17.03   30.02
  11  -6  10   28.79   60.79
  11  -6  10   10.76   26.76
 -11   7 -10   46.02   32.29
 -11   7 -10  -50.79   79.87
  11  -7  10    7.66   62.75
  11  -7  10   48.81   28.88
  11  -8  10   -2.70   77.71
  12   8 -10   -5.84   27.95
 -12  -7  10    3.18   36.06
  12   5 -10   -6.53   31.50
 -12  -5  10   -2.57   42.46
  12   4 -10   51.33   34.60
 -12  -4  10   -2.45   19.79
 -12  -4  10   44.08   45.13
  12   3 -10   39.95   33.12
 -12  -3  10  -15.44   43.20
 -12  -3  10   70.04   27.01
  12   2 -10   83.16   34.18
  12   2 -10  156.56   43.33
 -12  -2  10   30.39   39.19
  12   2  10   67.65   26.30
 -12  -2  10   61.69   28.11
  12   1 -10  109.86   42.71
  12   1 -10   54.50   31.82
  12   1  10  -17.08   25.39
 -12  -1  10   17.26   37.93
 -12  -1  10  -38.78   28.90
 -12   0 -10  222.38   46.69
  12   0 -10  146.27   50.11
 -12   0  10  227.13   52.65
  12   0  10  222.63   45.39
  12   0  10  198.24   58.04
 -12   1 -10  -24.26   22.58
 -12   1 -10    2.06   32.46
 -12   1 -10  -38.62   84.11
  12  -1 -10   14.57   32.22
  12  -1  10   35.19   53.59
  12  -1  10   24.91   26.12
  12  -1  10   40.16   33.99
  12  -1  10  -31.36   30.79
 -12   1  10   22.20   36.20
 -12   2 -10  -15.52   30.80
 -12   2 -10   87.71   81.56
 -12   2 -10   54.23   23.74
  12  -2 -10   37.09   34.03
 -12   2 -10   67.48   34.44
  12  -2  10   50.31   33.81
  12  -2  10    6.73   26.54
 -12   2  10   91.10   39.91
  12  -2  10  -14.79   50.93
  12  -2  10   43.21   30.78
 -12   3 -10   24.97   28.80
 -12   3 -10    2.88   73.47
 -12   3 -10    5.82   32.44
 -12   3 -10   -1.74   20.25
  12  -3  10   34.00   24.41
  12  -3  10   99.53   52.29
  12  -3  10   15.94   30.96
  12  -3  10  -28.51   26.79
 -12   4 -10  -56.93   71.18
 -12   4 -10   13.68   29.35
  12  -4  10   16.33   26.39
  12  -4  10   85.46   54.67
 -12   5 -10  -43.83   74.10
 -12   5 -10   36.98   30.34
  12  -5  10   37.05   55.00
  12  -5  10   -2.94   25.17
 -12   6 -10   24.51   79.53
 -12   6 -10   21.82   32.96
  12  -6  10  -65.71   63.09
  12  -6  10   33.10   28.32
 -12   7 -10  -13.46   92.01
  12  -7  10   29.34   71.36
  12  -9  10    3.01   74.03
  13   8 -10   15.00   34.89
  13   7 -10   38.59   34.12
 -13  -7  10    6.81   31.55
  13   6 -10   61.28   36.30
  13   6 -10    2.25   44.96
 -13  -6  10  -32.51   30.75
 -13  -6  10    8.01   43.25
  13   5 -10  -64.72   44.63
  13   5 -10  -14.40   39.56
 -13  -5  10   56.52   32.93
 -13  -5  10   22.51   46.95
  13   4 -10  145.43   55.81
  13   4 -10  202.58   45.72
 -13  -4  10  183.68   54.06
 -13  -4  10   19.36   36.79
  13   3 -10    2.10   46.11
 -13  -3  10   -5.43   30.87
  13   1 -10    2.17   47.79
  13   1  10    7.51   27.53
 -13  -1  10    2.81   32.03
 -13   0 -10  -14.76   24.38
  13   0 -10   69.48   48.09
 -13   0 -10   16.97   41.69
  13   0  10    1.96   29.39
  13   0  10   44.33   39.48
  13  -1 -10   16.36   50.02
  13  -1 -10   -2.27   32.41
 -13   1 -10  -11.57   38.59
 -13   1 -10   31.16   24.67
 -13   1  10  212.48   42.66
  13  -1  10   84.13   36.02
  13  -1  10   65.81   28.31
  13  -2 -10   35.52   34.94
 -13   2 -10  -56.10   37.85
  13  -2 -10  -55.90   46.86
 -13   2 -10  -37.52   24.47
 -13   2  10   -8.56   41.30
  13  -2  10   -1.68   34.35
  13  -2  10  -36.42   29.79
 -13   3 -10  -31.27   21.63
  13  -3 -10  -43.76   35.36
  13  -3 -10   -2.46   53.01
 -13   3 -10    8.72   37.84
 -13   3  10  -39.89   42.72
  13  -4 -10  430.35   70.22
 -13   4  10   62.16   52.22
 -13   8 -10  -29.28   39.04
 -13   9 -10  -62.27  102.03
  13 -10  10 -482.47  151.14
  14   8 -10   16.67   34.94
  14   7 -10  -55.34   39.27
 -14  -7  10   29.31   43.08
 -14  -7  10   14.80   38.24
  14   6 -10   81.48   48.26
  14   6 -10  -57.24   37.30
 -14  -6  10   -3.28   34.83
 -14  -6  10  -55.65   49.23
  14   5 -10    2.62   40.57
  14   5 -10  -47.48   50.32
 -14  -5  10    9.50   33.53
 -14  -5  10  -30.77   51.74
  14   4 -10   36.11   38.98
  14   4 -10   53.74   50.05
 -14  -4  10   75.62   52.71
 -14  -4  10   52.87   34.83
  14   3 -10  -15.89   42.96
  14   3 -10  -53.39   53.77
 -14  -3  10  -12.13   33.45
 -14  -3  10  -12.79   53.96
  14   2 -10   12.73   41.09
  14   2 -10  124.89   60.84
 -14  -2  10   24.52   30.58
 -14  -2  10   74.62   52.34
  14   1 -10    7.17   54.92
  14   1 -10   -2.49   38.55
 -14  -1  10   15.27   35.01
 -14  -1  10   -6.05   50.00
  14   0 -10  -34.40   36.51
  14   0 -10  -59.96   54.02
 -14   0  10   37.37   35.14
 -14   0  10   32.36   49.54
 -14   1 -10   -5.16   42.43
  14  -1 -10  -57.57   37.30
  14  -1 -10  -75.64   50.35
  14  -1  10  -50.74   34.93
 -14   1  10   42.10   48.93
 -14   2 -10  -50.42   42.20
  14  -2 -10 -121.44   42.03
  14  -2 -10    2.56   57.04
  14  -2  10   96.01   38.35
 -14   2  10  -28.28   48.69
  14  -2  10  -13.04   33.71
  14  -3 -10    2.78   38.54
  14  -3 -10    2.67   51.46
 -14   3  10   26.61   48.71
  14  -4 -10    2.99   62.11
 -14   4  10    7.67   55.23
 -15  -8  10  -33.73   41.93
  15   7 -10  -13.88   42.99
 -15  -7  10   49.68   44.20
 -15  -7  10   -4.07   44.24
  15   6 -10 -143.09   47.52
  15   6 -10   29.82   54.64
 -15  -6  10  -18.28   41.49
 -15  -6  10    6.37   52.45
  15   5 -10    2.86   44.32
  15   5 -10  -80.91   55.30
 -15  -5  10    3.37   51.87
 -15  -5  10  -31.93   35.98
  15   4 -10  -45.85   44.30
  15   4 -10    2.59   56.18
 -15  -4  10  -27.71   58.79
 -15  -4  10   20.97   36.57
  15   3 -10  -33.05   56.93
  15   3 -10   -5.78   41.89
 -15  -3  10   31.49   57.39
 -15  -3  10  -17.09   38.61
  15   2 -10   30.70   58.89
  15   2 -10  -61.95   42.79
 -15  -2  10  -47.86   55.64
  15   2  10   34.08   33.44
 -15  -2  10    6.76   39.10
 -15  -1 -10   55.15   52.76
  15   1 -10   -2.75   39.34
  15   1 -10 -124.81   54.93
 -15  -1 -10   10.12   34.69
 -15  -1  10  -26.89   40.49
  15   1  10  -13.91   33.48
 -15  -1  10   40.18   54.90
  15   0 -10   28.95   58.81
  15   0 -10    2.71   40.57
 -15   0 -10  -32.13   34.01
 -15   0 -10   11.97   49.42
 -15   0  10   16.77   37.31
  15   0  10    2.42   32.49
  15   0  10  -22.60   45.29
 -15   0  10    3.26   52.66
  15  -1 -10   32.08   56.85
 -15   1 -10  169.20   47.10
 -15   1 -10   -2.69   29.79
  15  -1 -10    2.76   41.15
  15  -1  10   12.17   37.00
 -15   1  10   13.28   49.93
  15  -1  10  -12.53   41.71
  15  -2 -10    8.48   42.88
 -15   2 -10   -2.81   35.17
  15  -2 -10  -39.70   62.83
 -15   2 -10   61.47   30.85
 -15   2  10   62.15   50.89
  15  -3 -10  -64.32   63.45
  15  -3 -10 -151.63   44.21
 -15   3  10  -36.13   51.02
  15  -4 -10  -79.76   71.89
  15  -4 -10   -9.99   44.05
 -15   4  10    8.19   55.57
  16   7 -10  -55.41   46.01
 -16  -7  10   19.15   54.20
 -16  -7  10   36.09   44.66
  16   6 -10    2.99   59.02
  16   6 -10  -56.24   50.81
 -16  -6  10   34.69   54.04
 -16  -6  10    8.20   42.20
  16   5 -10  -17.23   58.95
  16   5 -10  -12.45   47.54
 -16  -5  10   11.93   42.69
 -16  -5  10   14.68   55.98
  16   4 -10   57.18   47.03
  16   4 -10    2.86   58.14
 -16  -4  10    3.80   62.22
 -16  -4  10    3.93   38.18
  16   3 -10  -44.61   64.45
  16   3 -10   15.81   44.75
 -16  -3  10    3.82   41.21
 -16  -3  10   69.03   59.98
  16   2 -10    6.17   48.15
  16   2 -10   39.35   62.76
 -16  -2  10    3.75   43.40
  16   2  10   20.08   38.64
 -16  -2  10   60.15   59.72
  16   1 -10   -6.07   43.62
 -16  -1 -10   98.72   39.45
  16   1 -10  112.27   67.95
 -16  -1 -10   28.66   58.17
 -16  -1  10  -44.44   57.55
  16   1  10   33.20   41.76
 -16  -1  10   18.50   41.35
  16   0 -10   53.85   47.84
 -16   0 -10   35.20   36.35
  16   0 -10    2.83   61.04
 -16   0 -10   42.89   56.60
  16   0  10   -5.31   39.02
  16   0  10  -98.17   51.62
 -16   0  10    3.61   56.72
 -16   0  10   18.18   41.90
 -16   1 -10   88.64   34.02
 -16   1 -10  139.15   53.69
  16  -1 -10   73.59   45.37
  16  -1 -10   48.40   67.13
  16  -1  10   51.27   45.44
  16  -1  10   11.41   48.10
 -16   1  10   66.02   54.06
 -16   1  10   69.57   46.05
  16  -2 -10  -18.66   44.14
 -16   2 -10   16.99   31.66
  16  -2 -10   36.41   67.64
 -16   2  10   45.53   59.12
  16  -3 -10   35.29   68.23
  16  -3 -10    6.62   45.09
 -16   3  10   47.44   56.43
  16  -4 -10   -3.46   75.57
  16  -4 -10    7.18   52.90
 -16   4  10  -30.96   63.87
  17   7 -10 -176.76   58.55
 -17  -7  10   35.40   53.07
 -17  -7  10 -142.94   59.24
  17   6 -10  -37.52   56.15
  17   6 -10 -148.55   73.96
 -17  -6  10    7.59   58.92
 -17  -6  10  -18.45   48.79
  17   5 -10   41.08   63.09
  17   5 -10    3.44   50.29
 -17  -5  10   96.37   65.25
 -17  -5  10    4.46   47.08
  17   4 -10   22.02   67.82
  17   4 -10   31.72   52.71
 -17  -4  10  -52.78   46.08
 -17  -4  10  -12.52   70.18
  17   3 -10   15.34   63.02
  17   3 -10    3.45   51.92
 -17  -3  10  -38.76   44.22
 -17  -3  10  -12.51   67.46
 -17  -2 -10   18.29   74.08
  17   2 -10    3.06   66.64
  17   2 -10  108.46   51.76
 -17  -2  10    8.26   44.13
  17   2  10   22.14   37.60
 -17  -2  10    4.13   66.06
  17   1 -10   83.05   65.19
 -17  -1 -10   78.72   62.88
  17   1 -10    6.68   51.69
  17   1  10  -14.10   41.84
 -17  -1  10    8.10   42.26
 -17  -1  10   24.37   63.03
 -17   0 -10  -10.93   60.71
  17   0 -10   16.45   48.81
 -17   0 -10    3.52   35.67
  17   0 -10   12.28   65.81
 -17   0  10   -8.02   59.64
  17   0  10   -8.04   50.41
 -17   0  10    3.95   43.29
  17   0  10  -17.35   42.08
  17  -1 -10    3.12   71.27
 -17   1 -10   12.98   36.27
 -17   1 -10  -38.41   56.79
  17  -1 -10 -101.36   49.80
  17  -1  10  -15.00   44.24
 -17   1  10   28.44   60.73
 -17   1  10  -82.64   46.81
  17  -2 -10   29.00   66.84
  17  -2 -10  -47.99   50.99
 -17   2  10  -87.64   64.51
  17  -3 -10    3.48   78.56
  17  -3 -10   -3.63   51.62
 -17   3  10   17.38   60.90
  17  -4 -10 -166.95   73.85
  17  -4 -10   -3.90   51.52
 -17   4  10   43.38   72.06
  18   7 -10    3.72   55.41
 -18  -7  10  -85.81   64.40
 -18  -7  10   41.86   63.84
  18   6 -10   -3.73   53.91
  18   6 -10   40.23   71.33
 -18  -6  10    4.12   68.62
 -18  -6  10    5.22   52.21
  18   5 -10  -11.46   53.17
  18   5 -10   66.27   69.59
 -18  -5  10  -96.54   71.76
 -18  -5  10   85.06   51.95
  18   4 -10 -107.10   75.56
  18   4 -10  -42.22   59.46
 -18  -4  10  -29.46   55.10
 -18  -4  10  -63.47   69.65
  18   3 -10   67.99   68.40
  18   3 -10  438.10   92.26
 -18  -3  10  258.39   82.37
 -18  -3  10   23.96   62.10
  18   2 -10 -284.08   75.76
 -18  -2 -10  -30.25   86.07
  18   2 -10 -148.29   55.67
  18   2  10    6.08   49.27
 -18  -2  10   -4.50   69.78
 -18  -2  10    4.59   55.06
  18   1 -10 -162.61   78.79
 -18  -1 -10   -8.64   72.60
  18   1 -10  -98.89   60.17
 -18  -1  10  -22.12   52.80
 -18  -1  10  -57.97   69.84
  18   1  10    3.08   44.16
 -18   0 -10  -34.96   41.04
  18   0 -10   16.61   77.26
 -18   0 -10  -39.83   64.96
  18   0 -10 -124.62   59.46
 -18   0  10  -64.94   46.64
  18   0  10   49.88   59.63
 -18   0  10 -115.35   71.30
  18   0  10   15.69   44.48
  18  -1 -10  -92.98   63.77
 -18   1  10  115.00   51.14
 -18   1  10   40.51   69.29
  18  -2 -10  -34.06   59.22
  18  -2 -10 -313.78   91.51
 -18   2  10    4.42   52.25
 -18   2  10  -32.21   71.47
  18  -3 -10  115.43   69.70
 -18   3  10   86.48   77.95
  18  -4 -10  -17.07   63.82
 -18   4  10  -26.47   73.66
  19   6 -10 -100.02   66.70
 -19  -6  10   -4.51   75.31
  19   5 -10 -110.58   63.28
 -19  -5  10    4.81   75.57
 -19  -5  10   33.61   60.46
  19   4 -10  147.65   82.15
  19   4 -10  -16.71   61.83
 -19  -4  10  132.88   78.20
 -19  -4  10  -32.93   63.95
  19   3 -10   32.84   66.10
  19   3 -10   26.24   81.23
 -19  -3  10   59.37   76.12
 -19  -3  10  -58.61   55.64
  19   2 -10    3.63   80.22
  19   2 -10   16.22   62.48
 -19  -2  10  -50.90   56.00
 -19  -2  10  123.54   77.10
  19   1 -10  -36.21   64.73
  19   1 -10  -39.74   74.83
 -19  -1 -10  -38.10   81.58
  19   1  10    3.34   46.96
 -19  -1  10   -9.75   54.74
 -19  -1  10   14.62   80.00
  19   0 -10   29.01   81.26
 -19   0 -10   56.02   48.67
  19   0 -10  -48.56   59.53
 -19   0  10    4.75   49.35
 -19   0  10   34.21   72.14
  19  -1 -10   -4.09   60.27
  19  -1 -10 -193.79   81.42
 -19   1  10  -29.97   73.81
 -19   1  10   74.87   54.14
  19  -2 -10   46.58   61.87
  19  -2 -10  -44.71   78.67
 -19   2  10  -45.68   75.25
 -19   2  10    4.79   56.95
  19  -3 -10    4.39   64.98
  19  -3 -10   31.56   89.97
 -19   3  10  -69.24   77.81
 -19   3  10   46.67   64.61
  19  -4 -10    4.70   70.92
 -19   4  10   52.76   87.98
 -20  -1 -10  -26.01   85.19
  20   1  10  -36.13   53.61
   1   1 -11   11.35   10.19
  -1   1 -11   64.00   33.78
   1  -1  11   31.03   25.09
   1  -1  11   18.43   18.20
   2   1 -11  257.23   59.60
  -1   2 -11  303.70   67.92
   2   1 -11  379.88   64.24
   1  -2  11  232.30   60.35
   1  -2  11  238.49   58.54
  -2  -1  11  447.77   59.61
  -2  -1  11  323.07   62.67
  -2   0 -11   14.79   35.88
   2   0  11    1.59   28.71
   0  -2  11   10.06   16.78
  -2   0  11   39.26   19.19
   2   0  11   -6.04   20.03
   1   2 -11  295.02   59.51
  -2   1 -11  211.67   69.36
   2  -1  11  291.91   62.27
   2  -1  11  318.32   58.47
   2   2 -11   -4.68   26.77
   2   2 -11    4.58    9.48
  -2   2 -11  -12.33   31.84
   2   2 -11    2.64   10.73
  -2  -2  11   29.63   21.10
   2  -2  11   -8.91   18.76
  -2  -2  11   -0.53    8.20
   2  -2  11    2.58   25.15
   3   2 -11   83.88   15.82
   3   2 -11   66.82   18.81
   3   2 -11  109.25   28.64
  -2   3 -11   64.14   33.43
   2  -3  11  104.45   31.02
  -3  -2  11   70.59   14.57
  -3  -2  11   47.05   18.85
   2  -3  11   48.67   21.28
  -3  -2  11   63.65   26.48
   3   1 -11    5.90   14.15
   3   1 -11   14.00   30.82
  -1   3 -11   22.48   28.18
   3   1 -11   16.44   12.73
  -3  -1  11    0.95   16.24
   1  -3  11    8.91   16.53
  -3  -1  11   -9.91   23.96
   1  -3  11   13.78   26.69
  -3  -1  11   -5.56   10.44
  -3   0 -11   58.50   41.59
   3   0 -11  111.34   22.69
   0   3 -11   92.03   33.07
   0  -3  11   72.39   30.80
  -3   0  11   99.86   27.53
   0  -3  11   61.41   23.07
   3   0  11   84.35   37.43
   1   3 -11    7.54    5.84
  -3   1 -11  -21.66   38.66
   1   3 -11    5.97    6.90
  -1  -3  11    1.89   13.98
  -1  -3  11    4.15    4.11
  -1  -3  11    3.80    6.05
   3  -1  11   -4.30   27.90
   2   3 -11   70.81   14.66
  -3   2 -11   76.54   37.74
   2   3 -11   59.79   16.64
  -2  -3  11   98.20   14.03
   3  -2  11   79.75   31.48
   3  -2  11   59.35   11.93
  -2  -3  11   56.16   11.88
   3   3 -11   10.76   23.17
  -3   3 -11   -2.33    4.75
   3   3 -11   -6.54    9.59
  -3   3 -11  -18.47   34.44
   3   3 -11   -6.86   12.10
  -3  -3  11    0.91   21.09
   3  -3  11    1.65    3.70
   3  -3  11  -17.05   29.33
  -3  -3  11   -3.57    6.29
  -3  -3  11  -10.79   10.06
  -3   4 -11   40.77   34.37
  -3   4 -11   20.76    6.12
   4   3 -11   41.67   12.46
   4   3 -11   26.34   24.41
   4   3 -11   14.95   11.25
  -4  -3  11   37.42   13.89
  -4  -3  11   33.39   20.77
   3  -4  11   21.00    7.91
   3  -4  11   34.35   32.89
  -4  -3  11   26.43   12.33
  -4  -3  11   54.82    9.28
  -2   4 -11  533.44   78.46
   4   2 -11  401.64   63.92
   4   2 -11  411.17   72.96
  -2   4 -11  436.37   57.02
  -4  -2  11  390.05   67.73
  -4  -2  11  471.97   69.73
   2  -4  11  239.90   65.19
   2  -4  11  312.36   72.79
  -4  -2  11  254.18   57.15
   4   1 -11   35.86   30.41
  -1   4 -11   -7.28   33.77
  -1   4 -11    1.23   14.55
   4   1 -11   -0.83   12.37
   1  -4  11   10.47   28.47
  -4  -1  11   -6.09   16.09
   1  -4  11    3.14   15.73
  -4  -1  11   10.71   11.96
   0   4 -11   -2.32   13.53
   0   4 -11    8.25   29.92
  -4   0 -11    6.22   41.45
   0  -4  11    9.81   26.66
   0  -4  11   13.63   13.70
  -4   0  11   12.51   21.02
   4   0  11   13.82   33.67
   4   0  11  -11.68   23.65
   1   4 -11    1.62    5.63
  -4   1 -11   29.04   40.27
   1   4 -11   12.99   13.47
   1   4 -11   -2.58   28.02
   4  -1  11  -15.21   21.94
  -1  -4  11   -0.31    6.33
  -1  -4  11   -6.24   13.06
  -1  -4  11   -4.60   25.82
   4  -1  11  -19.69   31.61
   2   4 -11  417.14   61.76
   2   4 -11  331.87   54.56
  -4   2 -11  305.97   82.31
   4  -2  11  411.79   71.55
   4  -2  11  378.85   67.87
   4  -2  11  358.81   55.73
  -2  -4  11  354.00   54.33
  -2  -4  11  318.61   56.81
  -2  -4  11  388.99   64.56
  -4   3 -11   35.21   39.02
   3   4 -11   41.21   14.43
   3   4 -11   50.43   11.67
  -4   3 -11   47.37   10.03
  -4   3 -11   28.74    7.33
   4  -3  11   42.20   32.06
  -3  -4  11   45.10   12.07
  -3  -4  11   38.46    9.64
   4  -3  11   28.10   21.32
   4  -3  11   33.80    8.95
   4  -3  11   29.84    9.88
  -4   4 -11  140.16   46.25
  -4   4 -11   39.99   22.95
  -4   4 -11   44.27   10.84
   4  -4  11   58.30   22.90
   5   4 -11   -6.65   16.62
   5   4 -11   20.64   25.17
  -4   5 -11   10.99   20.99
   5   4 -11   -3.10   11.42
   4  -5  11  -17.82   35.52
   4  -5  11  -13.56   19.45
  -5  -4  11   -6.85   23.32
  -5  -4  11    4.04   10.13
  -5  -4  11   -1.26   10.98
  -5  -4  11   58.03   16.26
   5   3 -11  261.17   73.33
  -3   5 -11  346.09   55.44
   5   3 -11  260.49   51.39
   5   3 -11  272.15   68.13
   3  -5  11  376.27   73.29
  -5  -3  11  222.34   67.31
  -5  -3  11  389.59   54.95
  -5  -3  11  375.23   60.88
  -2   5 -11   16.97   15.73
   5   2 -11   12.35   21.07
   5   2 -11 -109.26   34.07
   2  -5  11   19.84   31.79
   2  -5  11   18.75   18.13
  -5  -2  11  -87.37   33.83
  -5  -2  11   -0.98   12.79
  -5  -2  11   -6.56   14.99
   5   1 -11  124.43   28.00
  -1   5 -11   73.90   23.09
   5   1 -11  151.36   22.74
   1  -5  11  120.39   23.67
   1  -5  11  149.62   35.38
  -5  -1  11  100.72   21.16
  -5  -1  11   67.13   24.74
   0   5 -11  -10.16   15.92
  -5   0 -11   -8.88   45.14
   5   0 -11   22.49   19.62
   5   0 -11   17.65   15.59
   5   0  11    1.82   35.80
   0  -5  11  -24.70   31.00
   0  -5  11    2.88   13.60
   5   0  11   26.70   26.50
  -5   0  11    9.98   19.32
  -5   0  11    1.15   15.11
   1   5 -11  111.63   18.24
   1   5 -11  117.91   22.11
   5  -1 -11   58.51   27.17
  -5   1 -11   83.44   49.08
  -1  -5  11   63.00   33.08
  -1  -5  11   86.88   22.43
   5  -1  11   52.92   18.14
   5  -1  11   38.51   37.84
   5  -1  11   62.33   29.57
  -5   2 -11   -1.95   49.71
   2   5 -11    1.11   14.87
   2   5 -11   12.15   11.28
  -2  -5  11   -2.41   31.86
   5  -2  11  -24.89   34.99
   5  -2  11   19.72    8.23
  -2  -5  11   18.09   14.43
   5  -2  11   47.93   25.64
  -5   3 -11  337.71   53.55
  -5   3 -11  250.48   79.69
  -5   3 -11  401.65   57.01
   3   5 -11  316.91   52.27
   3   5 -11  306.51   58.55
   5  -3  11  546.39   65.61
   5  -3  11  401.25   56.89
  -3  -5  11  305.09   68.03
   5  -3  11  315.30   66.50
   5  -3  11  318.16   71.48
  -3  -5  11  427.98   63.01
   4   5 -11   -1.99   13.19
  -5   4 -11   14.12   20.08
  -5   4 -11    1.21   11.22
  -5   4 -11  -27.65   41.57
  -5   4 -11   -3.13    6.97
   5  -4  11  -13.68   11.94
   5  -4  11    2.66   19.95
   5  -4  11  -13.72   38.04
  -4  -5  11    6.99   12.20
   5  -4  11    0.62   10.30
  -5   5 -11  -16.49   21.97
   5   5 -11   -3.80   18.15
   5   5 -11   -7.35   14.40
  -5   5 -11   -4.11   44.46
   5  -5  11   12.94   20.46
  -5  -5  11   13.39   11.66
   5  -5  11  -13.88   38.62
  -5   6 -11  116.31   27.26
   6   5 -11  108.57   30.44
   6   5 -11   73.82   25.01
   5  -6  11   82.60   27.53
   5  -6  11  172.19   46.68
  -6  -5  11  106.66   21.81
  -6  -5  11  113.07   32.15
   6   4 -11  844.18  200.53
   6   4 -11  844.29  142.07
   6   4 -11 1178.07  175.57
  -6  -4  11 1049.80  160.64
   4  -6  11 1118.61  176.77
   4  -6  11  989.26  208.70
  -6  -4  11 1023.24  160.51
  -6  -4  11 1069.80  189.05
   6   3 -11  -11.31   19.70
   6   3 -11   22.57   24.07
   6   3 -11   18.99    9.62
  -3   6 -11    4.84   20.35
   6   3 -11    7.68   14.00
  -6  -3  11   22.08   17.67
  -6  -3  11   -2.10   21.47
  -6  -3  11    1.07   10.32
   3  -6  11   -4.71   17.61
  -6  -3  11    9.53   10.41
   3  -6  11   35.87   31.21
   6   2 -11 1772.09  332.94
   6   2 -11 1717.87  320.70
   6   2 -11 1585.13  259.59
  -2   6 -11 1751.39  258.46
   6   2 -11 1687.52  305.01
   2  -6  11 1711.56  347.90
  -6  -2  11 1590.64  315.42
  -6  -2  11 1684.09  326.27
   2  -6  11 1897.88  302.70
  -6  -2  11 1634.00  273.21
   6   1 -11  182.31   41.07
   6   1 -11  219.06   46.71
  -1   6 -11  103.85   36.56
  -6  -1  11  187.18   44.51
  -6  -1  11  182.82   37.52
   1  -6  11  240.36   52.85
   1  -6  11  233.61   41.91
   0   6 -11   -6.90   18.47
   6   0 -11   -4.62   15.83
   6   0 -11   -3.27   21.57
  -6   0 -11  -33.46   50.78
  -6   0  11   -8.48   19.84
   6   0  11   13.28   31.37
   0  -6  11   -3.14   15.63
   0  -6  11   31.97   28.74
   6   0  11  -13.46   36.73
  -6   0  11  -14.19   17.81
   6  -1 -11  293.91   41.51
   6  -1 -11  144.62   45.70
  -6   1 -11  221.16   66.34
   1   6 -11  242.82   35.57
  -6   1  11  228.62   38.05
  -1  -6  11  188.32   51.25
   6  -1  11  228.05   36.12
   6  -1  11  233.05   53.57
   6  -1  11  198.79   48.36
  -1  -6  11  239.61   41.94
  -6   2 -11 2028.12  356.83
   2   6 -11 1650.00  254.10
  -6   2 -11 1920.11  287.42
   6  -2  11 1622.98  274.97
   6  -2  11 1698.90  337.37
  -2  -6  11 1673.09  331.58
   6  -2  11 1983.18  314.38
   3   6 -11   20.49   10.86
   3   6 -11    7.59   15.87
  -6   3 -11   25.73   13.16
  -6   3 -11    1.53    8.89
  -6   3 -11   32.26   48.65
   6  -3  11    6.70   35.65
  -3  -6  11   30.22   31.53
   6  -3  11   19.19   10.00
   6  -3  11    4.66   14.93
   6  -3  11    7.47   24.49
  -6   4 -11 1069.78  160.32
  -6   4 -11  964.09  160.53
  -6   4 -11 1133.03  207.25
   6  -4  11  998.67  178.88
   6  -4  11  796.27  197.12
   6  -4  11  803.97  201.12
   6  -4  11 1226.12  181.59
  -4  -6  11 1301.21  190.74
  -6   5 -11   86.42   27.59
  -6   5 -11   55.69   58.69
   5   6 -11  150.15   24.45
   6  -5  11   76.53   48.68
   6  -5  11   74.44   28.95
  -5  -6  11   74.51   35.33
  -6   6 -11  -12.88   25.54
   6   6 -11    5.49   16.25
   6  -6  11    5.30   20.06
   6  -6  11    7.59   42.85
  -6   7 -11   23.48   28.19
   7   6 -11   23.71   19.94
  -7  -6  11   22.58   18.20
   6  -7  11   -6.14   47.60
   6  -7  11   15.70   22.61
   7   5 -11   -8.66   19.14
  -5   7 -11   26.34   25.42
   7   5 -11  -14.15   22.82
  -7  -5  11   -8.97   14.42
   5  -7  11   -2.75   20.89
   5  -7  11   -9.61   45.79
   7   4 -11  113.45   23.67
   7   4 -11   89.13   27.30
  -7  -4  11   61.63   26.94
   4  -7  11  133.14   44.21
  -7  -4  11  124.84   19.54
  -3   7 -11  341.92   51.68
   7   3 -11  323.31   65.35
   7   3 -11  357.50   57.47
   3  -7  11  285.55   61.40
  -7  -3  11  358.75   55.31
  -7  -3  11  280.96   53.32
   3  -7  11  267.54   75.72
   7   2 -11  130.58   32.16
  -2   7 -11  136.32   27.04
   7   2 -11  169.71   26.75
   2  -7  11  155.87   28.71
   2  -7  11   99.68   43.46
  -7  -2  11  128.53   27.01
   7   1 -11  167.20   38.30
  -1   7 -11  137.82   29.89
   7   1 -11  192.12   31.84
   1  -7  11  120.00   45.60
   1  -7  11  126.70   33.18
   7   1  11  183.50   43.83
  -7  -1  11   92.55   30.51
   7   0 -11  621.98  125.93
   7   0 -11  577.05  115.92
  -7   0 -11  404.03  140.87
   0  -7  11  692.71  133.90
   0  -7  11  750.26  121.39
   7   0  11  713.97  104.17
   7   0  11  671.02  118.71
   7   0  11  658.94  128.49
  -7   0  11  422.10  104.60
  -7   1 -11  102.65   64.82
   7  -1 -11   49.25   32.33
   1   7 -11  163.22   28.99
   7  -1 -11  166.24   38.40
  -1  -7  11  131.23   43.87
   7  -1  11   91.98   46.28
   7  -1  11  187.60   41.13
   7  -1  11  177.42   26.95
  -7   1  11  127.87   30.65
   7  -2 -11  184.17   35.96
  -7   2 -11  123.01   58.16
  -2  -7  11  161.38   39.09
   7  -2  11  135.96   35.89
   7  -2  11   75.94   44.79
  -7   3 -11  305.14   84.71
   7  -3  11  325.37   63.08
   7  -3  11  344.60   71.98
  -3  -7  11  256.09   70.17
   4   7 -11   56.11   18.87
  -7   4 -11   36.60   24.88
  -7   4 -11   12.72   52.09
   7  -4  11   74.43   28.65
  -4  -7  11   97.55   34.51
   7  -4  11  125.24   48.70
  -7   5 -11   -1.81   24.30
  -7   5 -11   -9.02   53.50
   5   7 -11   21.04   13.96
  -5  -7  11   19.23   32.32
   7  -5  11    1.41   21.03
   7  -5  11   -4.00   45.73
  -7   6 -11   21.07   27.24
  -7   6 -11   -9.96   59.21
   6   7 -11    2.07   16.66
   7  -6  11    8.27   20.96
   7  -6  11  -46.79   49.38
  -7   7 -11  -14.25   27.73
   7   7 -11  -23.74   17.84
   7  -7  11   -5.91   24.74
   7  -7  11  -23.38   46.75
   8   7 -11   30.75   21.59
  -7   8 -11    2.22   30.41
   7  -8  11   11.01   23.93
   7  -8  11   11.44   50.73
   8   6 -11  -10.41   28.58
   8   6 -11  -19.65   21.93
  -6   8 -11   36.41   29.28
   6  -8  11   40.63   47.74
  -8  -6  11  -17.64   20.14
   6  -8  11   -1.52   24.99
   8   5 -11  171.19   72.38
   8   5 -11  393.02   61.93
  -5   8 -11  407.71   55.63
  -8  -5  11  353.27   56.87
   5  -8  11  287.49   84.64
   5  -8  11  304.33   65.41
  -8  -5  11  387.90   58.57
   8   4 -11   19.68   26.42
   8   4 -11   21.99   21.90
   4  -8  11   41.64   43.60
  -8  -4  11   33.18   26.48
  -8  -4  11    7.40   15.49
  -3   8 -11  247.70   49.74
   8   3 -11  400.67   55.32
   8   3 -11  265.64   63.11
  -8  -3  11  307.54   52.02
  -8  -3  11  386.61   53.63
   3  -8  11  352.17   77.17
   3  -8  11  331.50   60.56
  -2   8 -11  225.03   45.16
   8   2 -11  231.49   55.63
   8   2 -11  206.57   48.30
   2  -8  11  124.04   65.68
  -8  -2  11  240.52   46.39
  -8  -2  11  255.33   47.52
   2  -8  11  294.79   52.63
  -1   8 -11  186.15   39.35
   8   1 -11  144.56   50.64
   8   1 -11  163.60   43.23
   8   1  11  217.87   39.67
  -8  -1  11  173.59   41.42
   1  -8  11  302.48   61.29
   8   1  11  253.21   54.65
  -8   0 -11  -25.38   64.39
   8   0 -11    2.76   20.60
   8   0 -11   -8.50   27.67
  -8   0  11  -20.90   22.60
   8   0  11   14.24   16.35
   8   0  11    6.36   36.07
   0  -8  11   12.67   39.76
   8   0  11  -15.36   49.43
   8  -1 -11  268.14   48.58
  -8   1 -11  292.12   76.85
  -8   1 -11  191.85   38.98
   8  -1 -11  180.02   44.81
   8  -1  11  248.29   51.62
  -8   1  11  159.29   42.50
   8  -1  11  237.77   37.75
   8  -1  11  310.79   58.83
  -1  -8  11  246.91   57.36
  -8   2 -11  281.03   45.24
  -8   2 -11  319.70   80.06
   8  -2 -11  320.45   56.49
  -8   2 -11  209.80   46.08
  -8   2  11  278.97   48.00
   8  -2  11  262.00   53.52
   8  -2  11  244.85   43.13
   8  -2  11  263.93   63.77
   8  -2  11  278.27   55.22
  -8   3 -11  296.93   86.16
  -8   3 -11  270.13   51.74
  -8   3 -11  235.66   51.81
   8  -3  11  336.77   50.69
   8  -3  11  321.86   61.76
   8  -3  11  170.78   59.71
   8  -3  11  229.11   69.32
  -8   4 -11   34.43   56.83
  -8   4 -11   24.44   12.24
  -8   4 -11   48.23   19.40
  -8   4 -11   64.03   24.85
   8  -4  11   25.39   24.31
   8  -4  11   13.75   45.92
  -8   5 -11  390.87   90.57
  -8   5 -11  447.56   57.68
   8  -5  11  293.31   63.69
   8  -5  11  288.54   83.43
  -8   6 -11   -1.99   26.58
  -8   6 -11   13.02   63.20
   8  -6  11   27.60   24.12
   8  -6  11   13.11   52.04
  -8   7 -11    2.11   26.67
   8  -7  11    2.24   50.49
   8  -7  11   18.43   24.57
   8   8 -11   -2.44   18.94
  -8   8 -11    2.31   29.93
   8  -8  11   47.18   26.12
   8  -8  11  -71.69   56.99
   9   8 -11   -1.38   20.60
   8  -9  11  -53.58   59.36
  -7   9 -11    2.59   35.78
   9   7 -11   76.23   26.43
   7  -9  11   45.99   62.98
   9   6 -11    1.60   31.81
   9   6 -11   28.21   24.41
  -6   9 -11  -15.05   32.73
   6  -9  11  -34.89   54.92
  -9  -6  11    6.24   18.92
  -5   9 -11  176.31   37.84
   9   5 -11  108.89   40.14
   9   5 -11  199.12   47.96
   5  -9  11  132.39   60.11
  -9  -5  11  133.66   40.80
  -9  -5  11  211.91   34.73
   9   4 -11  320.79   64.27
   9   4 -11  265.29   56.50
  -9  -4  11  301.54   55.28
  -9  -4  11  299.73   50.63
   9   3 -11    4.48   19.98
   9   3 -11   -4.19   28.92
  -9  -3  11   18.34   30.05
  -9  -3  11    5.07   18.61
   9   2 -11  194.51   47.70
   9   2 -11  195.73   39.00
  -9  -2  11  230.41   40.51
  -9  -2  11  195.96   37.53
   9   1 -11   16.05   23.55
   9   1 -11   25.53   33.56
  -9  -1  11   21.15   25.83
   9   1  11   -4.70   40.69
   9   1  11   55.98   19.12
   9   0 -11   36.40   25.42
  -9   0 -11   71.10   73.94
   9   0 -11   68.10   32.94
   9   0  11   33.14   39.34
   9   0  11   74.85   20.46
  -9   0  11   57.25   28.33
   9   0  11   -2.38   53.15
   9  -1 -11   37.72   25.39
  -9   1 -11   52.38   17.24
  -9   1 -11   11.52   68.18
   9  -1 -11   51.17   33.14
   9  -1  11   19.16   19.13
   9  -1  11   94.10   47.84
   9  -1  11   34.69   24.96
  -9   1  11   61.47   29.22
   9  -1  11    2.02   33.06
   9  -2 -11  222.24   42.28
  -9   2 -11  183.33   73.72
  -9   2 -11  180.45   35.46
  -9   2 -11  167.02   38.01
   9  -2 -11  209.34   46.93
   9  -2  11  178.14   45.11
  -9   2  11  242.66   40.60
   9  -2  11  128.74   42.81
   9  -2  11  177.92   55.03
   9  -2  11  145.40   33.65
  -9   3 -11   -1.23   14.28
  -9   3 -11  -14.08   22.00
  -9   3 -11   12.78   60.98
  -9   3 -11  -28.50   27.54
   9  -3  11   18.15   30.20
   9  -3  11    1.07   16.19
   9  -3  11   19.41   21.27
   9  -3  11   -5.89   47.56
  -9   4 -11  236.90   53.33
  -9   4 -11  266.71   87.38
   9  -4  11  278.09   57.82
   9  -4  11  309.18   72.32
  -9   5 -11  133.54   37.83
  -9   5 -11  148.39   73.42
   9  -5  11  154.54   39.72
   9  -5  11  238.67   63.80
  -9   6 -11  -46.42   68.41
  -9   6 -11   22.78   26.17
   9  -6  11   -4.50   25.68
   9  -6  11   16.29   56.66
  -9   7 -11    4.38   32.35
  -9   7 -11  159.32   71.76
   9  -7  11  105.67   57.59
  -9   8 -11    2.39   31.33
   9  -8  11   26.94   28.39
   9  -8  11    4.98   57.98
  10   8 -11    4.60   22.83
  10   7 -11   11.62   25.52
  10   6 -11   22.51   35.53
  10   6 -11   50.96   27.68
 -10  -6  11   37.96   24.62
  10   5 -11   73.48   28.65
  10   5 -11   48.62   34.99
 -10  -5  11   54.26   35.64
 -10  -5  11   48.77   23.86
  10   4 -11    3.50   27.14
  10   4 -11   15.47   33.27
 -10  -4  11   23.58   33.47
 -10  -4  11   28.68   19.62
  10   3 -11   20.45   37.50
  10   3 -11   28.97   30.79
 -10  -3  11   85.55   34.24
 -10  -3  11   38.53   23.08
  10   2 -11   86.48   32.51
  10   2 -11   51.69   38.75
 -10  -2  11   22.32   30.84
 -10  -2  11   48.95   25.58
  10   1 -11  -48.97   27.37
  10   1 -11 -124.08   40.07
 -10  -1  11    1.98   30.52
  10   1  11   -9.62   42.59
  10   1  11   -8.53   20.52
  10   0 -11  -31.76   25.48
 -10   0 -11   10.16   80.24
  10   0 -11  -15.94   35.93
  10   0  11    4.17   19.13
  10   0  11   40.63   37.89
 -10   0  11  -35.95   30.01
 -10   1 -11  -47.06   74.60
  10  -1 -11    1.77   39.92
 -10   1 -11  -26.32   20.20
  10  -1 -11  -51.50   28.82
  10  -1  11   28.32   36.20
  10  -1  11   20.72   21.21
  10  -1  11   -2.18   52.22
 -10   1  11  -40.22   30.47
  10  -1  11  -25.36   28.04
 -10   2 -11   60.03   27.12
 -10   2 -11   17.31   72.66
  10  -2 -11  146.64   40.32
  10  -2 -11  175.77   33.31
 -10   2 -11   14.02   18.45
  10  -2  11  159.70   50.83
  10  -2  11   20.83   19.76
  10  -2  11   20.25   27.49
  10  -2  11  -10.95   32.63
 -10   2  11   71.15   33.80
 -10   3 -11  130.40   32.11
 -10   3 -11   37.04   27.41
 -10   3 -11   39.44   18.49
 -10   3 -11   81.89   69.30
  10  -3 -11  115.40   46.48
  10  -3  11   55.05   49.53
  10  -3  11   91.43   31.73
 -10   3  11   67.87   40.12
 -10   4 -11   25.82   29.12
 -10   4 -11  -13.58   68.60
  10  -4  11   10.97   27.31
  10  -4  11   -6.29   50.41
 -10   5 -11   35.04   72.27
 -10   5 -11   83.58   28.37
  10  -5  11   71.87   29.56
  10  -5  11   -6.79   57.63
 -10   6 -11  111.83   74.15
 -10   6 -11   34.33   29.51
  10  -6  11  -86.00   59.82
  10  -6  11   32.38   27.01
 -10   7 -11   -4.54   32.74
 -10   7 -11  -12.43   78.57
  10  -7  11   64.19   63.40
  10  -7  11    8.21   25.27
  10  -8  11  -23.93   64.24
 -10   9 -11   -2.92   42.40
  10 -10  11   48.38   71.12
  11   8 -11   -1.70   25.59
  11   7 -11   29.37   29.51
 -11  -7  11   26.44   30.68
  11   6 -11   66.56   31.88
  11   6 -11    5.65   37.29
 -11  -6  11   26.69   24.44
 -11  -6  11   29.99   39.69
  11   5 -11   57.30   39.85
  11   5 -11   88.07   32.58
 -11  -5  11   86.15   25.54
 -11  -5  11   60.20   41.18
  11   4 -11  192.76   41.92
  11   4 -11   87.80   32.73
 -11  -4  11   84.36   41.16
 -11  -4  11   90.98   27.93
  11   3 -11   12.16   37.93
  11   3 -11   25.39   31.18
 -11  -3  11  -56.76   38.34
 -11  -3  11   39.24   23.08
  11   2 -11   16.80   27.91
  11   2 -11  -16.25   41.95
 -11  -2  11   29.72   37.43
 -11  -2  11   -9.12   24.85
  11   1 -11   18.26   29.54
  11   1 -11   13.20   40.65
  11   1  11  -33.02   22.40
 -11  -1  11   15.58   35.97
  11   1  11   57.95   42.06
  11   0 -11  374.42   68.62
 -11   0 -11  355.21   50.28
 -11   0 -11  270.87   99.49
  11   0 -11  210.35   53.11
  11   0  11  221.01   61.60
  11   0  11  182.54   46.42
 -11   0  11  232.66   52.96
 -11   1 -11   15.38   20.12
  11  -1 -11   48.84   42.08
  11  -1 -11   36.68   30.20
 -11   1 -11  -71.80   86.16
 -11   1 -11    8.97   30.94
  11  -1  11  -28.02   37.43
  11  -1  11   17.30   22.91
 -11   1  11    9.30   34.46
  11  -1  11  -18.64   56.38
  11  -1  11    6.12   30.95
 -11   2 -11  -46.64   79.80
  11  -2 -11   25.45   31.93
  11  -2 -11   30.21   40.54
 -11   2 -11   -3.47   19.08
 -11   2 -11  -27.54   29.79
  11  -2  11    1.81   32.94
 -11   2  11   39.44   37.75
  11  -2  11  -34.37   52.18
  11  -2  11    1.48   22.15
  11  -2  11   36.22   29.23
 -11   3 -11  -61.01   73.93
 -11   3 -11    6.10   29.52
  11  -3 -11  177.94   46.88
 -11   3 -11   11.13   17.79
  11  -3  11   10.70   53.01
 -11   3  11   23.06   39.04
  11  -3  11   11.61   29.23
 -11   4 -11   49.18   32.12
 -11   4 -11    8.69   75.73
  11  -4  11   76.22   59.17
  11  -4  11   67.92   32.91
 -11   5 -11   11.65   75.95
 -11   5 -11   31.56   31.71
  11  -5  11   37.22   28.21
  11  -5  11  135.52   60.52
 -11   6 -11    2.20   30.85
 -11   6 -11  -42.38   78.11
  11  -6  11   68.36   63.23
  11  -6  11   -6.32   27.70
 -11   7 -11    3.29   86.65
 -11   7 -11   -2.33   30.90
  11  -7  11    2.72   67.39
 -11   9 -11    3.07   44.64
  11  -9  11 -249.14   76.96
  11 -10  11    6.27   80.32
  12   8 -11   -9.39   31.93
 -12  -7  11   15.54   31.81
  12   4 -11   28.06   34.54
 -12  -4  11  -24.10   42.25
  12   3 -11   -2.19   31.76
 -12  -3  11   -2.67   44.38
 -12  -3  11   -2.46   24.52
  12   2 -11   35.69   31.91
  12   2 -11   -1.99   37.22
 -12  -2  11   35.91   45.28
 -12  -2  11   81.02   28.63
  12   1 -11   87.58   33.18
  12   1 -11   -2.03   35.87
  12   1  11   58.35   27.58
 -12  -1  11   14.95   40.07
  12   1  11   83.57   43.50
 -12  -1  11  154.35   32.05
  12   0 -11   40.51   31.61
 -12   0 -11   -9.95   26.01
  12   0  11  -28.41   39.31
  12   0  11   27.86   25.59
 -12   0  11  -59.03   38.26
  12  -1 -11   40.24   33.38
 -12   1 -11   56.78   26.22
 -12   1 -11  107.35   35.85
 -12   1 -11  -44.43   91.63
  12  -1  11   79.98   28.43
  12  -1  11   31.52   36.40
  12  -1  11   89.33   35.72
  12  -1  11   27.36   60.10
 -12   1  11   30.70   38.28
 -12   2 -11   39.97   82.51
 -12   2 -11  -21.46   32.89
 -12   2 -11   17.31   21.61
  12  -2  11  -67.66   54.82
  12  -2  11  -12.33   30.89
  12  -2  11    5.03   23.37
  12  -2  11    3.05   30.54
 -12   3 -11    6.26   31.47
 -12   3 -11  -18.48   75.51
  12  -3  11   -1.66   31.04
  12  -3  11  -13.21   55.59
 -12   4 -11    3.06   81.11
 -12   4 -11  -29.33   30.75
  12  -4  11  -28.86   52.96
  12  -4  11   -8.01   28.75
 -12   5 -11   -6.49   33.31
 -12   5 -11  -78.66   82.40
  12  -5  11    1.57   26.30
  12  -5  11  -30.29   60.68
 -12   6 -11    3.23   87.53
 -12   6 -11    4.53   28.15
  12  -6  11    2.55   65.20
  12  -6  11   62.51   31.06
 -12   8 -11  280.16   88.41
  12  -8  11  486.25   73.54
 -12   9 -11  -64.94   90.25
  12  -9  11    3.17   75.16
  12 -10  11  -59.48   82.04
  13   8 -11    2.08   31.52
  13   7 -11    9.06   33.34
 -13  -7  11    6.68   34.86
 -13  -7  11   42.80   43.18
  13   6 -11    7.17   36.26
  13   6 -11    2.25   45.29
 -13  -6  11   50.13   46.85
 -13  -6  11   20.58   32.17
  13   5 -11   12.11   37.85
  13   5 -11    6.54   45.71
 -13  -5  11  -19.89   30.02
 -13  -5  11   32.11   46.50
  13   4 -11   52.89   48.47
  13   4 -11   98.53   38.97
 -13  -4  11    2.80   31.38
 -13  -4  11   56.26   51.11
  13   3 -11  338.26   51.19
  13   3 -11  212.57   63.41
 -13  -3  11  298.73   60.39
  13   2 -11 -114.48   61.21
  13   2 -11   -2.33   28.38
 -13  -2  11  -11.29   32.09
 -13  -2  11   -2.85   50.07
  13   1 -11  -80.94   52.50
  13   1 -11   -2.27   28.02
 -13  -1  11   -2.78   37.08
 -13  -1  11  -25.97   32.15
  13   1  11   11.36   27.47
 -13   0 -11   11.89   40.37
 -13   0 -11    5.34   29.20
  13   0 -11    2.34   54.94
  13   0  11    1.96   30.65
 -13   0  11  182.93   46.68
 -13   1 -11  -29.39   38.48
  13  -1 -11   60.53   36.67
 -13   1 -11   39.06   23.15
  13  -1 -11  114.18   47.84
  13  -1  11   23.27   36.61
 -13   1  11   19.71   41.13
  13  -1  11   36.00   29.13
  13  -2 -11 -136.23   52.30
  13  -2 -11    4.96   38.29
 -13   2 -11  -31.89   24.27
 -13   2 -11    4.38   37.51
 -13   2  11  -20.46   43.70
  13  -3 -11  165.78   50.17
  13  -3 -11  148.33   64.10
 -13   3  11   64.70   53.36
 -13   5 -11   24.26   32.29
 -13   6 -11   83.36   89.46
 -13   7 -11   52.09   36.23
  13  -7  11   92.05   30.67
 -13   8 -11  -11.21   38.43
 -13   8 -11  -12.16  102.79
  13  -8  11   47.94   32.56
  13  -8  11  -94.64   83.02
 -13   9 -11  152.15  121.63
  13  -9  11   80.97   90.21
 -13  10 -11 -127.83  108.22
  13 -10  11   24.78   93.25
  14   8 -11   62.81   39.63
  14   7 -11    2.49   39.17
 -14  -7  11   40.05   36.97
 -14  -7  11  -19.26   44.51
  14   6 -11    2.62   42.68
  14   6 -11   27.12   49.90
 -14  -6  11   16.34   31.61
 -14  -6  11   36.31   51.01
  14   5 -11    2.65   40.88
  14   5 -11  -23.97   51.92
 -14  -5  11  -32.03   49.16
 -14  -5  11  -19.15   32.72
  14   4 -11  -16.49   48.95
  14   4 -11   31.93   45.28
 -14  -4  11   -3.16   34.07
 -14  -4  11   19.59   52.99
  14   3 -11    8.01   44.27
  14   3 -11   35.38   56.21
 -14  -3  11   75.07   51.91
 -14  -3  11  -15.52   35.92
  14   2 -11  -12.87   38.35
  14   2 -11   -4.78   55.60
  14   2  11   -2.11   23.25
 -14  -2  11   -9.43   35.57
 -14  -2  11  -85.32   62.69
  14   1 -11   -2.42   54.69
  14   1 -11  -63.02   39.92
 -14  -1  11  -18.91   33.85
 -14  -1  11   21.53   49.72
  14   0 -11  -22.43   58.49
  14   0 -11    4.96   40.76
 -14   0  11   -6.06   48.31
 -14   1 -11   20.08   41.05
  14  -1 -11  -87.06   39.78
  14  -1 -11   36.24   60.96
  14  -1  11  -13.29   33.48
  14  -1  11   -1.94   30.04
 -14   1  11    3.11   48.21
  14  -2 -11  -81.41   54.63
  14  -2 -11    2.69   39.24
 -14   2  11   25.66   49.25
  14  -3 -11    2.75   58.93
  14  -3 -11    2.87   39.33
 -14   3  11  -20.92   50.75
  14  -4 -11   -3.15   60.39
 -14   4  11   46.05   56.91
  15   8 -11   30.93   40.62
 -15  -8  11   21.04   42.50
  15   7 -11   38.59   39.65
 -15  -7  11  -36.14   36.49
 -15  -7  11    5.99   50.36
  15   6 -11   31.44   43.53
  15   6 -11    2.71   53.92
 -15  -6  11    3.65   37.23
 -15  -6  11   45.99   52.75
  15   5 -11  106.56   43.30
  15   5 -11    5.27   54.29
 -15  -5  11  -43.04   39.41
 -15  -5  11   93.97   59.07
  15   4 -11  -66.01   49.60
  15   4 -11    2.61   52.68
 -15  -4  11  -28.80   58.07
 -15  -4  11  -21.31   38.72
  15   3 -11   -2.59   56.80
  15   3 -11   14.62   44.30
 -15  -3  11   32.23   58.75
 -15  -3  11    6.96   37.97
  15   2 -11    2.63   60.67
  15   2 -11   73.81   43.87
  15   2  11   43.49   33.75
 -15  -2  11  -62.81   56.42
 -15  -2  11   10.40   35.56
  15   1 -11    2.64   53.22
  15   1 -11  -33.45   39.11
 -15  -1  11   -3.42   37.39
 -15  -1  11   -6.82   53.31
  15   1  11   41.82   34.63
 -15   0 -11   17.40   49.08
  15   0 -11  -29.43   60.23
  15   0 -11    2.77   43.01
 -15   0 -11    9.33   31.35
 -15   0  11   -6.72   53.19
 -15   0  11  -24.12   33.56
  15   0  11  -18.80   44.47
  15   0  11   43.59   34.29
  15  -1 -11  -73.31   40.95
 -15   1 -11  164.09   46.53
 -15   1 -11   24.74   31.11
  15  -1 -11 -106.17   62.42
 -15   1  11  -27.41   49.36
  15  -2 -11    2.90   60.95
  15  -2 -11   44.19   41.60
 -15   2  11   42.21   53.79
  15  -3 -11   -3.00   63.04
  15  -3 -11  -74.54   46.45
 -15   3  11  -49.18   55.37
  15  -4 -11   33.48   70.63
 -15   4  11  -31.03   59.77
  16   8 -11  -31.38   45.12
 -16  -8  11    8.63   44.24
  16   7 -11   18.17   47.71
 -16  -7  11    4.47   39.42
 -16  -7  11   32.54   51.38
  16   6 -11  -31.10   47.87
  16   6 -11   20.91   61.30
 -16  -6  11    4.10   41.54
 -16  -6  11   85.78   60.16
  16   5 -11    2.90   56.96
  16   5 -11   25.44   49.61
 -16  -5  11    4.03   43.56
 -16  -5  11   79.70   63.87
  16   4 -11   26.17   51.30
  16   4 -11   11.55   63.26
 -16  -4  11    3.99   45.39
 -16  -4  11  -19.71   65.22
  16   3 -11 -116.12   63.08
  16   3 -11   -3.20   44.31
 -16  -3  11  -31.27   63.57
 -16  -3  11   38.93   43.54
  16   2 -11   84.59   49.50
  16   2 -11   11.39   59.16
 -16  -2  11   34.50   61.63
 -16  -2  11   -3.81   42.29
 -16  -1 -11   65.66   58.57
  16   1 -11   14.45   64.03
  16   1 -11    3.08   44.14
 -16  -1  11   67.69   58.93
  16   1  11   35.84   40.42
 -16  -1  11  -18.78   42.52
  16   0 -11   21.45   42.47
 -16   0 -11   35.03   53.05
  16   0 -11 -140.76   67.11
 -16   0 -11   23.68   36.79
 -16   0  11   36.97   40.93
 -16   0  11  -14.88   52.34
  16   0  11   -8.00   39.83
  16  -1 -11   -2.97   64.41
  16  -1 -11 -111.84   46.53
 -16   1  11  -11.04   40.03
 -16   1  11   18.94   55.10
  16  -2 -11   32.33   44.73
  16  -2 -11    3.12   68.20
 -16   2  11  -11.61   56.20
  16  -3 -11   72.40   73.26
  16  -3 -11   27.05   45.99
 -16   3  11   37.14   55.75
  16  -4 -11  -65.26   74.67
 -16   4  11  -80.69   62.42
 -17  -8  11   21.86   48.65
  17   7 -11    3.30   49.54
 -17  -7  11   10.06   49.53
 -17  -7  11   -7.05   56.03
  17   6 -11  291.12   70.65
 -17  -6  11   27.05   73.30
 -17  -6  11   55.57   67.80
  17   5 -11 -102.17   55.34
  17   5 -11    3.19   65.79
 -17  -5  11   72.42   47.26
 -17  -5  11   49.56   71.93
  17   4 -11  -17.81   53.59
  17   4 -11    3.18   62.64
 -17  -4  11   59.87   71.21
 -17  -4  11   26.85   50.17
  17   3 -11   27.82   68.06
  17   3 -11   49.09   52.67
 -17  -3  11  -86.97   50.88
 -17  -3  11   34.06   64.41
  17   2 -11    3.44   51.14
  17   2 -11   80.75   65.76
 -17  -2  11  -67.45   48.59
 -17  -2  11   21.00   61.96
 -17  -1 -11  -11.33   64.07
  17   1 -11    3.12   67.20
  17   1 -11   13.57   49.62
 -17  -1  11  -32.92   45.19
 -17  -1  11   94.88   68.06
  17   1  11  -31.03   43.42
 -17   0 -11  -11.08   39.58
  17   0 -11  -94.99   56.04
  17   0 -11 -199.34   68.49
 -17   0  11    3.98   40.86
 -17   0  11   28.69   64.68
  17  -1 -11   17.10   48.32
  17  -1 -11  -98.66   70.73
 -17   1  11   20.03   43.42
 -17   1  11  -62.79   60.66
  17  -2 -11  108.94   72.36
  17  -2 -11  -24.92   52.32
 -17   2  11  131.86   66.53
  17  -3 -11  111.05   51.79
  17  -3 -11   43.38   75.87
 -17   3  11   40.76   64.96
  17  -4 -11  118.93   88.90
 -17   4  11  -61.76   70.65
  18   7 -11 -119.57   55.09
 -18  -7  11    5.69   58.28
 -18  -7  11   57.53   61.58
  18   6 -11  -52.54   57.25
  18   6 -11  -87.85   71.53
 -18  -6  11  -33.62   68.00
 -18  -6  11   31.45   55.82
  18   5 -11  -50.78   59.94
  18   5 -11   70.26   76.69
 -18  -5  11   90.31   72.76
 -18  -5  11   10.18   51.79
  18   4 -11    3.87   56.65
  18   4 -11   17.48   75.51
 -18  -4  11  -15.00   51.25
 -18  -4  11  -83.21   76.09
  18   3 -11  -91.55   52.05
  18   3 -11   17.13   73.87
 -18  -3  11  -34.15   52.56
 -18  -3  11   83.50   68.98
  18   2 -11 -139.66   62.23
  18   2 -11   -3.39   80.09
 -18  -2  11    9.24   77.28
 -18  -2  11   -4.66   53.69
  18   1 -11  175.00   69.66
 -18  -1 -11  135.77   76.88
  18   1 -11  417.28   90.48
  18   1  11   43.22   55.42
 -18  -1  11   40.35   60.86
 -18  -1  11   40.45   75.49
  18   0 -11  529.02   89.82
  18   0 -11  363.47   74.45
  18  -1 -11  569.05   78.57
  18  -2 -11 -126.97   86.86
  18  -2 -11 -180.78   67.28
 -18   2  11 -126.77   80.35
 -18   2  11  -48.71   56.57
  18  -3 -11    3.89   90.63
  18  -3 -11  -20.34   64.36
 -18   3  11   -4.99   76.06
  18  -4 -11   43.78   94.63
 -18   4  11  107.18   80.70
  19   5 -11  -46.83   67.19
 -19  -5  11    5.70   53.91
 -19  -5  11  -34.11   78.67
  19   4 -11   -3.83   84.59
  19   4 -11  -59.33   64.53
 -19  -4  11  -60.13   77.06
 -19  -4  11  -72.56   58.79
  19   3 -11   -4.18   57.37
  19   3 -11   26.47   81.56
 -19  -3  11   15.13   81.27
 -19  -3  11  -70.24   59.31
  19   2 -11    3.68   81.33
  19   2 -11  128.30   66.39
 -19  -2  11   41.11   55.57
 -19  -2  11  -25.19   79.37
  19   1 -11  -98.00   60.41
  19   1 -11  132.71   81.90
 -19  -1  11   19.73   54.49
 -19  -1  11   89.53   81.64
  19   0 -11  -28.94   58.94
  19   0 -11    3.68   73.57
 -19   0  11   38.27   49.71
 -19   0  11   40.11   77.26
  19  -1 -11   -3.72   80.02
  19  -1 -11 -162.81   65.23
 -19   1  11   28.10   52.12
 -19   1  11  138.45   81.81
  19  -2 -11   47.89   67.89
  19  -2 -11   53.49   83.61
 -19   2  11  -23.95   53.64
 -19   2  11  -41.58   81.82
  19  -3 -11  103.34   71.25
 -19   3  11 -121.83   86.83
   0   1 -12    1.70   36.84
  -1   0 -12  -13.66   35.50
   1   0  12  -13.09   22.42
   0  -1  12    1.38   26.41
   1   0  12   -3.43   32.67
   0  -1  12    6.33   18.65
  -1   0  12   32.44   23.88
   1   1 -12  543.00  105.43
  -1   1 -12  607.65  109.23
   1  -1  12  427.56   97.61
   1  -1  12  552.80  102.28
   2   1 -12    2.92   12.89
  -1   2 -12    3.19   34.67
   1  -2  12   -2.65   27.20
   1  -2  12   -6.58   19.96
   0   2 -12  122.69   43.36
  -2   0 -12   89.11   48.89
   0   2 -12  126.34   27.88
   2   0  12  110.32   42.55
   0  -2  12  145.99   36.31
   2   0  12  161.82   34.23
   0  -2  12  242.24   33.44
   1   2 -12  131.15   30.26
  -2   1 -12    7.47   39.75
   1   2 -12   -5.46    9.57
  -1  -2  12   25.49   17.02
  -1  -2  12   94.88   24.09
   2  -1  12   34.33   30.11
   2  -1  12    4.28   20.48
  -2   2 -12  107.35   45.57
   2   2 -12  103.48   26.41
  -2  -2  12  128.66   20.17
   2  -2  12  101.25   36.22
   2  -2  12  125.95   30.90
  -2   3 -12    9.57   36.96
   3   2 -12   11.53   14.51
   3   2 -12    6.33   29.60
   3   2 -12    8.10   11.25
   2  -3  12   -3.98   18.88
  -3  -2  12    2.87   10.30
   2  -3  12    1.43   30.08
   3   1 -12    4.71   34.24
   3   1 -12   30.60   16.13
  -1   3 -12   16.27   32.64
   1  -3  12    5.38   28.79
  -3  -1  12   22.60   27.89
   1  -3  12   18.74   19.68
   0   3 -12  -53.81   30.34
   3   0 -12   33.36   14.70
  -3   0 -12   29.72   43.76
   0  -3  12   10.05   26.98
   0  -3  12   10.36   17.87
   3   0  12  -27.09   35.89
   1   3 -12   23.06    9.26
   1   3 -12   24.14   11.59
  -3   1 -12  -29.69   42.22
   1   3 -12   29.73   29.12
  -1  -3  12   32.08    5.94
  -1  -3  12   25.04    7.90
  -1  -3  12    1.16   25.38
  -1  -3  12   21.54   17.03
   3  -1  12   21.91   31.33
   2   3 -12  -18.35   10.45
  -3   2 -12   20.08   39.81
   2   3 -12   -7.20    8.48
  -2  -3  12  -26.25   16.18
  -2  -3  12    6.42    8.63
   3  -2  12    2.51    4.85
  -2  -3  12    4.11    5.84
   3  -2  12   23.93   32.67
  -3   3 -12  154.91   61.40
   3   3 -12  275.77   44.59
   3   3 -12  230.56   48.11
  -3  -3  12  224.15   38.23
   3  -3  12  254.64   54.25
  -3  -3  12  242.17   40.44
  -3   4 -12  467.30   65.35
  -3   4 -12  420.22   43.73
   3  -4  12  282.49   61.90
  -4  -3  12  405.54   54.49
   3  -4  12  267.73   48.71
   4   2 -12   -5.29   12.81
  -2   4 -12  -43.83   39.90
  -2   4 -12  -12.70   18.81
   4   2 -12  -53.97   36.12
  -4  -2  12  -25.42   14.45
   2  -4  12  -57.28   37.05
  -4  -2  12  -14.88   17.24
   2  -4  12  -13.86   18.43
  -1   4 -12  -15.89   14.78
  -1   4 -12  -29.07   35.66
  -4  -1  12    4.01   17.95
   1  -4  12    4.36   31.49
   1  -4  12    9.35   17.87
  -4   0 -12  -24.70   46.27
   4   0 -12   -0.91   17.60
   0   4 -12    4.96   14.12
   0   4 -12   -2.88   33.25
   4   0  12    9.01   27.64
  -4   0  12    1.44   24.39
   0  -4  12   17.76   30.37
   0  -4  12   -3.28   16.61
   4   0  12    5.63   37.31
   1   4 -12   12.07    5.62
   1   4 -12   13.50   30.16
   1   4 -12   -2.32   15.24
  -4   1 -12  -27.44   44.97
  -1  -4  12   -5.42    6.20
   4  -1  12  -24.49   24.57
   4  -1  12  -14.83   33.58
  -1  -4  12   32.12   28.42
  -1  -4  12   -4.99   14.38
   2   4 -12  -21.50   14.80
   2   4 -12  -76.82   32.34
   2   4 -12  -15.55   12.19
   2   4 -12  -10.54    8.61
  -4   2 -12   15.70   42.33
   4  -2  12   -0.38    7.23
   4  -2  12  -17.34   23.83
  -2  -4  12    0.56    7.09
  -2  -4  12   -1.81   14.57
  -2  -4  12  -49.52   31.41
  -2  -4  12  -21.25    9.90
   4  -2  12  -43.00   35.70
  -4   3 -12  289.88   67.68
  -4   3 -12  269.72   37.27
   4  -3  12  251.12   40.01
   4  -3  12  302.75   60.22
   4  -3  12  306.50   50.28
   4   4 -12  184.91   28.90
  -4   4 -12  108.53   50.14
   4  -4  12  267.02   51.20
  -4  -4  12  154.96   27.70
   4  -4  12  136.11   35.24
   5   4 -12  309.14   37.32
   5   4 -12  211.37   42.77
  -4   5 -12   58.85   60.70
   5   4 -12  128.92   45.46
  -5  -4  12  184.08   32.69
  -5  -4  12  202.32   44.22
  -5  -4  12  188.58   35.69
   4  -5  12  180.48   55.33
  -3   5 -12   13.59   44.71
   5   3 -12   28.32   11.64
   5   3 -12   14.84   28.19
   5   3 -12   31.21   18.28
  -3   5 -12   55.34   21.39
   5   3 -12   -0.84   13.03
   3  -5  12   -8.25   36.47
  -5  -3  12   91.40   16.10
  -5  -3  12    7.31   10.37
  -5  -3  12   44.06   22.42
   3  -5  12   26.57   19.06
  -5  -3  12   19.04   12.32
   5   2 -12  920.54  168.76
   5   2 -12  992.55  178.43
   2  -5  12  705.22  166.68
  -5  -2  12  969.44  179.03
   2  -5  12  872.97  181.95
  -5  -2  12  943.37  175.87
  -1   5 -12   45.30   19.49
   5   1 -12  -10.59   22.66
   5   1 -12    8.82   17.07
  -5  -1  12  -13.67   20.10
   1  -5  12    9.07   18.33
   1  -5  12  -48.21   35.26
  -5  -1  12   -4.38   16.93
  -5   0 -12    9.57   52.03
   5   0 -12   56.86   19.92
   0   5 -12    4.99    4.97
   0   5 -12   61.45   19.40
   5   0 -12   66.35   25.64
  -5   0  12   29.66   26.23
   0  -5  12   -3.16   15.72
   5   0  12   -1.91   28.60
  -5   0  12   15.52   16.80
   5   0  12   17.68   41.06
   0  -5  12   40.26   33.33
   1   5 -12   21.37   17.63
   1   5 -12    8.76    7.49
  -5   1 -12  -29.42   51.35
   5  -1 -12    4.57   23.60
  -1  -5  12    0.97   15.89
   5  -1  12   31.60   27.81
  -1  -5  12  -39.72   34.95
   5  -1  12  -27.80   40.29
   5  -1  12   43.97   10.35
  -5   2 -12  862.19  195.96
   2   5 -12  970.35  158.18
   2   5 -12  843.39  139.45
   5  -2  12  896.30  174.11
   5  -2  12  816.05  145.81
   5  -2  12 1144.70  170.03
  -2  -5  12  967.54  164.63
  -2  -5  12  836.37  172.68
  -5   3 -12   33.87   11.83
  -5   3 -12   18.15    7.52
   3   5 -12   22.31   12.04
   3   5 -12   13.08   14.85
  -5   3 -12   14.28   43.30
   5  -3  12   31.25    9.41
  -3  -5  12   16.96   29.67
   5  -3  12   40.86   24.53
   5  -3  12    1.71   38.88
  -3  -5  12   37.02   14.67
   5  -3  12   20.13   11.21
  -5   4 -12  148.59   38.77
   4   5 -12  169.30   32.12
  -5   4 -12  142.68   62.31
  -4  -5  12  216.53   46.14
  -4  -5  12  184.76   38.19
   5  -4  12  132.87   41.85
   5  -4  12  172.45   57.31
   5   5 -12  129.88   23.80
   5   5 -12   97.07   28.77
   5   5 -12  132.79   21.26
  -5   5 -12   70.15   56.00
  -5   5 -12  110.74   27.96
   5  -5  12  118.94   48.79
   5  -5  12   44.60   29.16
  -5  -5  12   69.77   24.45
  -5  -5  12  132.25   21.70
   6   5 -12   59.44   19.65
  -5   6 -12   66.69   25.53
   6   5 -12   55.31   23.93
  -6  -5  12   30.84   15.63
  -6  -5  12   58.85   22.91
   5  -6  12   43.65   39.41
   5  -6  12   49.29   24.43
   6   4 -12  241.83   45.51
   6   4 -12  218.42   52.89
   4  -6  12  233.07   63.52
  -6  -4  12  210.58   40.48
  -6  -4  12  289.10   45.40
  -6  -4  12  243.31   50.85
  -6  -4  12  152.03   43.23
   6   3 -12  780.26  147.67
   6   3 -12  813.29  158.92
  -6  -3  12  778.91  134.10
  -6  -3  12  712.03  156.09
   3  -6  12  914.76  168.28
   3  -6  12  785.61  144.61
  -6  -3  12  919.17  132.85
  -6  -3  12  809.23  143.36
  -2   6 -12  214.20   43.06
   6   2 -12  234.46   47.23
   6   2 -12  210.77   39.00
   6   2 -12  276.73   54.10
  -6  -2  12  271.86   43.39
  -6  -2  12  262.37   53.01
   2  -6  12  358.92   63.81
  -6  -2  12  210.60   47.76
   2  -6  12  355.73   49.21
  -1   6 -12  156.57   30.09
   6   1 -12  145.44   35.59
   6   1 -12  127.63   30.67
   1  -6  12  111.17   44.43
  -6  -1  12  154.18   29.84
  -6  -1  12   91.27   33.34
   1  -6  12  151.36   31.14
  -6   0 -12 1721.02  340.79
   0   6 -12 1682.95  252.25
   6   0 -12 1551.73  301.94
   6   0 -12 1731.71  323.76
   0  -6  12 1338.50  331.10
  -6   0  12 1918.16  338.58
   6   0  12 1541.32  302.29
   0  -6  12 1828.52  299.50
  -6   0  12 1803.14  267.12
   6  -1 -12  118.52   36.84
   1   6 -12  143.10   28.17
   1   6 -12  162.48   26.23
  -6   1 -12  160.40   62.03
  -1  -6  12  165.08   42.96
   6  -1  12   99.10   46.36
   6  -1  12  139.30   25.83
  -1  -6  12  142.75   30.83
   6  -1  12  108.00   40.55
   2   6 -12  280.06   40.60
  -6   2 -12  181.65   75.91
   2   6 -12  241.35   43.92
   6  -2  12  236.34   61.88
  -2  -6  12  256.83   48.22
   6  -2  12  255.43   54.10
  -2  -6  12  204.56   56.87
   6  -2  12  226.28   40.67
  -6   3 -12  843.29  131.75
  -6   3 -12  794.61  178.62
   3   6 -12  800.19  141.83
   3   6 -12  890.38  120.49
  -6   3 -12  713.48  137.34
   6  -3  12 1007.63  148.50
  -3  -6  12  888.34  153.01
  -3  -6  12  876.24  155.94
   6  -3  12  744.46  156.45
   4   6 -12  243.25   39.80
  -6   4 -12  253.45   46.74
  -6   4 -12  333.37   71.01
  -4  -6  12  306.68   55.72
   6  -4  12  191.79   51.27
   6  -4  12  204.41   65.36
  -6   5 -12   40.35   53.20
  -6   5 -12   48.01   24.88
   5   6 -12   76.81   18.75
   6  -5  12    8.11   46.62
  -5  -6  12   42.42   33.58
   6  -5  12   34.93   25.17
  -6   6 -12  106.38   66.91
  -6   6 -12  150.80   33.31
   6   6 -12  143.89   28.76
   6  -6  12   65.64   32.36
   6  -6  12  142.61   53.78
  -6  -6  12  139.85   28.41
  -6   7 -12   30.69   27.86
   7   6 -12   32.56   21.21
   7   6 -12   32.51   28.49
   6  -7  12   64.30   25.51
  -7  -6  12   31.19   18.63
   6  -7  12   27.31   47.22
   7   5 -12  136.55   40.29
  -5   7 -12  255.74   39.59
   7   5 -12  190.93   49.24
   5  -7  12  229.02   43.57
  -7  -5  12  224.42   41.13
   5  -7  12  216.98   64.47
  -7  -5  12  207.28   37.08
   7   4 -12   39.63   25.94
   7   4 -12   31.92   21.05
  -7  -4  12   31.07   15.80
  -7  -4  12   74.83   24.26
   4  -7  12   86.07   46.77
  -3   7 -12  254.24   44.92
   7   3 -12  267.51   54.63
   7   3 -12  286.69   49.74
  -7  -3  12  250.59   47.60
   3  -7  12  302.96   67.18
  -7  -3  12  277.56   44.27
   3  -7  12  325.60   51.46
  -2   7 -12  246.72   38.04
   7   2 -12  185.28   47.53
   7   2 -12  187.82   40.45
   2  -7  12  254.86   42.55
   2  -7  12  138.14   55.71
  -7  -2  12  231.82   38.69
   7   1 -12  267.01   50.19
   7   1 -12  325.77   57.93
  -1   7 -12  330.83   43.78
  -7  -1  12  250.24   46.70
   1  -7  12  295.26   63.71
   1  -7  12  189.48   51.36
  -7   0 -12  -24.92   60.09
   0   7 -12    6.34   19.31
   7   0 -12    2.65   17.90
   7   0 -12    9.04   25.58
   0  -7  12  -14.22   35.53
   0  -7  12  -17.89   17.62
   7   0  12  -50.41   48.15
   7   0  12  -17.12   34.97
   7   0  12   -2.90   13.43
  -7   0  12   -7.58   21.20
   1   7 -12  198.26   42.22
   7  -1 -12  242.01   51.10
   7  -1 -12  197.65   55.97
  -7   1 -12  293.71   81.74
   7  -1  12  239.03   64.30
  -1  -7  12  211.00   52.09
  -7   1  12  294.96   46.80
  -1  -7  12  289.44   61.16
   7  -1  12  371.89   59.92
   7  -2 -12  156.23   50.56
  -7   2 -12  289.13   74.52
   2   7 -12  176.87   35.84
   7  -2  12  204.18   57.89
   7  -2  12  121.67   48.74
  -2  -7  12  225.27   54.08
   3   7 -12  229.84   46.69
  -7   3 -12  161.95   77.65
   7  -3  12  258.31   54.84
   7  -3  12  142.30   64.61
  -3  -7  12  261.86   60.44
  -7   4 -12   23.04   55.55
  -7   4 -12   50.75   27.10
   4   7 -12  106.20   16.57
   7  -4  12   27.05   27.20
  -4  -7  12   70.16   34.21
   7  -4  12   42.08   47.90
  -7   5 -12  208.85   70.78
   5   7 -12  193.88   39.17
  -7   5 -12  208.09   42.23
   7  -5  12  246.98   44.85
  -5  -7  12  215.79   51.09
   7  -5  12  180.90   64.96
  -7   6 -12   44.37   27.65
  -7   6 -12  -20.64   61.17
   6   7 -12   42.10   18.97
   7  -6  12   23.73   23.61
   7  -6  12   72.40   55.37
   7   7 -12    2.39   18.80
  -7   7 -12  -48.86   31.84
   7  -7  12  -18.62   29.33
   7  -7  12   35.58   55.87
  -7   8 -12   -2.26   30.61
   8   7 -12   20.19   21.27
   7  -8  12    2.35   54.24
   7  -8  12   -1.63   26.99
   8   6 -12   36.40   30.43
   8   6 -12   29.82   23.87
  -6   8 -12   58.98   29.41
   6  -8  12   18.02   54.44
  -8  -6  12   19.18   21.08
   6  -8  12   44.18   26.02
  -5   8 -12   33.72   28.75
   8   5 -12   34.36   23.92
   8   5 -12   10.57   28.48
   5  -8  12   35.99   50.65
   5  -8  12   58.08   24.59
  -8  -5  12   17.56   28.44
  -8  -5  12   18.00   17.18
   8   4 -12  399.08   82.16
   8   4 -12  472.42   71.72
  -8  -4  12  306.17   64.80
   4  -8  12  320.52   93.75
  -8  -4  12  523.12   69.06
   8   3 -12   71.24   29.54
   8   3 -12   41.88   23.23
  -3   8 -12   31.60   26.01
  -8  -3  12   67.30   19.64
   3  -8  12   51.59   24.12
  -8  -3  12   39.06   26.45
   3  -8  12   77.24   45.26
   8   2 -12  273.48   48.09
   8   2 -12  197.79   55.78
  -2   8 -12  268.75   44.45
  -8  -2  12  298.46   45.77
   2  -8  12  249.44   51.80
   2  -8  12  213.48   66.33
   8   1 -12   78.34   25.05
  -1   8 -12   90.27   27.74
   8   1 -12   85.16   35.46
   1  -8  12   69.92   28.78
   8   1  12   64.46   43.96
  -8  -1  12   93.81   27.78
   1  -8  12   49.58   41.69
  -8   0 -12  399.57   96.51
   8   0 -12  291.06   63.85
   0   8 -12  373.24   55.49
   8   0 -12  254.41   71.25
   0  -8  12  166.39   77.43
  -8   0  12  350.19   59.40
   8   0  12  340.71   55.83
   8   0  12  461.61   81.40
   8   0  12  415.20   71.44
  -8   1 -12  141.80   67.88
   8  -1 -12  123.41   34.17
   8  -1 -12  102.77   27.19
   8  -1  12  124.69   22.29
   8  -1  12   80.45   48.94
  -1  -8  12  104.07   44.84
   8  -1  12   66.14   37.94
  -8   1  12   60.88   29.66
   8  -2 -12  400.17   58.37
  -8   2 -12  201.88   43.86
  -8   2 -12  246.68   45.11
  -8   2 -12  232.18   80.19
   8  -2  12  221.54   64.59
   8  -2  12  225.34   53.47
   8  -2  12  268.05   42.23
  -2  -8  12  239.66   62.81
   8  -2  12  167.11   55.40
  -8   3 -12   71.70   63.69
  -3  -8  12   69.87   36.78
   8  -3  12   39.23   30.33
   8  -3  12  112.77   47.85
  -8   4 -12  453.71   69.67
  -8   4 -12  348.43  100.38
  -4  -8  12  407.04   84.01
   8  -4  12  388.12   89.32
   8  -4  12  356.55   76.42
  -8   5 -12   76.47   30.32
  -8   5 -12   40.19   62.81
   8  -5  12    4.72   28.13
  -5  -8  12   20.72   36.77
   8  -5  12   58.62   55.01
  -8   6 -12   43.31   64.41
   6   8 -12   31.75   15.29
  -8   6 -12   23.07   29.81
   8  -6  12   44.56   58.34
   8  -6  12    7.66   26.78
  -8   7 -12   29.18   70.72
   7   8 -12   10.63   16.87
  -8   7 -12    2.21   29.65
   8  -7  12   35.81   59.88
   8  -7  12   32.13   27.80
   8   8 -12  -21.78   18.39
  -8   8 -12   -9.37   31.18
   8  -8  12   46.50   56.63
   8  -8  12   10.13   28.92
   9   8 -12   12.18   21.30
   9   7 -12   31.45   24.26
   7  -9  12    2.51   54.54
  -6   9 -12   81.27   37.11
   9   6 -12   78.89   34.91
   9   6 -12   62.63   27.38
   6  -9  12   89.96   54.97
   6  -9  12   48.26   29.03
  -9  -6  12   69.35   22.40
   9   5 -12  139.90   38.48
   9   5 -12  167.53   45.63
  -5   9 -12  151.64   39.29
   5  -9  12   66.23   62.42
  -9  -5  12  193.91   42.12
   5  -9  12  232.98   42.03
  -9  -5  12  183.59   33.89
   9   4 -12   48.17   27.98
   9   4 -12   18.25   33.00
  -9  -4  12   57.43   21.10
  -9  -4  12   40.51   31.07
   4  -9  12  249.51   60.87
   9   3 -12  376.24   86.06
   9   3 -12  462.59   77.31
  -3   9 -12  414.70   68.74
  -9  -3  12  334.04   71.88
   3  -9  12  579.09  101.98
  -9  -3  12  344.89   72.62
   9   2 -12   23.89   31.23
   9   2 -12   19.23   22.89
  -9  -2  12   36.04   21.50
  -9  -2  12   34.12   27.48
   2  -9  12    8.79   51.20
   9   1 -12  162.11   36.50
   9   1 -12  258.39   46.79
   9   1  12  174.49   31.60
  -9  -1  12  117.31   34.59
   9   1  12  215.35   49.16
  -9   0 -12  -32.78   74.84
   9   0 -12   53.70   24.48
   9   0 -12   25.86   31.70
   9   0  12   -2.36   39.37
   9   0  12   17.62   18.61
  -9   0  12    5.58   25.67
   9   0  12   -2.53   53.53
  -9   1 -12   70.46   30.95
   9  -1 -12  159.20   37.55
  -9   1 -12  159.38   78.76
   9  -1 -12  172.09   44.39
   9  -1  12  125.42   29.88
  -9   1  12  182.51   38.22
   9  -1  12   45.94   56.31
   9  -1  12  155.98   46.52
  -9   2 -12   17.20   16.78
   9  -2 -12  -22.77   37.09
  -9   2 -12   25.53   22.54
  -9   2 -12  -22.85   67.86
   9  -2  12   32.40   16.24
   9  -2  12   13.00   23.20
  -9   2  12   67.96   33.41
   9  -2  12    6.26   51.26
   9  -2  12   58.32   35.32
  -9   3 -12  437.76  111.94
   9  -3  12  471.44   80.36
   9  -3  12  473.84   91.61
  -9   4 -12   54.58   69.68
  -9   4 -12   55.60   32.94
   9  -4  12  145.09   56.06
   9  -4  12   39.14   30.88
  -9   5 -12  217.68   42.37
  -9   5 -12  142.99   74.12
   9  -5  12  102.62   41.37
   9  -5  12  109.88   64.13
  -9   6 -12    2.18   31.35
  -9   6 -12   22.76   69.36
   9  -6  12   54.85   59.66
   9  -6  12   28.41   27.92
  -9   7 -12  -24.45   77.61
  -9   7 -12    6.85   30.86
   9  -7  12  -14.96   28.27
   9  -7  12   -2.57   62.49
   9  -8  12    2.63   60.86
  -9   9 -12   -5.45   37.27
   9  -9  12   20.78   31.93
   9 -10  12    2.96   70.17
  10   8 -12  -13.60   26.65
   8 -10  12   -8.39   68.72
  10   7 -12    3.33   26.72
 -10  -7  12   16.51   29.07
  10   6 -12  -15.47   34.70
  10   6 -12    5.37   26.49
 -10  -6  12    8.80   22.51
 -10  -6  12   17.53   37.07
  10   5 -12   99.37   39.02
  10   5 -12   82.08   31.33
 -10  -5  12  103.01   38.18
 -10  -5  12  131.74   27.32
  10   4 -12  161.07   42.19
  10   4 -12  157.25   49.63
 -10  -4  12  184.71   37.01
 -10  -4  12  181.52   45.83
  10   3 -12  -10.48   26.55
  10   3 -12   32.00   34.12
 -10  -3  12   36.26   31.73
 -10  -3  12    1.97   20.51
  10   2 -12   87.43   39.04
  10   2 -12   56.80   26.29
 -10  -2  12   31.69   20.93
 -10  -2  12   30.59   32.72
  10   1 -12  -13.27   27.09
 -10  -1  12  -22.08   30.29
  10   1  12  -20.36   46.01
  10   1  12   17.22   21.58
  10   0 -12 -115.29   43.72
  10   0 -12  -29.31   28.96
 -10   0 -12   14.28   81.05
  10   0  12  -21.16   20.77
  10   0  12   21.96   43.27
 -10   0  12   -2.05   29.88
  10  -1 -12  -20.57   30.41
 -10   1 -12    5.72   19.46
  10  -1 -12  -43.73   39.30
 -10   1 -12  139.86   84.25
 -10   1  12  -19.62   32.68
  10  -1  12   27.59   20.56
  10  -1  12   -6.75   40.44
  10  -1  12    2.33   54.49
 -10   2 -12   51.89   19.68
  10  -2 -12   63.18   39.38
 -10   2 -12   43.12   77.37
 -10   2 -12   73.89   25.63
  10  -2 -12   49.92   30.23
  10  -2  12   35.02   49.04
  10  -2  12   64.64   36.93
 -10   2  12   -9.78   34.18
 -10   3 -12  -43.08   30.22
 -10   3 -12    8.78   72.66
  10  -3  12  -33.02   55.29
  10  -3  12    1.85   29.08
 -10   4 -12  178.25   85.14
 -10   4 -12  175.63   42.54
  10  -4  12  174.71   45.01
  10  -4  12  273.81   64.81
 -10   5 -12    4.33   33.76
 -10   5 -12   99.15   78.42
  10  -5  12   30.99   60.75
  10  -5  12   34.95   31.35
 -10   6 -12   -2.24   31.77
 -10   6 -12  -18.05   78.32
  10  -6  12   -3.24   28.05
  10  -6  12   86.28   67.80
 -10   7 -12  119.57   34.65
 -10   7 -12 -103.15   82.48
  10  -7  12   73.95   69.36
  10  -7  12   92.61   28.51
 -10   9 -12    2.83   35.54
  10  -9  12   23.40   31.72
  10  -9  12  -11.64   72.54
  10 -10  12    3.07   74.30
  11   8 -12   -1.67   27.93
  11   7 -12   14.87   30.63
 -11  -7  12  125.88   34.40
  11   6 -12    3.97   30.71
  11   6 -12    1.88   36.59
 -11  -6  12   14.40   23.90
 -11  -6  12   12.11   37.81
  11   5 -12   44.55   32.77
  11   5 -12  -27.05   37.74
 -11  -5  12   44.88   37.94
 -11  -5  12   68.06   25.72
  11   4 -12   65.25   31.32
  11   4 -12  -43.62   36.76
 -11  -4  12    7.39   40.62
 -11  -4  12   37.19   22.04
  11   3 -12   41.13   30.61
  11   3 -12    8.96   40.34
 -11  -3  12   50.62   38.68
 -11  -3  12   26.85   23.47
  11   2 -12  -33.12   39.49
  11   2 -12    7.51   28.77
 -11  -2  12    2.36   25.25
 -11  -2  12   -6.91   34.55
  11   1 -12   88.88   45.44
  11   1 -12    9.26   27.63
 -11  -1  12   51.83   34.87
  11   1  12   -9.52   21.06
  11   1  12   23.17   40.38
  11   0 -12    3.80   29.29
  11   0 -12   30.04   45.92
  11   0  12   -7.38   44.98
 -11   0  12   25.00   33.77
  11   0  12  -12.63   22.93
 -11   1 -12    7.00   29.00
  11  -1 -12    2.00   28.25
 -11   1 -12    2.08   21.34
 -11   1 -12   28.92   88.57
  11  -1 -12  -33.78   41.77
 -11   1  12   40.89   36.00
  11  -1  12   41.00   24.86
  11  -1  12   23.01   30.82
  11  -1  12  -17.92   36.44
  11  -1  12  -24.79   57.69
  11  -2 -12    4.40   30.85
 -11   2 -12   -3.31   85.21
  11  -2 -12   20.64   44.14
  11  -2  12   -6.87   55.66
 -11   2  12   18.26   35.69
  11  -2  12   35.90   35.06
 -11   3 -12    6.22   79.42
  11  -3 -12   -2.27   44.72
 -11   3 -12   46.76   33.99
  11  -3  12   40.64   30.70
  11  -3  12    2.29   54.59
 -11   3  12   35.19   42.93
 -11   4 -12 -114.65   80.10
 -11   4 -12   17.71   31.97
  11  -4  12  -11.62   58.82
  11  -4  12    3.46   31.34
 -11   5 -12   11.17   31.54
 -11   5 -12  -31.70   78.18
  11  -5  12   31.60   59.58
  11  -5  12   13.47   30.79
 -11   6 -12   51.56   82.12
 -11   6 -12   34.71   35.21
  11  -6  12   21.83   30.19
  11  -6  12   45.35   69.38
 -11   8 -12    2.60   36.00
 -11   8 -12   -3.59   67.68
 -11   9 -12    5.93   41.41
 -11   9 -12  -29.12   89.99
  11  -9  12    3.12   76.89
  11  -9  12  -44.23   35.09
  11 -10  12   19.36   77.54
  12   8 -12    7.39   28.03
 -12  -7  12    6.07   29.48
  12   4 -12   41.97   35.42
 -12  -4  12   -2.76   48.11
  12   3 -12   37.27   35.12
 -12  -3  12  -35.12   43.95
  12   2 -12  -31.50   30.03
 -12  -2  12  -69.90   41.87
  12   1 -12  -24.76   30.57
 -12  -1  12  -10.09   40.32
  12   1  12  -36.52   23.81
  12   1  12    2.57   45.19
  12   0 -12  190.45   42.02
  12   0  12  122.39   34.79
  12   0  12  182.97   51.03
 -12   0  12   -2.52   45.58
 -12   1 -12    3.90   95.65
 -12   1 -12  -36.16   25.74
 -12   1 -12    5.91   31.94
  12  -1  12  -21.32   26.27
  12  -1  12   47.46   60.80
  12  -1  12    4.38   35.46
 -12   2 -12   70.65   86.55
  12  -2  12   -9.63   57.91
  12  -2  12   33.75   35.04
  12  -3 -12   34.25   50.84
 -12   3 -12   31.93   34.82
 -12   3 -12   52.80   83.60
  12  -3  12  -11.69   56.10
  12  -3  12   23.68   29.27
 -12   4 -12   31.78   34.47
 -12   4 -12 -126.86   85.57
  12  -4  12   42.77   58.84
  12  -4  12    3.45   30.37
 -12   5 -12  316.50   92.26
  12  -5  12   47.28   34.73
  12  -5  12  277.32   68.70
 -12   6 -12   -3.47   89.30
  12  -6  12   -2.68   67.81
 -12   7 -12   49.58   35.08
  12  -7  12   18.07   32.14
 -12   8 -12  -24.19   37.56
 -12   8 -12   54.09   98.79
  12  -8  12  -30.38   32.04
  12  -8  12   22.44   79.04
 -12   9 -12   39.49  106.06
 -12   9 -12    9.30   39.78
  12  -9  12  -16.78   86.91
  12 -10  12  170.17   95.93
  13   8 -12  -59.78   33.79
  13   7 -12    2.48   48.94
  13   7 -12   -2.26   34.29
 -13  -7  12  -29.47   34.00
 -13  -7  12  -26.34   42.37
  13   6 -12  -40.49   46.74
  13   6 -12   -9.65   37.48
 -13  -6  12   35.28   32.26
 -13  -6  12   26.10   48.62
  13   5 -12   43.99   47.55
  13   5 -12   24.42   35.43
 -13  -5  12    8.58   29.69
 -13  -5  12   15.20   52.10
  13   4 -12  -57.75   45.17
  13   4 -12   39.51   39.13
 -13  -4  12   39.86   51.17
 -13  -4  12   28.14   30.33
  13   3 -12   68.08   39.06
  13   3 -12 -111.13   57.19
 -13  -3  12    8.48   32.90
 -13  -3  12   66.15   57.76
  13   2 -12  -94.19   60.77
  13   2 -12  140.87   38.07
 -13  -2  12  142.00   61.77
 -13  -2  12    5.80   34.63
  13   1 -12  222.55   42.02
  13   1 -12  288.61   59.25
  13   1  12   80.38   33.61
 -13  -1  12   59.87   33.83
 -13  -1  12  126.61   49.80
  13   0 -12   39.33   39.58
  13   0 -12   76.57   53.33
  13   0  12   31.41   31.22
 -13   0  12    5.59   43.19
 -13   1 -12    7.36   29.75
  13  -1 -12   61.83   38.08
  13  -1 -12   72.46   58.35
 -13   1  12   75.49   46.96
  13  -2 -12  -38.34   39.12
  13  -2 -12   12.28   48.93
 -13   2  12  -12.15   42.56
 -13   3 -12  -20.94   33.33
  13  -3 -12   11.28   41.36
  13  -3 -12 -167.12   51.49
 -13   3  12  -34.52   46.26
 -13   4 -12   -9.22   33.90
 -13   4 -12   91.60   88.44
 -13   5 -12   74.01   90.85
 -13   6 -12   -2.42   34.86
 -13   7 -12   31.65  103.58
 -13   7 -12  -42.97   33.77
  13  -7  12  -31.32   32.41
  13  -7  12  -62.73   77.47
 -13   8 -12  -20.97  108.97
 -13   8 -12   66.59   37.90
  13  -8  12   19.52   31.00
  13  -8  12   59.92   84.07
 -13   9 -12    3.25   44.88
 -13   9 -12  -87.17  115.64
  13  -9  12   -3.57   87.74
 -13  10 -12   59.77  109.53
  13 -10  12   97.07   95.78
  14   8 -12  -18.23   33.74
 -14  -8  12    2.48   40.96
  14   7 -12  132.02   56.19
  14   7 -12  -39.95   39.38
 -14  -7  12  -10.74   36.12
 -14  -7  12   -5.72   43.86
  14   6 -12   32.12   52.46
  14   6 -12   -7.88   37.11
 -14  -6  12    6.53   30.98
 -14  -6  12  -37.76   51.70
  14   5 -12    2.43   52.08
  14   5 -12    2.66   40.00
 -14  -5  12   53.07   58.27
 -14  -5  12   -9.66   34.52
  14   4 -12   30.87   51.82
  14   4 -12   50.00   45.08
 -14  -4  12   61.45   56.42
 -14  -4  12   54.52   34.52
  14   3 -12   13.42   42.03
  14   3 -12   -2.40   52.28
 -14  -3  12   15.91   34.60
 -14  -3  12   49.86   59.13
  14   2 -12    2.44   57.50
  14   2 -12  -57.29   41.70
 -14  -2  12  -12.87   37.83
 -14  -2  12  -25.67   54.11
  14   1 -12 -157.94   56.25
  14   1 -12  -20.35   36.08
 -14  -1  12  -37.52   52.70
 -14  -1  12   22.59   35.94
  14   0 -12   -2.55   51.29
  14   0 -12   33.25   40.50
 -14   0  12  -43.39   48.10
  14  -1 -12    5.33   58.12
  14  -1 -12   13.06   37.27
 -14   1  12   -6.40   50.07
  14  -2 -12    2.70   59.24
  14  -2 -12 -147.44   43.05
 -14   2  12  -69.41   52.08
  14  -3 -12  -62.97   44.98
  14  -3 -12    2.84   56.17
 -14   3  12   22.16   52.56
  15   8 -12  -52.72   40.40
 -15  -8  12  -64.73   45.98
  15   7 -12   35.33   59.61
  15   7 -12  -84.72   41.27
 -15  -7  12  -31.71   41.00
 -15  -7  12   -3.09   50.91
  15   6 -12  -68.55   42.49
  15   6 -12   32.63   56.07
 -15  -6  12    3.66   39.35
 -15  -6  12    3.42   53.77
  15   5 -12   20.66   44.24
  15   5 -12  -37.34   57.96
 -15  -5  12   79.63   60.94
 -15  -5  12  -14.50   41.44
  15   4 -12   58.00   58.72
  15   4 -12   42.39   50.54
 -15  -4  12  -28.92   39.13
 -15  -4  12   14.89   58.12
  15   3 -12   80.11   49.21
  15   3 -12   55.36   59.89
 -15  -3  12    7.32   59.61
 -15  -3  12    3.54   38.65
  15   2 -12    2.67   58.32
  15   2 -12   25.90   40.56
 -15  -2  12 -106.44   58.33
 -15  -2  12   -7.11   39.79
  15   1 -12   93.80   59.96
  15   1 -12  -70.56   41.66
 -15  -1  12  -24.18   56.24
  15   1  12    9.29   34.19
 -15  -1  12    3.49   33.09
  15   0 -12  -62.49   56.71
  15   0 -12   36.79   43.91
 -15   0  12   14.02   41.65
 -15   0  12   41.20   52.84
  15  -1 -12   34.48   38.81
  15  -1 -12   -2.86   56.66
 -15   1  12  -14.11   50.39
  15  -2 -12   63.70   46.48
  15  -2 -12  -68.09   66.54
 -15   2  12   25.32   55.35
  15  -3 -12   48.38   46.21
  15  -3 -12   24.80   68.93
 -15   3  12  -27.91   58.44
  16   8 -12  -11.10   40.32
 -16  -8  12  -14.58   46.98
  16   7 -12  -35.62   43.11
  16   7 -12    3.23   65.38
 -16  -7  12   84.20   45.02
 -16  -7  12  -73.36   54.05
  16   6 -12    2.99   58.24
  16   6 -12  -77.47   47.38
 -16  -6  12  -37.08   43.92
 -16  -6  12   92.06   59.99
  16   5 -12 -107.59   51.95
  16   5 -12   38.15   57.23
 -16  -5  12    3.94   64.24
 -16  -5  12    4.08   41.88
  16   4 -12   33.04   49.88
  16   4 -12  -52.56   61.85
 -16  -4  12   89.14   63.73
 -16  -4  12  -28.39   46.38
  16   3 -12   22.69   49.13
  16   3 -12    5.78   62.21
 -16  -3  12  115.99   62.02
 -16  -3  12   -3.97   44.39
  16   2 -12    3.17   45.52
  16   2 -12   40.53   59.51
 -16  -2  12  -27.26   44.73
 -16  -2  12   35.29   63.47
  16   1 -12   24.92   43.36
 -16  -1 -12   13.12   55.05
  16   1 -12  111.77   65.09
  16   1  12   69.21   35.45
 -16  -1  12    3.78   59.37
 -16  -1  12  -15.27   41.77
  16   0 -12  -90.72   44.89
  16   0 -12   11.70   64.15
 -16   0  12  -11.42   58.66
 -16   0  12   -3.74   40.97
  16  -1 -12    3.03   63.62
  16  -1 -12  -28.48   48.50
 -16   1  12  -35.06   59.13
  16  -2 -12  -39.98   51.17
  16  -2 -12   25.65   73.68
 -16   2  12   51.66   56.11
  16  -3 -12    3.50   51.01
  16  -3 -12    3.40   72.42
 -16   3  12   82.28   60.99
  16  -4 -12  -87.21   79.15
  17   8 -12    9.13   47.60
 -17  -8  12  -31.52   51.30
  17   7 -12  -64.72   52.50
 -17  -7  12   -5.00   54.46
 -17  -7  12  -64.85   58.90
  17   6 -12 -231.81   71.07
  17   6 -12  -40.99   56.79
 -17  -6  12   -4.65   51.69
 -17  -6  12   63.74   65.89
  17   5 -12   10.82   54.95
  17   5 -12 -148.39   70.13
 -17  -5  12   68.59   72.09
 -17  -5  12  -36.76   52.09
  17   4 -12   21.57   51.29
  17   4 -12  -38.73   66.94
 -17  -4  12   30.63   68.03
 -17  -4  12    4.55   51.36
  17   3 -12    3.15   66.52
  17   3 -12   56.67   54.98
 -17  -3  12  -22.12   51.01
 -17  -3  12   -8.73   62.57
  17   2 -12  -66.63   71.23
  17   2 -12   59.44   50.09
 -17  -2  12  -81.73   50.49
 -17  -2  12  -38.67   63.88
  17   1 -12  -34.33   52.35
  17   1 -12   -3.17   72.80
 -17  -1  12  -20.92   45.72
 -17  -1  12  -25.16   61.54
  17   0 -12 -141.02   77.06
  17   0 -12   -3.46   45.19
 -17   0  12   28.20   38.64
 -17   0  12   16.85   60.19
  17  -1 -12  -45.33   51.24
  17  -1 -12   -3.24   65.90
 -17   1  12   24.21   45.65
 -17   1  12   30.17   64.80
  17  -2 -12    3.39   75.53
  17  -2 -12  109.69   55.03
 -17   2  12  -74.44   65.02
  17  -3 -12   80.23   53.55
  17  -3 -12   60.00   80.67
 -17   3  12  -71.12   65.43
  17  -4 -12   99.50   86.92
  18   8 -12  -49.99   51.22
 -18  -8  12   78.49   56.32
  18   7 -12   81.16   54.27
 -18  -7  12  -28.38   52.66
 -18  -7  12   34.89   63.18
  18   6 -12   26.85   56.67
  18   6 -12   11.01   74.30
 -18  -6  12    4.31   74.41
 -18  -6  12   31.68   56.09
  18   5 -12 -134.89   78.16
  18   5 -12   58.76   61.67
 -18  -5  12   13.84   73.41
 -18  -5  12   51.67   58.14
  18   4 -12  -70.79   73.77
  18   4 -12  -39.25   61.63
 -18  -4  12  -71.12   77.88
 -18  -4  12   15.28   57.75
  18   3 -12   27.63   71.54
  18   3 -12   54.37   59.88
 -18  -3  12  -28.49   77.88
 -18  -3  12   19.84   56.46
  18   2 -12  -92.13   53.76
  18   2 -12   27.55   76.40
 -18  -2  12   -9.43   78.33
 -18  -2  12   18.83   50.44
  18   1 -12 -129.84   78.75
  18   1 -12 -139.62   61.53
 -18  -1  12  -78.98   71.17
 -18  -1  12   36.39   48.49
  18   0 -12 -127.02   63.99
 -18   0  12   32.64   74.35
 -18   0  12    8.80   52.57
  18  -1 -12 -115.08   79.62
  18  -1 -12   19.25   57.41
 -18   1  12  -34.64   50.68
 -18   1  12  -19.10   70.28
  18  -2 -12   20.14   57.17
  18  -2 -12  -88.59   80.96
 -18   2  12    4.84   74.84
 -18   2  12    8.82   53.58
  18  -3 -12  140.90   87.88
  18  -3 -12   84.03   59.89
 -18   3  12  -31.36   73.27
  18  -4 -12 -320.78  105.45
 -18   4  12   36.51   91.81
  19   5 -12  -46.76   62.05
 -19  -5  12   19.80   81.31
  19   4 -12   -3.89   65.02
  19   4 -12   63.83   62.35
 -19  -4  12   56.21   79.82
  19   3 -12   59.34   61.36
  19   3 -12  -57.27   84.08
 -19  -3  12   27.48   55.14
 -19  -3  12   92.98   82.40
  19   2 -12  -25.28   63.85
  19   2 -12   14.95   77.13
 -19  -2  12   15.62   57.73
 -19  -2  12  -97.73   81.74
  19   1 -12    4.21   61.56
  19   1 -12   48.59   82.38
 -19  -1  12  -46.18   81.26
 -19  -1  12   29.91   50.35
  19   0 -12   12.72   59.42
  19   0 -12   -3.74   79.81
 -19   0  12   19.25   56.36
 -19   0  12  -36.26   77.92
  19  -1 -12 -127.90   67.75
 -19   1  12 -154.50   56.20
 -19   1  12   21.07   78.64
  19  -2 -12    4.45   60.76
 -19   2  12   64.51   77.89
  19  -3 -12   -9.29   62.78
 -19   3  12   -5.80   79.85
   0   0 -13   24.79   41.08
   0   0  13   14.68   26.25
  -1   0 -13  372.71   88.76
   0   1 -13  446.16   89.89
   1   0  13  446.66   78.54
   0  -1  13  358.76   78.49
  -1   0  13  501.18   80.47
   0  -1  13  312.53   85.48
  -1   1 -13   33.08   41.13
   1   1 -13  -14.40   10.80
   1   1 -13  -38.10   38.67
  -1  -1  13    5.29   20.45
  -1  -1  13  -16.49   29.70
   1  -1  13   -4.73   29.86
   1  -1  13   13.11   21.62
   2   1 -13   -1.78   35.21
  -1   2 -13   79.03   39.23
   2   1 -13   50.42   16.73
   1  -2  13   29.91   24.04
  -2  -1  13   53.18   23.19
   1  -2  13   92.47   33.78
  -2  -1  13   -1.47   25.98
   0   2 -13    1.94    7.75
   0   2 -13   44.75   38.16
  -2   0 -13   41.95   44.94
  -2   0  13   12.85   28.30
   0  -2  13   -1.35   21.41
   2   0  13   14.71   26.75
   2   0  13   25.02   38.63
   0  -2  13    6.96   29.96
  -2   1 -13   81.57   46.35
   1   2 -13   55.48   14.23
   1   2 -13   66.01   36.44
  -1  -2  13   46.38   23.55
  -1  -2  13   32.92   28.79
   2  -1  13   44.10   35.25
   2  -1  13   35.41   25.79
   2   2 -13   83.75   32.25
   2   2 -13    0.51   13.40
  -2   2 -13   22.40   39.02
  -2  -2  13   30.19   20.26
   2  -2  13   22.62   23.24
  -2  -2  13   58.91   28.77
   2  -2  13   20.18   32.76
  -2   3 -13  -55.75   44.67
   3   2 -13  -58.28   18.16
  -3  -2  13  -45.50   14.58
   2  -3  13   -2.93   23.37
   2  -3  13   -7.73   35.82
  -3  -2  13   -1.13   19.44
  -1   3 -13   21.86   37.90
   3   1 -13   -3.68   15.93
   1  -3  13   -8.73   30.94
   1  -3  13    1.37   19.63
   0   3 -13  -11.02   35.67
  -3   0 -13   43.71   47.11
   3   0  13   -3.94   37.80
   0  -3  13   -1.36   30.57
   0  -3  13  -12.92   19.77
   1   3 -13    6.25    7.93
   1   3 -13   41.39   33.66
  -3   1 -13  -25.82   47.36
  -1  -3  13    8.68    4.31
  -1  -3  13    3.83   29.11
  -1  -3  13    6.05   19.27
   3  -1  13    8.52   35.09
   2   3 -13  -24.13   12.66
  -3   2 -13  -23.89   47.72
   2   3 -13  -32.66   14.81
   3  -2  13    1.60   25.55
   3  -2  13    2.97    6.14
  -2  -3  13   -2.29    7.29
  -2  -3  13  -37.71   12.08
  -2  -3  13   -9.99   20.22
   3  -2  13   -8.22   36.29
  -2  -3  13  -65.95   34.17
  -3   3 -13 -152.27   52.94
   3   3 -13    2.59   33.18
  -3  -3  13   -1.12   22.55
  -3  -3  13  -32.77   20.03
   3  -3  13 -100.33   41.19
  -3  -3  13  -20.20   10.64
   3  -3  13  -24.78   25.11
   4   3 -13   84.90   18.14
  -3   4 -13   48.57   44.36
  -3   4 -13   84.26   25.08
   3  -4  13   42.19   40.92
   3  -4  13   44.68   25.50
  -4  -3  13   83.72   17.60
   4   2 -13  -11.51   19.92
  -2   4 -13   63.98   23.18
  -2   4 -13  123.41   41.90
   2  -4  13   69.82   25.04
   2  -4  13   66.73   38.05
  -1   4 -13   20.01   19.14
  -1   4 -13   86.61   40.87
   1  -4  13  -92.00   42.09
   1  -4  13   -6.49   23.17
  -4   0 -13   84.78   61.49
   0   4 -13  106.72   27.57
   0  -4  13   68.71   28.55
   0  -4  13  244.17   46.75
   4   0  13   97.62   51.11
   4   0  13   42.80   36.33
   1   4 -13   45.56    9.87
   1   4 -13   85.87   21.19
  -4   1 -13   25.12   49.82
  -1  -4  13  -26.92   20.33
   4  -1  13    6.97   28.49
  -1  -4  13  -19.76   38.35
   4  -1  13  -60.70   40.91
  -1  -4  13   44.51    9.80
   2   4 -13   78.22   17.77
   2   4 -13   58.94   15.80
   2   4 -13   -1.35   39.33
   2   4 -13   11.54   21.34
  -4   2 -13   78.74   51.77
  -2  -4  13   26.36   34.62
   4  -2  13   64.45   39.46
  -2  -4  13   72.55   12.95
  -2  -4  13   65.97   14.73
   4  -2  13   70.17   30.21
   4  -2  13  108.66   13.43
  -2  -4  13   98.35   20.91
   3   4 -13   61.57   18.49
   3   4 -13   73.10   16.72
   3   4 -13   25.34   33.54
   3   4 -13   65.55   20.28
  -4   3 -13   22.75   47.76
  -3  -4  13   65.08   16.53
  -3  -4  13   68.18   14.27
   4  -3  13  119.16   40.25
  -3  -4  13   91.54   33.26
  -3  -4  13  113.33   20.90
   4   4 -13    2.11   12.76
  -4   4 -13  -29.92   44.51
   4   4 -13    8.65   13.27
  -4  -4  13   25.34   14.44
   4  -4  13    1.86   39.00
  -4  -4  13    0.81   14.82
  -4   5 -13  247.79   86.39
   5   4 -13  435.77   63.64
   5   4 -13  384.49   72.44
  -5  -4  13  338.39   55.80
   4  -5  13  438.28   84.41
  -5  -4  13  343.78   59.90
   5   3 -13 1015.30  192.29
   5   3 -13 1148.24  180.71
   5   3 -13 1009.35  201.30
  -5  -3  13 1036.47  163.21
   3  -5  13 1044.66  200.64
  -5  -3  13  958.98  188.90
  -5  -3  13 1133.19  161.60
   5   2 -13  211.73   45.66
  -2   5 -13  182.00   41.79
  -2   5 -13  254.97   64.43
   5   2 -13  356.66   57.35
   5   2 -13  271.52   51.43
   2  -5  13  202.10   47.20
  -5  -2  13  262.12   54.38
  -5  -2  13  239.46   42.05
  -5  -2  13  248.20   48.79
   2  -5  13  244.26   59.75
   5   1 -13  239.20   48.31
  -1   5 -13  192.21   61.28
   5   1 -13  235.17   42.47
  -1   5 -13  267.51   38.78
  -5  -1  13  158.58   47.77
  -5  -1  13  241.85   38.89
   1  -5  13  215.42   43.87
   1  -5  13  263.42   55.63
   0   5 -13  715.58  104.32
   5   0 -13  781.11  133.27
  -5   0 -13  624.43  145.40
   0  -5  13  702.06  132.73
   5   0  13  605.71  137.44
   0  -5  13  574.13  123.54
   5   0  13  446.41  125.50
  -5   0  13  765.57  134.69
  -5   1 -13  211.87   69.43
   5  -1 -13  210.78   46.89
   1   5 -13  233.45   37.58
   1   5 -13  121.03   57.28
   5  -1  13  123.36   49.63
   5  -1  13  135.28   56.79
   5  -1  13  206.59   36.89
  -1  -5  13  217.00   53.87
  -1  -5  13  235.59   43.07
   2   5 -13  219.76   42.98
  -5   2 -13  253.21   72.22
   2   5 -13  271.60   39.25
   2   5 -13  241.07   59.08
   5  -2  13  222.12   38.41
   5  -2  13  206.05   51.79
  -2  -5  13  232.50   45.05
   5  -2  13  248.85   59.63
  -2  -5  13  284.65   55.17
   3   5 -13  965.00  175.23
   3   5 -13  834.20  148.88
  -5   3 -13  925.29  213.68
   5  -3  13 1029.79  181.40
   5  -3  13 1034.55  188.23
  -3  -5  13  856.79  184.91
  -3  -5  13  869.46  176.48
  -5   4 -13  318.42   87.68
   4   5 -13  263.84   53.87
   4   5 -13  304.41   75.54
  -5   4 -13  414.17   62.19
  -4  -5  13  485.59   72.18
  -4  -5  13  264.51   64.35
   5  -4  13  246.92   81.12
   5  -4  13  382.90   68.51
   5   5 -13   10.85   14.33
   5   5 -13  -12.30   32.26
   5   5 -13  -13.60   14.69
  -5   5 -13  -24.53   50.21
   5   5 -13    4.52   18.71
  -5   5 -13   -7.49   24.56
  -5  -5  13    4.91   12.78
  -5  -5  13   11.81   29.62
   5  -5  13   26.69   44.59
   5  -5  13    4.57   24.36
  -5  -5  13  -16.76   12.40
  -5  -5  13   -5.40   17.81
   6   5 -13  145.32   33.06
  -5   6 -13  105.94   62.83
  -5   6 -13   91.67   31.61
   6   5 -13  142.52   27.45
  -6  -5  13   41.08   22.61
   5  -6  13   91.90   32.24
   5  -6  13  154.23   53.30
  -6  -5  13  125.70   28.35
   6   4 -13   18.43   20.97
  -4   6 -13   42.45   52.84
   6   4 -13   17.13   16.69
  -6  -4  13   37.47   19.69
   4  -6  13   42.27   42.76
  -6  -4  13   38.02   13.34
   6   3 -13  185.09   45.21
  -3   6 -13  126.17   39.79
   6   3 -13  198.22   40.09
  -6  -3  13  180.30   38.06
  -6  -3  13  200.30   35.82
   3  -6  13  204.46   42.53
   3  -6  13  358.82   60.56
   6   2 -13  114.96   33.81
  -2   6 -13   88.07   27.82
   6   2 -13  121.67   26.46
  -6  -2  13  126.39   25.90
   2  -6  13  154.73   29.45
  -6  -2  13  144.46   26.32
   2  -6  13  117.71   45.48
   6   1 -13  440.64   97.84
   6   1 -13  538.52  108.26
  -1   6 -13  572.04   82.80
  -6  -1  13  466.68  110.16
   1  -6  13  601.39   95.37
   1  -6  13  511.68  109.22
  -6  -1  13  626.23   89.54
   0   6 -13   25.90   19.04
   6   0 -13   -1.38   20.53
   6   0 -13    7.06   23.89
  -6   0 -13  -30.20   58.71
   0  -6  13   -5.77   17.17
   0  -6  13   -4.72   34.50
   6   0  13   11.11   45.85
   6   0  13   34.34   33.76
  -6   0  13    1.29   24.05
  -6   0  13    2.99   19.62
   6  -1 -13  542.30  104.16
  -6   1 -13  404.33  122.61
   1   6 -13  535.19   81.04
  -1  -6  13  595.44  105.88
  -1  -6  13  599.87   95.82
   6  -1  13  562.84  107.98
   6  -1  13  375.39  100.44
   2   6 -13   64.23   23.28
  -6   2 -13   78.43   58.49
  -2  -6  13   89.26   26.52
   6  -2  13   82.75   36.96
  -2  -6  13  123.70   40.54
   6  -2  13  131.64   49.54
  -6   3 -13  202.65   74.99
   3   6 -13  266.49   34.41
  -3  -6  13  231.31   50.89
  -3  -6  13  186.28   40.83
   6  -3  13  201.92   49.88
   6  -3  13  125.49   57.76
  -6   4 -13   32.46   55.56
  -6   4 -13   30.87   25.43
   4   6 -13  -13.44   16.75
  -4  -6  13   45.48   32.90
  -4  -6  13   26.23   16.13
   6  -4  13  -14.24   44.60
   6  -4  13   26.81   28.12
   5   6 -13  156.60   25.79
  -6   5 -13  161.53   33.53
  -6   5 -13   99.29   63.64
  -5  -6  13  163.10   39.60
   6  -5  13   90.68   32.84
   6  -5  13   93.76   53.19
   6   6 -13  -14.40   17.80
  -6   6 -13  -38.37   62.02
  -6   6 -13  -26.50   28.43
   6  -6  13    3.09   25.30
  -6  -6  13    6.97   18.15
   6  -6  13   13.26   47.82
   7   6 -13  145.91   33.00
  -6   7 -13  183.27   37.87
   7   6 -13  175.79   40.12
   6  -7  13   88.86   61.72
   6  -7  13   94.66   35.67
  -7  -6  13  176.97   30.63
   7   5 -13   29.49   24.72
   7   5 -13    3.78   19.79
  -5   7 -13   12.30   27.79
  -7  -5  13   16.09   15.48
  -7  -5  13   25.94   25.21
   5  -7  13  -20.71   47.02
   5  -7  13   13.44   23.42
   7   4 -13  612.13  105.27
   7   4 -13  555.40  120.76
  -7  -4  13  667.24   95.88
   4  -7  13  433.70  129.85
  -7  -4  13  566.38   99.03
   7   3 -13  292.69   59.39
   7   3 -13  219.15   53.04
  -3   7 -13  275.80   48.17
   3  -7  13  278.45   71.27
  -7  -3  13  324.35   48.36
  -7  -3  13  295.03   49.98
   3  -7  13  290.70   54.55
  -2   7 -13  244.20   42.04
   7   2 -13  254.75   52.10
   7   2 -13  256.60   45.49
  -7  -2  13  221.23   42.57
   2  -7  13  288.93   46.12
   2  -7  13  158.55   61.74
   7   1 -13  107.53   31.10
  -1   7 -13   49.74   24.02
   7   1 -13   83.36   23.22
  -7  -1  13   63.94   24.76
   1  -7  13   24.63   24.14
   1  -7  13  107.98   41.95
   7   0 -13  550.03  117.00
  -7   0 -13  608.03  136.54
   7   0 -13  641.06  109.12
   0   7 -13  569.26   89.16
   7   0  13  603.39   97.41
   0  -7  13  443.63  121.88
   0  -7  13  644.02  109.22
   7   0  13  586.58  112.14
   7   0  13  566.22  123.67
  -7   0  13  478.45   97.39
   7  -1 -13   63.85   31.08
   1   7 -13   37.40   22.47
  -7   1 -13   53.14   67.88
   7  -1  13   33.48   47.10
  -1  -7  13   70.69   39.92
  -1  -7  13   46.54   23.34
  -7   1  13   58.09   27.08
   7  -1  13   94.28   17.90
   7  -1  13   64.68   39.30
   2   7 -13  202.60   39.08
  -7   2 -13  163.02   79.44
   7  -2  13  159.83   53.39
  -2  -7  13  194.58   57.09
  -2  -7  13  215.81   46.30
   7  -2  13  125.96   62.82
   3   7 -13  222.77   45.45
  -7   3 -13  241.23   89.41
   7  -3  13  308.77   70.95
   7  -3  13  262.72   59.58
  -3  -7  13  258.50   64.50
  -7   4 -13  540.00  139.62
  -7   4 -13  518.38  100.96
  -4  -7  13  539.22  116.63
   7  -4  13  584.98  122.74
   7  -4  13  814.43  111.66
  -7   5 -13   12.65   59.49
  -7   5 -13  -14.46   28.88
   7  -5  13   29.68   55.19
  -5  -7  13   60.70   34.76
   7  -5  13   34.50   27.96
   6   7 -13  150.04   30.51
  -7   6 -13  155.32   36.95
  -7   6 -13   67.18   70.48
   7  -6  13   87.52   65.59
   7  -6  13   97.65   37.77
  -7   7 -13   61.02   71.26
  -7   7 -13    2.21   29.55
   7   7 -13  -12.16   19.55
   7  -7  13    2.38   57.61
   7  -7  13    3.22   27.37
  -7   8 -13   -2.33   34.35
   8   7 -13   25.80   21.59
   7  -8  13   12.08   61.17
   7  -8  13    3.42   29.47
  -6   8 -13   20.20   33.52
   8   6 -13  109.96   34.25
   8   6 -13   90.11   26.77
  -8  -6  13   87.27   31.77
   6  -8  13    2.30   53.11
  -8  -6  13  106.93   24.26
   6  -8  13   97.61   30.77
   8   5 -13  238.10   46.85
   8   5 -13  209.07   56.51
  -5   8 -13  255.71   46.83
   5  -8  13  306.67   50.69
  -8  -5  13  196.77   46.82
  -8  -5  13  126.39   41.70
   5  -8  13  484.62   76.56
   8   4 -13   23.26   22.32
   8   4 -13   11.38   28.61
   4  -8  13    4.22   48.17
  -8  -4  13    8.42   26.57
  -8  -4  13   47.36   16.76
   8   3 -13  493.21   74.57
   8   3 -13  377.05   82.37
  -3   8 -13  535.20   65.43
   3  -8  13  405.08   95.36
  -8  -3  13  275.06   69.20
   3  -8  13  334.38   77.16
   8   2 -13   22.30   30.68
   8   2 -13   65.04   22.66
  -2   8 -13   23.41   25.81
  -8  -2  13   26.99   24.52
   2  -8  13   38.19   46.72
   2  -8  13   54.56   24.03
   8   1 -13  299.03   61.12
   8   1 -13  214.22   69.82
  -1   8 -13  249.96   51.76
   1  -8  13  337.03   62.51
  -8  -1  13  354.64   56.52
   1  -8  13  375.86   77.14
   8   0 -13   -1.50   30.07
  -8   0 -13   19.17   69.25
   8   0 -13    1.51   22.59
   0   8 -13   -1.85   24.00
   8   0  13  -21.48   37.25
   0  -8  13   12.63   40.99
   8   0  13   47.65   51.61
  -8   0  13  -17.45   24.66
   0  -8  13   -4.11   22.66
   8   0  13   -3.34   15.53
  -8   1 -13  418.92   96.64
   8  -1 -13  299.28   66.92
   1   8 -13  339.43   52.81
   8  -1 -13  345.48   61.13
  -1  -8  13  329.35   74.63
   8  -1  13  357.98   78.46
  -8   1  13  263.72   56.29
   8  -1  13  315.80   68.76
   8  -1  13  268.88   51.65
  -8   2 -13  116.34   73.12
   8  -2 -13   52.71   34.18
  -2  -8  13   44.84   41.18
   8  -2  13   49.11   36.69
   8  -2  13   68.05   51.45
  -8   3 -13  443.72  109.03
  -3  -8  13  295.31   87.57
   8  -3  13  429.98   90.27
   8  -3  13  414.39   80.14
  -8   4 -13   -6.39   30.03
  -8   4 -13   21.90   67.36
   8  -4  13   14.61   28.64
  -4  -8  13    6.39   37.62
   8  -4  13   20.00   55.88
  -8   5 -13  272.63   84.48
  -8   5 -13  209.67   48.49
  -5  -8  13  194.60   58.51
   8  -5  13  229.71   53.34
  -8   6 -13    2.22   29.77
  -8   6 -13   -2.83   74.25
   8  -6  13  102.58   31.85
   8  -6  13   73.02   61.06
  -8   7 -13  -45.40   76.93
  -8   7 -13    2.30   31.99
   8  -7  13   20.48   62.08
   8  -7  13   21.64   29.64
   8  -8  13    2.60   63.66
  -8   9 -13    7.93   36.70
   9   8 -13    8.15   21.62
   8  -9  13   48.67   33.67
   9   7 -13   21.32   24.91
  -9  -7  13   26.33   25.02
   9   6 -13   13.06   24.42
   9   6 -13    4.68   31.10
   6  -9  13   -2.48   57.69
  -9  -6  13   -6.01   19.53
   6  -9  13   -1.76   23.06
  -9  -6  13  -16.40   35.74
   9   5 -13   31.01   26.56
   9   5 -13   20.67   30.92
  -5   9 -13   -2.40   32.53
   5  -9  13    4.69   60.12
   5  -9  13  -51.49   28.06
  -9  -5  13   18.21   32.73
  -9  -5  13   23.46   19.26
   9   4 -13  450.63   68.31
   9   4 -13  282.21   78.74
  -9  -4  13  404.10   66.17
   4  -9  13  198.88   93.71
  -9  -4  13  445.11   62.59
   9   3 -13   10.74   25.12
  -3   9 -13    2.29   30.22
   9   3 -13   16.18   31.68
   3  -9  13   19.59   25.16
   3  -9  13   41.67   51.43
  -9  -3  13    5.29   19.60
  -9  -3  13  -14.93   29.22
  -2   9 -13  218.08   42.56
   9   2 -13  197.46   41.04
   9   2 -13  137.79   49.77
  -9  -2  13  160.57   41.66
   2  -9  13  130.05   62.50
   9   1 -13   24.45   23.32
   9   1 -13   28.45   36.38
   1  -9  13   44.76   49.66
   9   1  13   31.20   44.49
  -9  -1  13   14.54   29.34
  -9   0 -13  148.85   99.68
   9   0 -13  335.50   61.68
   9   0 -13  305.38   68.68
   9   0  13  319.24   52.82
  -9   0  13  251.45   57.58
   9   0  13  318.69   70.46
   0  -9  13  288.47   79.46
   9  -1 -13   30.19   34.55
  -9   1 -13  -22.81   77.02
   9  -1 -13   23.73   26.34
   9  -1  13   67.79   53.00
  -9   1  13   10.57   28.82
   9  -1  13   31.29   40.18
  -1  -9  13   22.92   46.73
   9  -2 -13  288.74   53.31
  -9   2 -13  134.35   85.27
   9  -2  13  174.09   61.27
   9  -2  13  191.12   51.91
  -9   3 -13  -32.27   72.60
   9  -3  13   14.11   34.52
   9  -3  13  -24.89   53.79
  -9   4 -13  437.55  114.13
  -9   4 -13  423.13   68.20
   9  -4  13  341.48   72.62
   9  -4  13  427.10   89.43
  -9   5 -13   29.13   72.52
  -9   5 -13   11.25   31.15
   9  -5  13   56.41   60.67
   9  -5  13   -1.75   30.44
  -9   6 -13  -29.87   34.05
  -9   6 -13  -68.77   79.08
   9  -6  13 -159.43   64.97
   9  -6  13  -32.30   30.99
  -9   7 -13  142.98   33.13
  -9   7 -13    3.18   77.97
   9  -7  13    2.74   66.18
   9  -7  13   79.01   29.33
  -9   9 -13  193.96   46.80
   9  -9  13  119.86   44.13
   9  -9  13  122.73   85.95
  -9  10 -13    3.19   42.17
   9 -10  13   -9.02   70.10
  -8  10 -13   -3.08   46.75
  10   8 -13  -20.99   26.08
   8 -10  13    2.91   75.62
  -7  10 -13    2.99   40.05
  10   7 -13    5.11   27.64
 -10  -7  13    2.67   27.20
   7 -10  13   77.45   63.84
  -6  10 -13    2.91   38.96
  10   6 -13   85.70   31.86
  10   6 -13  105.91   38.03
 -10  -6  13   89.41   40.25
 -10  -6  13   47.89   25.14
  10   5 -13  114.85   40.11
  10   5 -13  103.92   33.26
 -10  -5  13  135.28   43.54
 -10  -5  13   94.85   28.13
  10   4 -13   80.41   30.84
  10   4 -13   51.10   35.32
 -10  -4  13   97.72   39.51
 -10  -4  13   19.31   22.09
  10   3 -13  211.71   53.91
  10   3 -13  194.99   46.10
 -10  -3  13  243.74   42.09
 -10  -3  13  183.35   48.24
  10   2 -13   11.80   26.73
  10   2 -13   41.21   37.89
 -10  -2  13   -2.05   32.72
 -10  -2  13   48.55   25.69
  10   1 -13    1.68   24.97
  10   1 -13    7.45   40.49
  10   1  13   15.94   20.91
 -10  -1  13  -32.44   31.30
  10   1  13  -10.69   45.11
  10   0 -13    1.78   25.07
  10   0 -13   18.44   39.32
 -10   0 -13  -33.88   84.44
 -10   0  13  -19.18   30.85
  10   0  13  -31.31   47.33
  10   0  13  -24.17   20.16
 -10   1 -13   31.79   82.32
  10  -1 -13   -1.87   37.27
  10  -1 -13  -29.36   29.72
  10  -1  13   41.66   41.96
  10  -1  13  121.53   56.55
 -10   1  13  -13.59   31.82
 -10   2 -13   26.27   81.06
  10  -2 -13   15.28   40.51
  10  -2  13   -2.33   55.34
 -10   2  13    2.66   34.60
  10  -2  13   46.66   34.50
 -10   3 -13   99.84   89.76
  10  -3  13  190.47   53.61
  10  -3  13  198.32   70.95
 -10   4 -13   62.44   79.18
 -10   4 -13   53.22   33.13
  10  -4  13   11.38   34.02
  10  -4  13   43.42   58.88
 -10   5 -13   85.77   83.13
 -10   5 -13   90.63   38.12
  10  -5  13  148.39   63.47
  10  -5  13   64.87   34.51
 -10   6 -13  243.82   88.91
 -10   6 -13    2.38   36.60
  10  -6  13   82.17   73.14
  10  -6  13   64.42   31.48
 -10   8 -13    2.57   38.42
  10  -8  13  -80.28   32.72
  10  -8  13   -3.00   54.77
 -10   9 -13  -10.69   84.68
 -10   9 -13   -2.83   39.40
  10  -9  13    3.07   74.83
  10  -9  13    3.99   32.10
 -10  10 -13   33.13   43.95
  10 -10  13    3.15   75.24
  11   7 -13   -3.77   29.62
  11   7 -13   -2.11   37.57
 -11  -7  13   18.63   41.05
 -11  -7  13   41.78   30.14
  11   6 -13    2.02   32.47
  11   6 -13  -24.34   41.74
 -11  -6  13  -53.02   42.31
 -11  -6  13  -16.70   26.15
  11   5 -13    6.09   30.15
  11   5 -13   40.02   38.50
 -11  -5  13   -7.73   43.39
 -11  -5  13  -13.61   21.05
  11   4 -13   48.03   40.67
  11   4 -13   12.14   30.13
 -11  -4  13   53.02   41.07
 -11  -4  13   26.51   26.17
  11   3 -13    5.88   29.08
  11   3 -13   23.71   42.12
 -11  -3  13   29.01   40.62
 -11  -3  13  -13.77   25.34
  11   2 -13 -107.39   41.41
  11   2 -13   -1.89   29.80
 -11  -2  13  -25.45   35.92
 -11  -2  13  -55.97   25.40
  11   1 -13 -111.42   45.81
  11   1 -13    9.38   30.87
 -11  -1  13   11.31   35.45
  11   1  13  -19.05   48.85
  11   1  13  -15.97   23.52
  11   0 -13   20.47   40.92
  11   0 -13  -42.99   30.27
  11   0  13   -5.33   47.54
  11   0  13   20.63   24.02
 -11   0  13   30.53   36.20
  11  -1 -13   10.54   29.05
 -11   1 -13  -49.56   88.58
  11  -1 -13   14.24   42.87
  11  -1  13  149.74   62.19
  11  -1  13   19.63   46.75
 -11   1  13  -17.26   37.18
  11  -2 -13  -25.51   33.39
 -11   2 -13 -126.30   86.16
 -11   2  13  -39.00   41.06
  11  -2  13   38.07   38.25
  11  -2  13   61.02   58.11
 -11   3 -13   26.67   36.49
 -11   3 -13  -49.72   79.08
  11  -3  13   16.95   57.06
  11  -3  13  -22.22   37.06
 -11   4 -13   40.73   36.23
 -11   4 -13  -19.78   82.43
  11  -4  13   22.71   33.26
  11  -4  13    4.94   61.58
 -11   5 -13   -3.40   86.18
 -11   5 -13   -2.39   34.78
  11  -5  13  -49.35   64.15
  11  -5  13   42.07   31.27
 -11   6 -13   34.53   88.01
  11  -6  13   -2.79   67.85
 -11   7 -13    7.60   35.14
  11  -7  13  -20.33   30.32
 -11   8 -13 -127.10   94.08
 -11   8 -13   -2.66   36.48
  11  -8  13  -17.27   31.99
  11  -8  13    3.21   78.52
 -11   9 -13  -15.19   91.10
 -11   9 -13    2.93   41.36
  11  -9  13  -19.85   80.55
  11  -9  13   34.95   35.16
  11 -10  13    3.40   83.68
  12   8 -13  -29.71   29.37
  12   7 -13   15.88   45.71
 -12  -7  13   23.71   32.03
 -12  -7  13   -2.55   36.18
  12   6 -13   -2.05   38.98
  12   3 -13   -2.20   35.98
  12   2 -13   55.07   29.99
 -12  -2  13   -2.61   43.25
  12   1  13   30.18   46.78
  12   1  13   52.51   27.67
  12   0  13   -7.97   45.33
 -12   1 -13   40.94   97.02
  12  -1  13   38.60   44.18
  12  -1  13   97.76   63.90
 -12   2 -13   22.39   93.35
  12  -2 -13   -2.31   48.85
  12  -2  13   -4.39   37.12
  12  -2  13  -15.37   61.73
 -12   3 -13 -121.98   36.06
 -12   3 -13  -28.15   90.44
  12  -3 -13  103.44   52.57
  12  -3  13   22.35   36.48
  12  -3  13  -72.17   59.75
 -12   4 -13   19.71   35.88
 -12   4 -13  214.45   95.68
  12  -4  13   18.91   34.11
  12  -4  13  104.65   68.58
 -12   5 -13   50.08   95.72
  12  -5  13   -5.33   71.16
 -12   6 -13   -2.51   33.44
 -12   7 -13  -65.54   97.43
 -12   7 -13   10.31   37.61
  12  -7  13  -65.47   79.05
  12  -7  13    3.78   29.78
 -12   8 -13   52.31  102.96
 -12   8 -13   13.68   38.36
  12  -8  13    3.38   82.14
  12  -8  13  -37.44   33.00
 -12   9 -13   16.40  103.21
 -12   9 -13  -36.43   38.78
  12  -9  13    3.54   88.24
  12  -9  13   31.76   36.38
 -12  10 -13  -24.11  102.54
  12 -10  13    3.66   95.42
  13   8 -13  -28.65   32.56
 -13  -8  13   -7.15   39.65
  13   7 -13   17.20   49.03
  13   7 -13  -15.99   34.13
 -13  -7  13   -2.76   42.34
 -13  -7  13   -6.42   33.37
  13   6 -13  -45.92   36.97
  13   6 -13    6.77   46.20
 -13  -6  13   -9.08   49.25
 -13  -6  13  -46.89   31.37
  13   5 -13    2.48   39.81
  13   5 -13    4.44   47.08
 -13  -5  13   44.00   52.12
 -13  -5  13  -23.04   30.92
  13   4 -13    7.60   41.49
  13   4 -13   78.44   46.95
 -13  -4  13   34.82   53.15
 -13  -4  13   -2.85   32.59
  13   3 -13  -36.73   35.85
  13   3 -13    4.44   51.78
 -13  -3  13  -20.28   31.78
 -13  -3  13  -15.17   52.49
  13   2 -13  -63.76   38.26
  13   2 -13    2.28   52.77
 -13  -2  13   23.79   34.54
 -13  -2  13    8.77   48.74
  13   1 -13 -100.16   53.92
  13   1 -13   13.91   35.87
 -13  -1  13  -27.68   34.89
  13   1  13    1.92   29.72
 -13  -1  13   19.73   45.57
  13   0 -13  -46.55   55.95
  13   0 -13   -9.51   34.06
 -13   0  13   31.53   44.29
  13  -1 -13   32.06   52.21
  13  -1 -13  -53.85   35.64
 -13   1  13   -8.93   44.29
  13  -2 -13   -2.50   52.27
 -13   2 -13 -142.74   97.61
  13  -2 -13   79.10   39.23
 -13   2  13  -19.16   44.01
 -13   3 -13   11.13   95.33
  13  -3 -13  -87.61   57.73
 -13   3 -13  117.01   38.27
  13  -3  13   73.10   35.38
 -13   3  13   49.06   49.74
 -13   4 -13   47.06   93.70
  13  -4  13   -2.60   66.81
 -13   6 -13  -10.24   36.95
 -13   6 -13   67.91  102.68
  13  -6  13   22.97   72.71
  13  -6  13   10.97   34.00
 -13   7 -13  -13.18   37.99
 -13   7 -13    4.18  108.08
  13  -7  13  -46.10   34.45
  13  -7  13  190.68   81.24
 -13   8 -13  118.74  121.27
 -13   8 -13   25.29   40.36
  13  -8  13  -30.09   35.91
  13  -8  13  -65.92   87.41
 -13   9 -13    9.00  111.13
 -13   9 -13    3.15   45.55
  13  -9  13   71.50   93.67
  13  -9  13  -13.02   35.95
 -13  10 -13  -61.91  108.35
  13 -10  13   -3.93   97.50
  14   8 -13   33.69   35.26
 -14  -8  13   -2.58   41.23
  14   7 -13    2.50   40.18
  14   7 -13    2.68   53.55
 -14  -7  13   20.88   47.64
 -14  -7  13   42.28   37.86
  14   6 -13  -26.32   43.55
  14   6 -13  101.73   54.44
 -14  -6  13   69.09   53.40
 -14  -6  13   59.05   38.94
  14   5 -13  -10.97   41.40
  14   5 -13  -34.35   53.23
 -14  -5  13  -24.15   58.32
 -14  -5  13  -13.01   32.27
  14   4 -13   11.16   44.48
  14   4 -13   11.99   51.93
 -14  -4  13   90.68   56.82
 -14  -4  13   12.93   36.21
  14   3 -13  100.46   59.28
  14   3 -13   48.65   42.96
 -14  -3  13  -60.74   56.11
 -14  -3  13   45.60   32.89
  14   2 -13  -23.66   40.34
  14   2 -13    2.51   55.36
 -14  -2  13  -32.92   39.64
 -14  -2  13  107.85   52.96
  14   1 -13  100.65   60.19
  14   1 -13  -61.70   38.07
 -14  -1  13  -47.22   50.72
 -14  -1  13  -59.47   33.59
  14   0 -13 -103.93   57.71
  14   0 -13   49.88   39.68
 -14   0  13  -25.43   50.30
  14  -1 -13  -24.56   58.09
  14  -1 -13    5.35   39.38
 -14   1  13  114.80   50.20
  14  -2 -13   39.98   41.54
  14  -2 -13 -102.24   58.42
 -14   2  13  -24.27   48.41
  14  -3 -13    5.88   65.42
 -14   3  13   59.49   56.18
  15   8 -13  -17.29   36.85
 -15  -8  13  -41.68   45.07
  15   7 -13   41.04   60.95
  15   7 -13   35.08   42.46
 -15  -7  13  -46.98   41.97
 -15  -7  13   -3.21   51.12
  15   6 -13  -35.52   57.33
  15   6 -13  -97.04   46.50
 -15  -6  13   17.73   57.19
 -15  -6  13  -18.41   35.87
  15   5 -13   67.58   46.09
  15   5 -13 -100.08   54.12
 -15  -5  13   29.34   39.32
 -15  -5  13   49.18   61.02
  15   4 -13  109.81   51.62
  15   4 -13    2.67   55.61
 -15  -4  13    3.82   57.24
 -15  -4  13  -11.03   41.70
  15   3 -13   35.72   45.39
  15   3 -13   10.74   57.73
 -15  -3  13   22.36   60.95
 -15  -3  13    7.25   39.56
  15   2 -13  149.66   65.39
  15   2 -13   17.49   46.28
 -15  -2  13   57.81   56.70
 -15  -2  13   21.82   44.15
  15   1 -13   44.15   64.51
  15   1 -13  -88.22   44.77
 -15  -1  13   24.96   39.63
 -15  -1  13  -14.05   55.24
  15   0 -13   60.91   43.74
  15   0 -13  107.90   58.82
 -15   0  13   24.86   41.81
 -15   0  13   42.39   56.23
  15  -1 -13    2.92   57.78
  15  -1 -13    2.94   41.95
 -15   1  13  -25.30   51.22
  15  -2 -13    3.03   62.09
  15  -2 -13   59.11   45.61
 -15   2  13  -37.86   50.62
  15  -3 -13   31.94   70.48
  15  -3 -13   60.96   48.18
 -15   3  13   33.94   60.28
  16   8 -13  -75.47   40.22
 -16  -8  13    2.99   51.50
  16   7 -13   38.05   48.14
 -16  -7  13    3.45   57.29
 -16  -7  13   39.53   45.48
  16   6 -13   27.14   60.86
  16   6 -13   75.48   49.67
 -16  -6  13   -7.65   61.81
 -16  -6  13   41.38   45.18
  16   5 -13  -60.03   49.47
  16   5 -13   44.59   60.43
 -16  -5  13  -70.36   46.58
 -16  -5  13   36.90   67.87
  16   4 -13   50.22   60.75
  16   4 -13   63.13   51.58
 -16  -4  13   12.45   66.48
 -16  -4  13   12.40   45.36
  16   3 -13  102.79   65.03
  16   3 -13   26.26   52.19
 -16  -3  13  -32.37   45.87
 -16  -3  13   98.66   67.95
  16   2 -13    2.94   63.84
  16   2 -13    3.22   46.22
 -16  -2  13   95.93   64.85
 -16  -2  13   67.73   38.23
  16   1 -13  122.71   49.35
  16   1 -13  101.68   69.39
 -16  -1  13    3.89   44.37
 -16  -1  13   43.00   63.98
  16   0 -13  -89.71   42.98
  16   0 -13    6.06   61.56
 -16   0  13   15.67   61.73
 -16   0  13  -11.37   43.77
  16  -1 -13   74.38   51.01
  16  -1 -13   77.38   69.97
 -16   1  13   71.86   61.59
  16  -2 -13   37.42   46.75
  16  -2 -13 -112.48   72.98
 -16   2  13  -87.02   58.20
  16  -3 -13 -105.06   77.16
  16  -3 -13   91.50   51.56
 -16   3  13   64.33   58.12
  17   8 -13  -20.45   42.41
 -17  -8  13  -16.05   53.62
  17   7 -13  128.25   75.71
  17   7 -13    6.35   46.56
 -17  -7  13    9.94   51.13
 -17  -7  13   14.76   61.81
  17   6 -13    7.02   51.92
  17   6 -13    3.33   62.66
 -17  -6  13  -23.42   55.28
 -17  -6  13  -45.41   70.72
  17   5 -13 -141.11   61.61
  17   5 -13 -101.27   73.52
 -17  -5  13  -18.66   55.57
 -17  -5  13  -52.88   75.33
  17   4 -13 -137.09   70.81
  17   4 -13 -134.46   59.12
 -17  -4  13   26.93   74.23
 -17  -4  13   23.17   49.75
  17   3 -13  -96.04   68.51
  17   3 -13    3.60   57.69
 -17  -3  13   71.44   70.72
 -17  -3  13    9.00   51.42
  17   2 -13  183.60   72.95
  17   2 -13    3.54   51.92
 -17  -2  13   -8.72   46.29
 -17  -2  13   48.36   66.83
  17   1 -13   61.24   71.79
  17   1 -13   24.61   54.08
 -17  -1  13  -25.45   46.98
 -17  -1  13  -86.57   64.48
  17   0 -13   68.36   73.81
  17   0 -13  -38.89   54.67
 -17   0  13   -4.09   38.02
 -17   0  13   17.39   66.56
  17  -1 -13    3.57   52.19
  17  -1 -13  -72.49   71.86
 -17   1  13   -8.12   46.34
 -17   1  13   35.25   61.86
  17  -2 -13   95.89   79.70
  17  -2 -13   -3.74   49.47
 -17   2  13    4.58   66.03
  17  -3 -13    3.87   87.52
  17  -3 -13  -55.82   56.53
 -17   3  13   -5.02   72.15
  18   8 -13   86.12   51.50
 -18  -8  13   61.97   56.96
  18   7 -13   -3.51   55.40
 -18  -7  13   39.66   59.38
 -18  -7  13   98.99   65.05
  18   6 -13 -129.66   60.77
  18   6 -13   59.02   75.22
 -18  -6  13   -5.32   59.75
 -18  -6  13  -40.01   70.64
  18   5 -13   74.42   62.02
  18   5 -13 -107.77   78.04
 -18  -5  13   -5.25   59.62
 -18  -5  13   84.99   72.52
  18   4 -13   46.68   73.53
  18   4 -13   -3.94   60.65
 -18  -4  13  -25.94   60.06
 -18  -4  13   33.98   80.19
  18   3 -13  -38.42   70.32
  18   3 -13  129.75   64.66
 -18  -3  13   20.15   54.91
 -18  -3  13  -48.81   74.74
  18   2 -13   70.00   79.49
  18   2 -13   31.16   56.66
 -18  -2  13   67.09   53.55
 -18  -2  13 -119.96   70.42
  18   1 -13    3.89   54.61
  18   1 -13   17.60   75.17
 -18  -1  13  119.29   77.94
 -18  -1  13   23.08   54.33
  18   0 -13   -3.53   75.00
  18   0 -13  -70.23   59.44
 -18   0  13    4.82   74.32
 -18   0  13  -17.69   49.16
  18  -1 -13   89.02   81.90
  18  -1 -13   28.02   55.38
 -18   1  13  -24.35   70.06
 -18   1  13    4.34   48.34
  18  -2 -13   56.80   83.40
  18  -2 -13    4.12   59.86
 -18   2  13    5.06   77.97
  18  -3 -13   96.32   62.70
  18  -3 -13   -4.17   84.42
 -18   3  13   38.68   80.24
  19   4 -13  -90.42   67.49
 -19  -4  13   -5.23   81.32
  19   3 -13    4.31   63.23
 -19  -3  13   27.96   62.40
 -19  -3  13  -95.28   85.81
  19   2 -13    4.27   61.42
  19   2 -13    3.81   73.53
 -19  -2  13   -5.24   82.54
  19   1 -13 -132.78   82.57
  19   1 -13  -21.51   57.82
 -19  -1  13  -10.55   82.58
  19   0 -13   -3.81   64.92
  19   0 -13  -90.35   57.55
 -19   0  13  -67.62   55.79
 -19   0  13  -90.86   77.87
  19  -1 -13   31.06   65.49
 -19   1  13  -48.46   79.37
   0   0  14  643.89  124.37
   0   1 -14  -12.28   44.08
  -1   0 -14   -4.62   46.70
  -1   0  14    2.10   32.76
   0  -1  14  -10.60   21.05
   0  -1  14  -15.17   35.84
   1   0  14   10.27   28.13
  -1   1 -14  270.89   71.25
   1   1 -14  277.58   57.68
   1   1 -14  219.59   69.89
   1  -1  14  309.10   65.43
  -1  -1  14  216.04   64.81
   1  -1  14  357.15   57.45
  -1  -1  14  302.99   57.74
   2   1 -14  -29.18   17.56
  -1   2 -14  -19.28   46.36
   1  -2  14   12.75   36.19
  -2  -1  14   35.06   24.25
   1  -2  14   30.65   25.00
  -2  -1  14 -103.36   41.84
  -2   0 -14   -9.56   52.18
   0   2 -14   -3.65   44.92
   0   2 -14   72.82   15.54
   0  -2  14   60.07   27.65
   2   0  14   74.08   45.45
  -2   0  14   41.96   34.67
   0  -2  14   59.02   37.30
   2   0  14   34.71   31.90
  -2   1 -14  -13.26   49.29
   1   2 -14  -22.64   43.91
   1   2 -14    1.67   13.34
   2  -1  14   -1.79   38.80
  -1  -2  14   12.63   24.89
   2  -1  14    8.29   26.31
  -1  -2  14  -12.97   34.83
   2   2 -14 -111.76   45.86
  -2   2 -14  -22.44   49.36
   2  -2  14   12.92   26.17
   2  -2  14  -21.86   39.66
  -2  -2  14 -100.11   45.90
  -2  -2  14  -21.51   24.85
   3   2 -14   -1.60   38.41
   3   2 -14   -4.75   16.81
  -2   3 -14   -9.88   41.93
   2  -3  14   11.07   26.31
  -3  -2  14   12.58   21.58
   2  -3  14    1.69   36.00
  -3  -2  14  -21.70   33.07
  -1   3 -14  -96.56   47.51
   3   1 -14  -76.49   44.58
   3   1 -14  -19.26   17.48
   1  -3  14  -44.53   38.60
   1  -3  14  -12.03   25.10
  -3  -1  14  -12.12   23.80
   0   3 -14  -78.63   45.65
  -3   0 -14  -57.21   57.03
   3   0  14   -2.06   31.44
   0  -3  14  -49.40   38.00
   3   0  14  -60.14   47.03
  -3   0  14  -61.12   38.71
   0  -3  14  -34.38   24.53
  -3   1 -14 -100.05   55.34
   1   3 -14  -77.12   43.78
   1   3 -14  -18.64   10.05
   3  -1  14  -24.41   26.90
  -1  -3  14   -8.73    5.69
   3  -1  14  -51.92   39.32
  -1  -3  14  -29.50   36.45
  -1  -3  14  -14.73   23.01
   2   3 -14    0.43   11.71
  -3   2 -14  -19.49   49.22
   2   3 -14    4.64   36.43
  -2  -3  14   27.64   30.26
  -2  -3  14   -1.42    5.40
   3  -2  14    8.87   36.83
  -2  -3  14   -1.23   19.34
  -2  -3  14    2.13   11.61
   3  -2  14    8.55   25.20
   3   3 -14  130.12   46.54
   3   3 -14  135.20   31.35
  -3   3 -14  231.81   56.37
   3   3 -14  150.23   28.27
  -3  -3  14  177.33   33.19
   3  -3  14  126.96   44.55
   3  -3  14  148.17   37.04
  -3  -3  14  131.62   24.23
  -3  -3  14  145.87   26.32
  -3  -3  14  120.85   39.54
   4   3 -14  278.09   54.60
   4   3 -14  194.51   36.78
   4   3 -14  217.49   41.30
  -3   4 -14  207.66   63.42
  -4  -3  14  376.14   50.05
  -4  -3  14  227.27   44.18
   3  -4  14  216.85   46.91
   3  -4  14  220.12   58.46
  -2   4 -14  -45.88   46.43
  -4  -2  14   17.29   21.04
   2  -4  14   19.60   22.15
   2  -4  14  -26.58   38.32
  -1   4 -14  186.61   37.64
   4   1 -14  235.50   43.14
  -1   4 -14  276.65   56.85
   1  -4  14  273.94   53.30
   1  -4  14  204.25   41.36
   0   4 -14    8.66   19.48
  -4   0 -14   18.26   59.61
   0   4 -14   -6.73   38.77
   4   0 -14   16.21   19.10
   0  -4  14    6.68   19.96
   4   0  14   19.84   47.43
   4   0  14   29.47   33.76
   0  -4  14   -6.36   35.64
  -4   0  14   28.56   32.15
   1   4 -14  258.26   52.82
   1   4 -14  192.04   35.29
  -4   1 -14  186.93   66.30
  -1  -4  14  219.09   41.46
   4  -1  14  211.10   56.71
  -1  -4  14  181.20   50.69
   2   4 -14    1.50   35.36
   2   4 -14   14.85    9.23
   2   4 -14   17.40   16.28
  -4   2 -14   34.59   55.44
  -2  -4  14   -4.57   19.56
   4  -2  14   28.05   40.48
  -2  -4  14   56.05   32.50
  -4   3 -14  172.78   68.91
   3   4 -14  245.03   36.61
   3   4 -14  201.75   40.83
   3   4 -14  230.02   45.27
   3   4 -14  292.94   54.27
  -3  -4  14  176.96   34.47
  -3  -4  14  215.02   50.67
  -3  -4  14  200.41   43.23
   4  -3  14  222.96   55.33
  -3  -4  14  206.55   37.72
   4   4 -14  187.98   32.24
   4   4 -14  142.92   29.22
   4   4 -14  121.55   47.11
  -4   4 -14  135.47   59.22
  -4  -4  14  195.10   42.75
  -4  -4  14  136.31   33.87
   4  -4  14  156.79   56.18
   5   4 -14  202.60   37.69
   5   4 -14  112.35   21.83
   5   4 -14   91.54   25.68
  -4   5 -14   64.78   54.68
   5   4 -14   42.01   18.31
   4  -5  14   66.90   49.70
  -5  -4  14   63.97   21.40
  -5  -4  14   64.32   17.24
  -5  -4  14  103.68   22.12
  -3   5 -14  211.17   62.76
  -3   5 -14  149.00   37.75
   5   3 -14  192.49   39.71
   5   3 -14  175.14   43.83
  -5  -3  14  214.58   35.05
   3  -5  14  258.97   58.97
  -5  -3  14  201.32   37.16
   3  -5  14  204.84   43.91
  -2   5 -14  184.58   62.22
  -2   5 -14  198.80   41.58
   5   2 -14  244.30   42.52
   5   2 -14  233.45   48.14
  -5  -2  14  247.79   39.54
   2  -5  14  229.17   60.15
   2  -5  14  194.43   45.31
  -1   5 -14  725.37  127.24
  -1   5 -14  568.20   96.18
   5   1 -14  547.79  107.71
   5   1 -14  610.20  122.93
   1  -5  14  681.00  125.20
   1  -5  14  665.16  111.37
  -5  -1  14  620.51   97.65
  -5   0 -14  -11.01   58.31
   0   5 -14   43.56   45.06
   5   0 -14   -5.41   20.89
   0   5 -14    4.53   18.23
   5   0  14   23.92   33.94
   0  -5  14  -11.88   40.21
   5   0  14  -29.72   47.73
   0  -5  14  -17.64   20.05
  -5   1 -14  628.47  135.76
   1   5 -14  874.34  124.88
   1   5 -14  559.47   94.13
   5  -1  14  585.03   99.01
   5  -1  14  416.34  112.59
   5  -1  14  566.31  123.17
  -1  -5  14  440.05  121.86
   2   5 -14  302.14   57.92
  -5   2 -14  311.90   73.70
   2   5 -14  199.33   37.31
  -2  -5  14  173.27   42.75
   5  -2  14  188.87   50.24
   5  -2  14  186.91   58.93
  -2  -5  14  122.55   54.62
   3   5 -14  226.74   53.69
  -5   3 -14  360.52   72.79
   3   5 -14  230.93   34.86
  -3  -5  14  190.88   51.93
   5  -3  14  257.15   47.32
   5  -3  14  155.40   54.93
  -3  -5  14  171.79   39.49
  -5   4 -14   99.63   59.05
   4   5 -14   44.67   20.54
   4   5 -14   67.68   39.98
   5  -4  14   86.13   50.25
  -4  -5  14   78.63   21.21
  -4  -5  14   58.39   39.92
   5  -4  14  103.24   32.93
   5   5 -14  254.25   56.63
   5   5 -14  285.12   61.56
   5   5 -14  313.67   47.93
  -5   5 -14  277.76   50.45
  -5   5 -14  323.33   80.69
   5   5 -14  179.90   40.40
   5  -5  14  206.61   71.57
  -5  -5  14  289.70   42.91
  -5  -5  14  186.25   48.12
  -5  -5  14  302.64   59.89
  -5  -5  14  302.69   46.18
   5  -5  14  239.86   53.91
   6   5 -14  -34.11   22.02
  -5   6 -14   -2.55   59.79
  -5   6 -14  -18.50   26.37
   6   5 -14  -11.63   18.17
  -6  -5  14  -20.27   20.60
   5  -6  14   -9.67   25.70
   5  -6  14   15.59   50.60
  -6  -5  14    2.61   14.06
   6   4 -14  235.17   44.29
   6   4 -14  195.85   38.79
  -4   6 -14  185.44   70.06
   4  -6  14  154.90   58.72
  -6  -4  14  105.03   32.39
  -6  -4  14  213.31   37.59
   6   3 -14  212.73   41.34
   6   3 -14  230.91   46.51
  -3   6 -14  402.65   70.25
  -3   6 -14  272.89   41.46
  -6  -3  14  184.92   39.21
   3  -6  14  315.20   61.85
   3  -6  14  193.44   44.20
  -2   6 -14  275.71   65.52
   6   2 -14  212.78   46.62
  -2   6 -14  201.39   39.10
   6   2 -14  191.77   40.54
  -6  -2  14  207.81   37.90
   2  -6  14  241.85   57.66
   2  -6  14  199.94   41.64
   6   1 -14   25.17   27.72
  -1   6 -14   20.30   24.44
   6   1 -14   78.65   21.51
  -6  -1  14   48.98   20.58
   1  -6  14   36.55   23.29
   1  -6  14   40.75   42.19
   6   0 -14  173.37   35.56
   0   6 -14   75.30   27.05
  -6   0 -14   96.82   69.97
   0  -6  14  161.65   29.78
   0  -6  14  173.58   46.33
   6   0  14  145.86   56.35
  -6   0  14  163.30   30.91
   6   0  14  157.16   44.38
  -6   1 -14   11.13   60.92
   1   6 -14   48.15   21.58
   6  -1 -14   63.50   27.31
  -1  -6  14   34.34   37.98
   6  -1  14   59.73   47.95
   6  -1  14   21.37   35.90
  -1  -6  14   70.89   21.57
  -6   2 -14  200.07   74.55
   2   6 -14  165.82   34.99
  -2  -6  14  172.47   39.98
  -2  -6  14  196.52   51.63
   6  -2  14  166.66   50.22
   6  -2  14  198.21   59.56
  -6   3 -14  185.34   76.71
   3   6 -14  164.27   36.12
   6  -3  14  246.82   60.28
  -3  -6  14  153.80   40.30
  -3  -6  14  225.38   54.29
   6  -3  14  221.41   49.16
  -6   4 -14  235.30   73.27
  -6   4 -14  247.37   44.28
   4   6 -14  159.24   32.55
   6  -4  14  229.85   47.92
  -4  -6  14  248.62   51.18
  -4  -6  14  222.03   38.41
   6  -4  14  226.74   65.73
  -6   5 -14   -2.53   61.13
  -6   5 -14  -33.67   30.47
   5   6 -14   -9.68   17.68
   6  -5  14  -16.13   53.32
   6  -5  14   41.43   28.81
  -5  -6  14   -3.96   16.58
  -5  -6  14  -31.23   38.73
  -6   6 -14   48.09   65.91
  -6   6 -14   36.60   30.50
   6  -6  14   67.12   29.18
   6  -6  14  109.84   57.73
   7   6 -14   21.97   22.24
   7   6 -14    3.83   26.27
  -6   7 -14  -11.23   33.52
  -6   7 -14   14.54   69.30
   6  -7  14  -34.82   28.96
  -5   7 -14  282.34   44.98
   7   5 -14  179.30   43.04
   7   5 -14  262.82   52.56
   5  -7  14  126.52   67.63
   5  -7  14  183.39   46.49
  -7  -5  14  206.55   42.67
  -7  -5  14  204.81   38.74
  -4   7 -14   80.67   30.96
   7   4 -14   31.64   21.35
   7   4 -14   36.24   25.81
  -7  -4  14   31.03   15.11
   4  -7  14   68.68   50.29
  -7  -4  14   44.62   24.52
  -3   7 -14  384.48   53.23
   7   3 -14  325.67   56.32
   7   3 -14  207.71   61.84
   3  -7  14  289.05   75.47
   3  -7  14  414.25   58.26
  -7  -3  14  360.21   53.06
  -7  -3  14  356.82   51.35
   7   2 -14  127.24   41.16
  -2   7 -14  120.50   33.55
   7   2 -14  143.69   33.65
  -7  -2  14  139.96   32.62
   2  -7  14  167.82   35.27
   2  -7  14  173.85   53.35
   7   1 -14  364.83   88.50
  -1   7 -14  409.71   66.98
   7   1 -14  471.56   79.73
  -7  -1  14  421.02   73.50
   1  -7  14  393.82   78.16
   1  -7  14  512.62   92.41
  -7   0 -14   28.29   69.24
   0   7 -14    3.40   22.69
   7   0 -14  -18.43   21.44
   7   0 -14  -20.20   28.54
   7   0  14   -4.78   37.05
   0  -7  14   17.61   41.22
   0  -7  14  -13.02   20.17
   7   0  14   25.24   56.80
  -7   0  14   -1.72   25.22
   7   0  14    6.94   14.51
   1   7 -14  405.12   65.84
  -7   1 -14  309.93  111.21
   7  -1 -14  474.54   85.34
   7  -1  14  363.14   92.37
   7  -1  14  404.45   85.40
  -1  -7  14  367.41   89.66
  -1  -7  14  397.66   79.14
  -7   2 -14  132.94   77.13
   2   7 -14  137.57   30.62
   7  -2  14  142.23   42.81
  -2  -7  14  184.05   49.00
   7  -2  14  153.80   58.97
  -2  -7  14  152.61   34.35
  -7   3 -14  213.96   91.02
   3   7 -14  292.12   47.51
   7  -3  14  303.39   75.28
  -3  -7  14  204.44   57.39
  -3  -7  14  210.85   68.39
   7  -3  14  153.80   63.28
   4   7 -14    7.61   20.89
  -7   4 -14   89.95   32.03
  -7   4 -14   35.69   64.87
  -4  -7  14   86.34   40.31
   7  -4  14   18.95   32.00
   7  -4  14   -2.27   49.90
  -7   5 -14  172.56   47.87
  -7   5 -14  159.20   82.06
   7  -5  14  235.52   73.86
   7  -5  14  285.36   50.70
  -5  -7  14  274.92   56.77
  -7   6 -14    2.25   32.43
  -7   6 -14   -8.45   70.83
   7  -6  14  -22.62   29.41
   7  -6  14  -45.69   63.25
  -7   7 -14  111.25   83.69
  -7   7 -14    2.34   35.59
   7  -7  14   63.60   33.40
   7  -7  14   43.46   64.35
   7  -8  14    2.57   58.67
  -6   8 -14    2.35   34.59
   8   6 -14   69.30   25.21
   8   6 -14   73.06   29.62
  -8  -6  14   38.52   20.68
   6  -8  14   52.76   59.26
   6  -8  14    1.73   29.81
  -8  -6  14   79.77   32.18
   8   5 -14  -11.95   27.07
   8   5 -14    5.70   22.82
   5  -8  14    4.56   50.93
  -8  -5  14   17.62   16.98
  -8  -5  14  -15.91   28.08
   5  -8  14  -30.14   31.02
   8   4 -14  512.89  117.26
   8   4 -14  535.06  104.84
  -4   8 -14  439.46   92.12
   4  -8  14  640.23  106.92
  -8  -4  14  538.97   97.80
   4  -8  14  930.95  133.40
  -8  -4  14  521.43   93.66
   8   3 -14   58.91   32.27
   8   3 -14   45.68   23.73
  -3   8 -14   68.56   30.39
  -8  -3  14   53.13   20.36
   3  -8  14   94.85   49.24
   3  -8  14   71.78   26.93
  -8  -3  14   41.74   26.79
   8   2 -14  406.75   71.52
  -2   8 -14  350.22   60.05
   8   2 -14  273.82   80.34
   2  -8  14  452.68   72.89
  -8  -2  14  422.21   65.38
   2  -8  14  405.68   91.40
   8   1 -14  -17.29   22.31
  -1   8 -14   28.93   25.91
   8   1 -14   13.68   31.76
   1  -8  14   61.92   44.60
  -8  -1  14  -10.11   23.16
   1  -8  14   24.62   24.06
   8   0 -14  287.66   65.02
   8   0 -14  360.00   71.90
   0   8 -14  404.39   54.04
  -8   0 -14  250.18  100.13
  -8   0  14  306.73   59.17
   8   0  14  333.92   54.98
   0  -8  14  333.54   78.34
   8   0  14  243.74   72.01
   8   0  14  300.88   84.27
   0  -8  14  283.99   64.93
  -8   1 -14   -3.21   79.56
   1   8 -14   -1.82   24.72
   8  -1 -14   -1.54   31.83
  -8   1  14   13.51   28.27
   8  -1  14  -19.54   40.78
   8  -1  14   -2.36   51.65
  -1  -8  14    3.61   42.16
  -1  -8  14   23.29   21.68
   2   8 -14  264.93   60.00
  -8   2 -14  266.84  105.25
  -2  -8  14  389.22   82.59
   8  -2  14  399.49   79.63
   8  -2  14  309.32   85.08
  -8   3 -14   85.11   71.95
   8  -3  14   56.93   38.44
   8  -3  14   41.76   57.08
  -3  -8  14   22.24   39.97
  -8   4 -14  631.77  100.74
  -8   4 -14  609.48  144.94
  -4  -8  14  519.11  114.70
   8  -4  14  830.38  126.13
   8  -4  14  590.04  108.75
  -8   5 -14   23.37   70.76
  -8   5 -14    4.63   34.05
   8  -5  14   -9.30   29.96
   8  -5  14   34.97   61.24
  -5  -8  14   32.78   38.44
  -8   6 -14   20.82   73.19
  -8   6 -14    7.04   34.50
   8  -6  14    2.67   60.34
   8  -6  14   48.52   33.08
  -8   7 -14  114.16   37.08
  -8   7 -14   41.00   77.29
   8  -7  14  117.32   34.26
   8  -7  14   90.45   69.52
  -8   9 -14  -18.82   37.49
   8  -9  14    7.73   31.36
   8  -9  14 -103.87   65.72
  -7   9 -14   -2.60   32.69
   9   7 -14   10.99   25.20
   7  -9  14    3.75   29.72
   9   6 -14  136.26   30.86
   9   6 -14   88.20   36.87
  -9  -6  14   74.99   26.65
  -9  -6  14   46.16   36.40
   9   5 -14  113.25   30.25
   9   5 -14   84.54   36.78
   5  -9  14    2.45   60.75
  -9  -5  14  138.58   38.65
  -9  -5  14  121.55   24.58
   9   4 -14   16.12   25.54
  -4   9 -14    2.37   31.66
   9   4 -14   24.59   32.22
   4  -9  14   -2.34   56.35
   4  -9  14   11.99   27.42
  -9  -4  14   31.32   31.71
  -9  -4  14   -5.13   17.23
  -3   9 -14  158.79   56.84
   9   3 -14  242.07   61.35
   9   3 -14  392.01   69.29
  -9  -3  14  323.82   58.58
   3  -9  14  299.56   65.27
  -9  -3  14  459.25   56.76
   3  -9  14  185.27   86.07
   9   2 -14   12.90   33.33
   9   2 -14   -1.52   24.46
  -2   9 -14    2.24   29.95
   2  -9  14  -19.55   51.10
  -9  -2  14   -5.44   27.95
   2  -9  14   13.07   27.31
  -1   9 -14  115.62   40.84
   9   1 -14  230.65   54.53
   9   1 -14  173.64   43.85
  -9  -1  14  160.23   42.01
   1  -9  14  325.20   63.46
  -9   0 -14  102.14   85.25
   9   0 -14   80.00   41.97
   0   9 -14   -2.23   29.02
   9   0 -14   12.10   26.65
   0  -9  14   18.63   48.95
   9   0  14   39.69   45.28
  -9   0  14   15.94   29.51
  -9   1 -14   79.52   94.36
   9  -1 -14  225.87   51.26
   9  -1 -14   87.81   44.63
  -9   1  14  336.91   46.82
  -1  -9  14  234.73   62.31
   9  -1  14  254.90   57.75
   9  -1  14  237.16   68.96
  -9   2 -14  -26.05   78.73
   9  -2 -14  -49.61   39.67
   9  -2  14   33.36   40.60
  -2  -9  14    3.98   48.23
   9  -2  14   -4.76   54.65
  -9   3 -14  259.23  102.65
   9  -3  14  263.54   68.58
   9  -3  14  240.16   81.64
  -3  -9  14  296.17   75.31
  -9   4 -14  -40.78   84.16
  -9   4 -14   26.48   35.67
  -4  -9  14   47.02   46.36
   9  -4  14   49.23   36.98
   9  -4  14    2.49   62.89
  -9   5 -14    2.42   36.54
  -9   5 -14    9.55   86.75
   9  -5  14   20.66   65.96
   9  -5  14   87.44   36.14
  -9   6 -14    7.33   40.15
  -9   6 -14  143.67   89.92
   9  -6  14   -2.78   71.41
   9  -6  14  176.88   37.46
  -9   8 -14  -39.01   36.79
   9  -8  14   11.47   33.65
  -9   9 -14    2.78   38.16
  -9   9 -14   32.04   87.00
   9  -9  14    1.99   33.07
   9  -9  14   -3.02   71.77
  -9  10 -14    3.14   41.69
   9 -10  14    3.09   71.88
   9 -10  14    2.16   35.51
  -8  10 -14  -39.48   43.15
   8 -10  14  132.87   71.90
   8 -10  14   -2.10   35.97
  -7  10 -14   -2.95   40.88
  10   7 -14   39.97   29.13
   7 -10  14   -2.87   73.49
 -10  -7  14   26.87   35.77
   7 -10  14    2.03   34.25
  10   6 -14   20.36   30.12
  -6  10 -14   34.43   38.03
  10   6 -14   22.13   35.85
 -10  -6  14   -4.72   37.51
 -10  -6  14   10.75   22.01
   6 -10  14  205.84   63.49
  10   5 -14   18.19   27.63
  10   5 -14   42.91   35.91
 -10  -5  14   44.10   39.05
 -10  -5  14    2.01   21.66
  10   4 -14   81.22   39.68
  10   4 -14  122.22   35.39
 -10  -4  14  111.34   28.11
 -10  -4  14  134.79   42.15
  10   3 -14   22.00   36.09
  10   3 -14   -1.74   27.04
 -10  -3  14   23.31   34.48
   3 -10  14  -32.76   58.59
 -10  -3  14   39.23   24.11
  10   2 -14   42.64   28.83
  10   2 -14  102.02   41.57
 -10  -2  14   82.40   34.97
 -10  -2  14  191.79   31.13
  10   1 -14   17.25   40.93
  10   1 -14  -12.21   27.42
 -10  -1  14   45.62   32.10
  10   0 -14  -14.73   27.55
  10   0 -14   26.38   43.26
 -10   0 -14   35.60   88.01
  10   0  14  -63.85   49.93
 -10   0  14   37.43   30.87
  10  -1 -14   19.02   41.39
 -10   1 -14    3.73   87.42
  10  -1 -14   -8.15   28.46
  10  -1  14  -21.12   58.29
 -10   1  14   45.70   32.50
  10  -1  14    7.94   42.74
  10  -2 -14    7.81   41.93
 -10   2 -14  121.85   85.46
  10  -2  14   61.52   45.29
  10  -2  14   17.40   58.95
 -10   3 -14  -33.20   79.53
  10  -3  14   53.08   39.70
  10  -3  14    2.50   60.17
 -10   4 -14  172.79   87.87
 -10   4 -14   62.64   37.29
  10  -4  14  118.04   43.05
  10  -4  14  174.16   66.04
 -10   5 -14    2.51   36.18
 -10   5 -14   61.36   88.77
  10  -5  14   46.63   33.42
  10  -5  14   21.47   67.58
 -10   6 -14   37.78   90.63
  10  -6  14   -2.86   74.76
 -10   7 -14    2.60   39.69
  10  -7  14   -1.88   31.23
 -10   8 -14  -76.93   93.42
 -10   8 -14   -2.68   43.62
  10  -8  14    1.97   32.45
  10  -8  14    3.20   76.96
 -10   9 -14 -130.62   92.43
 -10   9 -14   -2.87   39.50
  10  -9  14    3.26   78.38
  10  -9  14  -14.37   33.17
 -10  10 -14    3.25   39.16
  10 -10  14   -6.65   82.92
  11   7 -14  -17.26   31.44
 -11  -7  14   81.22   28.11
 -11  -7  14   24.63   40.43
  11   6 -14    8.14   34.67
  11   6 -14   28.09   42.28
 -11  -6  14   14.17   25.56
 -11  -6  14   -7.85   42.20
  11   5 -14    6.15   33.65
  11   5 -14   -3.67   41.39
 -11  -5  14   47.52   26.50
 -11  -5  14   44.51   44.31
  11   4 -14   20.49   32.64
  11   4 -14   43.50   41.50
 -11  -4  14    2.23   23.09
 -11  -4  14   25.53   41.76
  11   3 -14    7.83   30.22
  11   3 -14   26.11   41.42
 -11  -3  14   60.31   37.77
 -11  -3  14    4.69   24.82
  11   2 -14   70.62   42.53
  11   2 -14   15.29   28.71
 -11  -2  14   20.10   26.87
 -11  -2  14   16.30   35.83
  11   1 -14   30.87   30.08
  11   1 -14  -29.12   43.51
  11   1  14   82.76   47.85
 -11  -1  14   27.74   34.95
  11   0 -14   16.72   43.64
  11   0 -14   -4.00   29.74
 -11   0  14  -19.39   35.28
  11   0  14   22.77   52.05
  11  -1 -14  118.47   44.43
  11  -1 -14   -2.19   31.46
 -11   1 -14   -4.01   94.91
  11  -1  14  -47.38   64.08
  11  -1  14  -58.68   48.09
 -11   1  14   12.89   34.32
 -11   2 -14  100.10   91.32
  11  -2  14  -15.64   60.72
 -11   2  14  -12.12   42.94
  11  -2  14  -14.76   43.76
 -11   3 -14   21.25   84.76
  11  -3  14  -20.25   40.42
  11  -3  14   35.97   63.71
 -11   4 -14   20.74   41.06
 -11   4 -14  -56.24   87.75
  11  -4  14   48.28   38.19
  11  -4  14  -87.52   65.57
 -11   5 -14  -32.63   91.93
  11  -5  14   22.22   70.19
 -11   7 -14   75.87   97.12
 -11   7 -14   -2.66   38.37
  11  -7  14   -1.92   33.61
  11  -7  14    3.19   82.24
 -11   8 -14   97.68  107.46
  11  -8  14    3.40   85.23
  11  -8  14    2.02   31.76
 -11   9 -14  106.75   99.24
 -11   9 -14   -2.97   42.33
  11  -9  14    3.50   87.37
  11  -9  14   52.81   35.65
 -11  10 -14  -66.44  102.93
 -11  10 -14    3.38   47.85
  11 -10  14  -25.02   95.00
  11 -11  14   -3.65   96.18
  12   7 -14   67.44   31.96
  12   7 -14    2.25   45.52
 -12  -7  14  147.03   45.08
 -12  -7  14   23.14   30.79
  12   6 -14  -49.43   44.47
  12   1  14   14.49   52.34
  12   0  14  -17.17   51.53
  12  -1 -14  -47.88   47.50
 -12   1 -14   -4.30  104.97
  12  -1  14   40.20   45.37
  12  -1  14    2.96   68.72
 -12   2 -14   78.91   98.24
  12  -2 -14  -37.82   50.76
  12  -2 -14   -2.60   32.65
  12  -2  14 -114.26   72.66
  12  -2  14   -2.41   44.03
 -12   2  14  114.00   42.60
 -12   3 -14   44.93  108.21
 -12   3 -14  167.94   50.95
  12  -3  14  370.67   81.33
  12  -3  14  222.25   55.38
 -12   4 -14   -3.68   97.12
 -12   6 -14    2.68   38.47
 -12   6 -14  176.13  102.42
  12  -6  14   30.69   33.91
  12  -6  14    5.99   76.56
 -12   7 -14    2.73   36.06
 -12   7 -14   12.32  102.14
  12  -7  14   81.33   80.91
  12  -7  14    1.98   33.96
 -12   8 -14   38.11  107.77
 -12   8 -14    2.82   40.61
  12  -8  14   17.72   89.64
  12  -8  14   -2.05   32.02
 -12   9 -14  100.94   45.03
 -12   9 -14  234.48  130.57
  12  -9  14    4.34   38.97
  12  -9  14    3.77   95.03
 -12  10 -14   24.63   49.62
 -12  10 -14  141.97  108.12
  12 -10  14    3.87   96.23
 -12  11 -14   39.81  103.58
  12 -11  14   -3.94   93.29
  13   8 -14   44.95   36.87
  13   7 -14  -12.21   52.79
  13   7 -14   29.80   36.99
 -13  -7  14   28.96   44.94
 -13  -7  14   -3.14   34.25
  13   6 -14   11.34   46.40
  13   6 -14   29.14   37.42
 -13  -6  14    8.78   32.43
 -13  -6  14   66.20   54.02
  13   5 -14    2.58   38.66
  13   5 -14  -42.80   46.75
 -13  -5  14  -52.17   55.41
 -13  -5  14   40.58   30.93
  13   4 -14   11.10   50.22
  13   4 -14  -12.68   40.96
 -13  -4  14   20.24   30.53
 -13  -4  14  -35.28   51.67
  13   3 -14   31.88   37.84
  13   3 -14   -2.26   51.70
 -13  -3  14  -23.77   30.77
 -13  -3  14  -24.57   50.84
  13   2 -14   28.61   36.00
  13   2 -14   18.62   54.22
 -13  -2  14  -18.30   34.20
 -13  -2  14    8.85   48.46
  13   1 -14   23.77   51.20
  13   1 -14    2.37   37.40
 -13  -1  14   -9.44   34.15
 -13  -1  14   31.71   47.21
  13   0 -14  -36.12   38.71
  13   0 -14  -75.15   57.90
 -13   0  14  -76.85   46.74
  13  -1 -14   22.61   54.31
  13  -1 -14  -12.83   40.10
 -13   1 -14   50.43  109.95
 -13   1  14   42.65   45.01
 -13   2 -14   58.70  103.07
  13  -2 -14  -24.75   40.28
  13  -2 -14  -79.22   54.43
  13  -2  14  170.77   70.34
 -13   2  14  -13.51   48.61
  13  -3 -14   11.23   57.24
 -13   4 -14   -2.73   39.36
 -13   5 -14   -2.70   37.42
 -13   5 -14  139.04  107.95
  13  -5  14  -61.27   35.14
  13  -5  14  -17.19   74.64
 -13   6 -14  -13.61   37.97
 -13   6 -14   33.91  112.73
  13  -6  14   55.07   76.08
  13  -6  14    7.68   33.25
 -13   7 -14  -24.90   40.99
 -13   7 -14   45.05  116.60
  13  -7  14   -4.03   37.64
  13  -7  14 -108.06   80.21
 -13   8 -14 -105.93  117.56
 -13   8 -14 -112.73   41.32
  13  -8  14  -68.72   91.87
  13  -8  14  -39.67   38.47
 -13   9 -14   60.81  121.74
 -13   9 -14   34.72   44.60
  13  -9  14    3.96   95.90
  13  -9  14    2.22   35.60
 -13  10 -14  -32.22  121.90
 -13  10 -14   18.35   51.43
  13 -10  14    4.17  115.16
 -13  11 -14  -73.67  109.26
  13 -11  14    4.28  108.58
  14   8 -14   42.48   34.21
 -14  -8  14    2.69   44.11
  14   7 -14   61.35   51.56
  14   7 -14  -56.85   39.53
 -14  -7  14    3.47   39.21
 -14  -7  14    9.35   52.84
  14   6 -14   -7.99   43.51
  14   6 -14 -107.39   54.04
 -14  -6  14   58.17   60.20
 -14  -6  14  -52.53   35.71
  14   5 -14   36.89   44.67
  14   5 -14 -134.18   56.79
 -14  -5  14    3.61   61.40
 -14  -5  14   32.81   34.51
  14   4 -14    8.38   38.85
  14   4 -14   70.94   53.61
 -14  -4  14   85.14   61.75
 -14  -4  14  -19.68   36.54
  14   3 -14   69.87   56.69
  14   3 -14   -2.72   43.62
 -14  -3  14   37.57   57.39
 -14  -3  14   39.83   37.55
  14   2 -14    2.57   56.06
  14   2 -14    2.65   41.81
 -14  -2  14  -47.29   35.38
 -14  -2  14   23.07   47.39
  14   1 -14   -2.61   59.04
  14   1 -14   13.17   42.63
 -14  -1  14  -57.47   38.72
 -14  -1  14  -28.94   48.74
  14   0 -14    5.31   38.40
  14   0 -14    2.65   58.59
 -14   0  14  -36.04   51.10
  14  -1 -14 -100.68   41.36
  14  -1 -14   13.87   56.32
 -14   1  14  -46.90   51.49
  14  -2 -14   11.79   44.41
  14  -2 -14  134.32   62.99
 -14   2  14  -36.45   50.90
  14  -3 -14   54.33   62.31
 -14   9 -14    3.25   44.49
 -14  11 -14  122.79  130.50
  15   8 -14  -46.09   37.94
 -15  -8  14   -2.88   48.73
  15   7 -14  -70.23   56.41
  15   7 -14  -50.85   41.43
 -15  -7  14   11.60   40.87
 -15  -7  14  -10.04   54.16
  15   6 -14  118.36   56.56
  15   6 -14  -55.48   43.71
 -15  -6  14   29.60   60.73
 -15  -6  14   -7.39   38.47
  15   5 -14   27.71   48.82
  15   5 -14  -60.33   57.02
 -15  -5  14    3.71   41.49
 -15  -5  14  -19.56   63.01
  15   4 -14    2.70   59.06
  15   4 -14    3.08   44.01
 -15  -4  14   56.04   39.74
 -15  -4  14  -54.62   63.07
  15   3 -14    2.73   55.97
  15   3 -14  -60.14   46.69
 -15  -3  14  -22.30   42.92
 -15  -3  14    3.78   60.48
  15   2 -14   -2.94   45.68
  15   2 -14   38.80   63.60
 -15  -2  14  -55.84   40.61
 -15  -2  14  -43.95   61.44
  15   1 -14  241.26   68.83
  15   1 -14   70.14   49.72
 -15  -1  14   14.33   56.75
 -15  -1  14   14.64   43.83
  15   0 -14   -2.93   45.10
  15   0 -14  117.95   66.19
 -15   0  14   60.99   42.24
 -15   0  14   14.54   54.96
  15  -1 -14  202.79   69.31
  15  -1 -14   52.06   44.86
 -15   1  14  -11.06   54.61
  15  -2 -14    3.07   65.72
  15  -2 -14  -22.42   45.17
 -15   2  14  -11.90   57.83
  15  -3 -14    6.56   69.65
 -15   3  14   55.45   62.85
  16   8 -14  -23.51   38.85
 -16  -8  14  -36.98   51.66
  16   7 -14 -238.69   75.36
  16   7 -14   17.51   49.89
 -16  -7  14   -7.14   58.95
 -16  -7  14  -74.05   47.72
  16   6 -14 -191.50   55.49
 -16  -6  14  -92.05   69.33
 -16  -6  14  -20.87   49.22
  16   5 -14  -56.84   48.68
  16   5 -14   84.57   64.82
 -16  -5  14   16.77   46.23
 -16  -5  14  -71.97   70.61
  16   4 -14  -10.06   53.08
  16   4 -14   41.92   64.07
 -16  -4  14   33.70   45.36
 -16  -4  14   17.00   63.75
  16   3 -14  -65.85   63.36
  16   3 -14   19.85   52.65
 -16  -3  14  -37.01   46.36
 -16  -3  14   33.43   66.80
  16   2 -14  118.46   68.90
  16   2 -14   61.79   52.83
 -16  -2  14   28.33   66.94
 -16  -2  14  -81.46   40.33
  16   1 -14    3.04   61.22
  16   1 -14  -68.03   45.26
 -16  -1  14  -59.86   61.37
 -16  -1  14  -19.73   42.39
  16   0 -14   22.69   44.44
  16   0 -14    3.08   64.85
 -16   0  14  -15.35   44.15
 -16   0  14   44.37   63.15
  16  -1 -14   -3.37   47.76
  16  -1 -14   41.02   70.38
 -16   1  14  -20.37   61.56
  16  -2 -14   24.47   52.13
  16  -2 -14   50.77   75.82
 -16   2  14    4.34   61.36
  16  -3 -14 -118.72   78.24
 -16   3  14  -99.22   66.56
  17   8 -14  -68.01   43.25
 -17  -8  14   52.53   52.07
  17   7 -14  -70.16   53.42
  17   7 -14  114.17   73.31
 -17  -7  14  -24.72   50.37
 -17  -7  14  -53.37   62.45
  17   6 -14   50.37   68.33
  17   6 -14    3.50   56.13
 -17  -6  14  -33.02   50.50
 -17  -6  14  -38.56   69.01
  17   5 -14    3.32   67.34
  17   5 -14   -3.62   55.58
 -17  -5  14  -23.68   49.22
 -17  -5  14  -90.61   76.10
  17   4 -14  -69.34   60.23
  17   4 -14 -201.72   77.16
 -17  -4  14  -59.97   74.16
 -17  -4  14   56.58   48.30
  17   3 -14  367.97   78.71
 -17  -3  14  114.99   87.83
 -17  -3  14   36.72   66.39
  17   2 -14 -140.67   80.54
  17   2 -14 -265.16   66.18
 -17  -2  14   26.66   53.33
 -17  -2  14   -8.89   74.02
  17   1 -14   75.36   51.74
  17   1 -14  -32.81   72.85
 -17  -1  14  -70.96   67.74
 -17  -1  14  -12.88   47.69
  17   0 -14  -46.82   56.39
  17   0 -14  -89.23   78.15
 -17   0  14   12.39   44.18
 -17   0  14   13.44   64.61
  17  -1 -14 -104.09   76.70
  17  -1 -14  -33.51   54.14
 -17   1  14   20.26   49.39
 -17   1  14    4.51   65.87
  17  -2 -14 -254.58   89.96
  17  -2 -14 -230.23   69.29
 -17   2  14  -95.63   75.22
  17  -3 -14  631.72  109.90
 -17   3  14  -64.82   91.39
  18   8 -14    3.11   46.10
 -18  -8  14  -45.43   57.86
  18   7 -14   51.49   82.40
  18   7 -14  -24.88   55.40
 -18  -7  14   57.19   69.10
 -18  -7  14   11.31   56.90
  18   6 -14    3.78   59.65
  18   6 -14  234.09   79.35
 -18  -6  14  -10.72   61.60
 -18  -6  14  -68.25   73.17
  18   5 -14    3.64   73.59
  18   5 -14  -27.50   60.33
 -18  -5  14  -96.72   77.46
 -18  -5  14  143.99   62.49
  18   4 -14   63.78   62.82
  18   4 -14   91.16   76.98
 -18  -4  14  -63.37   58.78
 -18  -4  14   59.77   78.45
  18   3 -14   92.32   77.48
  18   3 -14   43.89   60.34
 -18  -3  14   20.38   56.16
 -18  -3  14   25.01   74.75
  18   2 -14   28.45   77.18
  18   2 -14   -7.87   60.29
 -18  -2  14  -34.48   78.05
 -18  -2  14   24.37   54.92
  18   1 -14    3.57   79.39
  18   1 -14  124.04   63.46
 -18  -1  14  108.05   72.78
 -18  -1  14  -23.36   50.56
  18   0 -14   35.82   59.19
  18   0 -14   28.66   79.62
 -18   0  14   17.76   50.75
 -18   0  14   89.49   77.58
  18  -1 -14 -173.18   62.96
  18  -1 -14   73.76   82.60
 -18   1  14   19.96   74.94
 -18   1  14  -56.35   46.99
  18  -2 -14   50.34   86.20
  18  -2 -14  -33.85   59.85
 -18   2  14   10.59   75.29
  18  -3 -14    4.30   96.07
 -18   3  14  -11.87   84.62
  19   3 -14  -26.14   65.15
 -19  -3  14  -16.27   85.68
  19   2 -14   87.54   66.11
 -19  -2  14  -81.48   82.14
  19   1 -14  -88.36   65.22
 -19  -1  14   49.04   85.44
  19   0 -14  -79.17   64.51
 -19   0  14   49.79   79.71
   0   0  15   11.81   36.26
  -1   0 -15 1020.26  211.62
   0   1 -15 1030.47  216.38
   0  -1  15 1034.77  199.11
  -1   0  15 1516.12  199.74
   1   0  15  947.14  196.36
   0  -1  15  907.67  210.85
   1   1 -15  -15.21   45.63
  -1   1 -15   18.39   52.40
  -1  -1  15  -18.25   40.34
   1  -1  15   41.44   38.66
   1  -1  15   -1.71   25.78
  -1  -1  15    8.00   23.21
   2   1 -15   33.99   47.96
   2   1 -15   18.89   15.18
  -1   2 -15   10.52   45.73
   1  -2  15   44.71   36.47
  -2  -1  15    6.20   25.92
   1  -2  15   14.79   26.83
  -2  -1  15  -18.25   40.68
  -2   0 -15   33.40   53.93
   0   2 -15   38.08   43.93
   2   0  15   13.64   35.39
   0  -2  15   14.20   25.80
  -2   0  15   -9.65   38.15
   0  -2  15   46.04   34.90
   1   2 -15   68.99   44.62
  -2   1 -15    4.78   52.47
   1   2 -15   -9.65   13.24
   2  -1  15    1.94   38.32
  -1  -2  15    4.57   24.25
   2  -1  15    8.93   27.86
  -1  -2  15   36.34   34.98
   2   2 -15   16.53   41.87
   2   2 -15   -6.97   15.45
  -2   2 -15  -59.82   48.64
   2  -2  15    3.44   26.17
  -2  -2  15    1.53   32.14
   2  -2  15   -1.81   37.60
  -2  -2  15  -10.30   23.98
   3   2 -15   10.81   16.94
  -2   3 -15  -25.81   50.81
   3   2 -15  -70.56   42.47
  -3  -2  15  -18.11   23.66
   2  -3  15   45.40   40.58
   2  -3  15   32.18   27.50
  -3  -2  15   33.27   34.99
   3   1 -15  228.30   58.82
  -1   3 -15  208.90   61.21
   1  -3  15  202.49   51.55
   1  -3  15  137.56   43.09
  -3  -1  15  221.79   44.87
  -3   0 -15  -88.08   60.33
   0   3 -15   19.14   45.76
   3   0  15  -21.11   50.48
   0  -3  15   40.36   36.70
  -3   0  15   -2.34   38.31
   3   0  15  -15.82   35.84
   0  -3  15    6.20   25.17
  -3   1 -15  272.53   68.43
   1   3 -15  158.40   57.14
  -1  -3  15  188.68   49.48
   3  -1  15  151.23   45.59
  -1  -3  15  167.68   43.26
   3  -1  15  232.75   55.05
   2   3 -15 -106.99   40.30
  -3   2 -15   63.27   55.77
  -2  -3  15   18.78   33.30
  -2  -3  15  -17.99   22.89
   3  -2  15   -1.82   28.60
   3  -2  15   17.10   40.32
   3   3 -15   -1.59   38.71
  -3   3 -15  -41.12   48.35
   3   3 -15  -22.66   15.47
   3   3 -15   -7.95   13.64
   3  -3  15   24.92   30.34
  -3  -3  15   -6.33   22.85
   3  -3  15  -13.39   43.52
  -3  -3  15   -8.24   33.50
   4   3 -15   86.74   39.80
  -3   4 -15  101.71   53.19
   3  -4  15   65.20   45.68
   3  -4  15   95.16   30.82
  -4  -3  15   76.50   24.29
  -4  -3  15   55.83   33.24
  -2   4 -15  292.69   74.68
   4   2 -15  308.35   69.62
  -4  -2  15  249.73   63.48
   2  -4  15  277.44   67.15
   2  -4  15  225.52   56.28
  -4  -2  15  229.84   59.09
  -1   4 -15  104.88   48.71
   4   1 -15  112.41   26.08
  -4  -1  15   45.64   29.47
   1  -4  15  105.34   27.43
   1  -4  15   62.25   42.37
   4   0 -15   -1.92   19.00
  -4   0 -15   -5.59   58.18
   0   4 -15   22.42   45.53
   0  -4  15  -17.73   23.63
   4   0  15    2.40   47.25
   0  -4  15    3.37   40.90
  -4   0  15   47.84   37.39
   1   4 -15   67.01   21.69
  -4   1 -15   31.61   59.25
   1   4 -15   59.00   43.71
   4  -1  15   68.90   47.59
  -1  -4  15   33.34   39.96
  -1  -4  15   64.66   26.28
   2   4 -15  297.71   46.71
   2   4 -15  248.24   68.76
  -4   2 -15  360.75   81.05
   4  -2  15  155.75   69.06
  -2  -4  15  301.05   62.21
  -2  -4  15  333.73   55.45
   3   4 -15   44.55   19.30
  -4   3 -15   94.75   55.83
   3   4 -15   39.84   40.33
   4  -3  15   58.54   45.54
  -3  -4  15   24.99   22.61
  -3  -4  15   63.94   35.07
   4   4 -15  -18.01   16.62
   4   4 -15   28.34   39.23
  -4   4 -15  -67.63   56.06
  -4  -4  15  -18.15   32.12
  -4  -4  15  -12.98   17.99
   4  -4  15   18.77   44.88
   5   4 -15   62.69   25.06
   5   4 -15   62.14   19.78
   5   4 -15   81.74   20.79
  -4   5 -15   -2.02   27.55
   5   4 -15   99.06   40.48
  -4   5 -15   69.42   57.54
  -5  -4  15  155.05   35.88
  -5  -4  15   63.90   21.05
   4  -5  15  124.35   54.49
   5   3 -15   21.69   14.46
   5   3 -15  -15.53   39.71
  -3   5 -15   57.43   27.24
   5   3 -15   27.49   16.78
   5   3 -15   42.94   21.57
  -3   5 -15   76.20   53.17
   3  -5  15   55.06   49.08
  -5  -3  15   36.09   13.19
  -5  -3  15   29.20   19.86
  -5  -3  15  129.61   33.04
   3  -5  15   46.30   25.21
  -5  -3  15   38.28   17.62
   5   2 -15   94.39   24.88
  -2   5 -15   70.61   29.30
  -2   5 -15   74.33   51.36
   5   2 -15   89.11   29.52
   2  -5  15  101.02   30.31
   2  -5  15   93.46   49.90
  -5  -2  15   92.59   28.26
  -5  -2  15   99.70   23.32
   5   1 -15  108.77   33.93
  -1   5 -15  165.92   30.36
  -1   5 -15  185.78   54.15
   1  -5  15   93.07   49.40
  -5  -1  15  120.43   29.81
   1  -5  15  154.57   33.84
  -5  -1  15  111.30   36.88
   0   5 -15   72.50   26.41
  -5   0 -15   91.22   67.68
   5   0 -15   50.52   29.26
   0   5 -15  197.61   51.35
   0  -5  15  113.09   47.09
  -5   0  15   85.79   40.08
   5   0  15  125.96   39.67
   5   0  15   69.26   57.86
   0  -5  15  106.77   29.13
   1   5 -15   99.59   27.54
   1   5 -15  174.65   48.93
  -5   1 -15  108.78   64.77
  -1  -5  15  180.86   47.06
  -1  -5  15  116.78   31.55
   5  -1  15  104.74   54.04
   5  -1  15   52.49   40.19
  -5   2 -15   34.47   64.37
   2   5 -15  106.53   44.97
   2   5 -15  118.73   24.64
   5  -2  15   84.70   36.58
  -2  -5  15   91.31   44.10
  -2  -5  15  111.88   26.72
   5  -2  15  119.66   53.29
  -5   3 -15   72.19   61.17
   3   5 -15   18.05   18.25
   3   5 -15   17.74   40.93
  -3  -5  15   81.05   38.45
   5  -3  15   38.32   47.66
  -3  -5  15   40.58   19.67
   5  -3  15   31.84   32.43
   4   5 -15  185.27   42.51
  -5   4 -15  129.17   64.32
   4   5 -15   75.59   20.66
  -4  -5  15  110.75   42.03
   5  -4  15   63.81   32.97
   5  -4  15   94.40   55.47
  -4  -5  15   90.36   22.05
  -5   5 -15  -10.67   26.02
  -5   5 -15  -48.26   59.83
   5   5 -15    3.20   14.92
   5  -5  15    5.44   30.01
  -5  -5  15   12.04   35.83
   5  -5  15  -78.76   56.93
  -5  -5  15    7.16   15.17
  -5   6 -15   66.60   72.61
   5  -6  15  127.25   40.49
   5  -6  15  250.88   67.96
   6   4 -15  217.72   40.36
  -4   6 -15  220.46   42.76
  -4   6 -15  226.43   74.82
   6   4 -15  225.01   45.49
  -6  -4  15  208.37   33.98
   4  -6  15  176.98   45.55
  -6  -4  15  142.46   37.84
   4  -6  15  195.82   65.65
  -3   6 -15  108.87   30.93
   6   3 -15  100.24   31.39
   6   3 -15  129.23   25.56
  -3   6 -15  138.72   63.48
  -6  -3  15  121.62   25.33
   3  -6  15  202.38   33.12
   3  -6  15  139.58   54.86
  -6  -3  15   59.28   20.75
   6   2 -15  257.82   55.13
  -2   6 -15  240.12   81.38
  -2   6 -15  263.08   49.72
   6   2 -15  258.42   62.47
   2  -6  15  271.53   73.16
  -6  -2  15  261.90   51.46
   2  -6  15  459.91   56.68
   6   1 -15  136.25   39.40
   6   1 -15  157.66   32.75
  -1   6 -15  138.85   59.25
  -1   6 -15  144.34   32.61
   1  -6  15  111.24   51.43
  -6  -1  15  139.95   31.24
   1  -6  15  188.08   34.08
   0   6 -15  -23.64   51.15
   6   0 -15   -3.71   24.26
   0   6 -15  -10.11   22.42
  -6   0 -15  -40.56   65.56
   6   0  15  -30.95   54.26
   0  -6  15   16.88   41.97
   0  -6  15   18.61   22.74
   6   0  15   14.52   38.68
   6  -1 -15  145.96   37.80
   1   6 -15  145.90   56.17
  -6   1 -15   97.95   70.82
   1   6 -15  128.46   31.00
   6  -1  15  139.60   56.86
   6  -1  15   67.66   43.44
  -1  -6  15  112.34   48.90
  -1  -6  15  121.11   32.74
   2   6 -15  290.88   72.87
   2   6 -15  323.78   46.79
  -6   2 -15  183.73   90.50
   6  -2  15  268.88   61.78
  -2  -6  15  218.38   53.25
   6  -2  15  295.81   71.89
  -2  -6  15  295.11   67.66
   3   6 -15  115.87   50.56
  -6   3 -15  121.08   69.86
   3   6 -15  112.14   24.05
  -3  -6  15   45.10   26.67
  -3  -6  15   56.28   46.71
   6  -3  15  120.27   41.00
   6  -3  15  164.17   59.88
  -6   4 -15  199.01   77.43
   4   6 -15  225.45   34.28
   4   6 -15  150.66   59.38
   6  -4  15  185.55   49.30
  -4  -6  15  244.59   56.83
   6  -4  15  167.21   66.44
  -4  -6  15  153.56   40.08
  -6   5 -15  162.03   37.40
  -6   5 -15   73.62   73.66
  -5  -6  15  169.33   32.81
   6  -5  15   89.71   63.33
   6  -5  15  136.30   41.30
  -5  -6  15  100.89   49.41
  -6   6 -15   44.96   70.55
  -6   6 -15    6.88   28.68
   6  -6  15 -179.00   77.73
   6  -6  15   -1.81   31.60
  -6   7 -15    2.37   33.81
  -6   7 -15   93.05   79.40
   6  -7  15    2.57   60.23
   6  -7  15   41.94   30.65
   7   5 -15   11.12   21.21
   7   5 -15  -25.96   25.14
  -5   7 -15  -78.26   82.39
   7   4 -15  118.17   35.15
  -4   7 -15   47.78   71.47
   7   4 -15  171.73   29.79
  -4   7 -15  165.39   35.24
  -7  -4  15  106.89   24.39
   4  -7  15  -33.67   66.82
   4  -7  15  159.49   35.65
  -7  -4  15  130.90   30.79
   7   3 -15  105.54   32.20
   7   3 -15   81.09   23.85
  -3   7 -15   55.91   30.96
   3  -7  15  129.47   54.04
   3  -7  15   97.19   29.62
  -7  -3  15  102.89   21.56
  -7  -3  15   72.07   27.19
   7   2 -15  309.20   66.16
   7   2 -15  360.17   74.56
  -2   7 -15  360.20   57.86
   2  -7  15  366.02   83.95
   2  -7  15  321.47   64.77
  -7  -2  15  319.55   61.61
  -1   7 -15   13.11   25.68
   7   1 -15   61.11   23.05
   7   1 -15   22.23   30.34
  -7  -1  15   78.92   23.50
   1  -7  15    8.52   23.50
   1  -7  15   32.82   45.59
   7   0 -15  135.46   47.09
   0   7 -15  247.31   36.91
  -7   0 -15   73.21   85.96
   7   0  15  301.22   69.74
   0  -7  15  152.73   55.60
   7   0  15  126.07   54.13
   0  -7  15  163.46   41.22
  -7   0  15  223.10   40.00
   1   7 -15   38.44   23.80
   7  -1 -15   10.01   30.15
  -7   1 -15    9.53   76.79
  -1  -7  15   27.41   22.66
   7  -1  15   19.21   54.97
   7  -1  15   33.75   42.80
  -1  -7  15   85.02   41.53
  -7   2 -15  380.74  103.17
   2   7 -15  338.33   54.11
   7  -2  15  345.02   82.37
  -2  -7  15  380.61   75.61
  -2  -7  15  291.33   65.44
   7  -2  15  456.16   72.30
   3   7 -15   34.28   22.10
  -7   3 -15   87.82   74.71
   7  -3  15  145.35   41.88
  -3  -7  15  132.57   45.72
   7  -3  15   87.67   56.58
  -3  -7  15   65.03   24.90
   4   7 -15  127.96   27.03
  -7   4 -15   56.12   76.19
  -4  -7  15  188.23   46.97
   7  -4  15   46.37   60.46
   7  -4  15   64.38   41.70
  -4  -7  15  107.39   30.00
  -7   5 -15  -35.23   70.60
  -7   5 -15    2.37   34.76
   7  -5  15 -123.56   69.02
   7  -5  15  -35.01   36.42
  -7   6 -15   -2.40   33.63
  -7   6 -15  -20.75   73.20
   7  -6  15   20.73   32.09
   7  -6  15   13.42   66.21
  -7   7 -15  -53.38   81.66
   7  -7  15    2.75   69.10
  -6   8 -15   25.95   82.44
   6  -8  15    2.56   62.94
   8   5 -15  136.88   46.72
   8   5 -15  251.91   39.38
   5  -8  15  102.87   68.61
  -8  -5  15  218.11   33.17
  -8  -5  15  158.31   40.35
   8   4 -15   45.77   29.50
  -4   8 -15   15.83   29.92
   8   4 -15   16.70   22.42
  -8  -4  15   18.14   26.93
   4  -8  15   83.17   29.34
  -8  -4  15   28.29   17.26
   4  -8  15  -51.90   55.12
   8   3 -15  388.30   64.47
   8   3 -15  327.57   72.48
  -3   8 -15  167.22   57.27
  -8  -3  15  380.89   59.22
   3  -8  15  400.85   87.62
   3  -8  15  452.37   65.85
  -8  -3  15  293.09   60.44
   8   2 -15   74.05   25.57
  -2   8 -15   43.66   28.87
   8   2 -15   70.03   37.22
   2  -8  15   85.10   27.58
   2  -8  15   64.54   52.16
  -8  -2  15   38.84   26.01
  -1   8 -15  334.83   49.42
   8   1 -15  235.55   57.12
   8   1 -15  253.25   66.41
  -8  -1  15  217.24   54.66
   1  -8  15  191.59   74.24
   1  -8  15  386.54   58.89
   8   0 -15  -17.20   32.56
  -8   0 -15  -32.10   82.83
   0   8 -15  -15.21   25.52
   8   0 -15  -20.58   26.14
   0  -8  15   23.22   23.81
   8   0  15   -2.64   44.79
   0  -8  15    3.96   46.87
  -8   0  15   11.80   27.99
   1   8 -15  268.76   47.08
  -8   1 -15  337.09   99.68
   8  -1 -15  248.89   63.80
  -1  -8  15  287.38   72.93
  -1  -8  15  338.32   57.93
   8  -1  15  252.63   79.98
   8  -1  15  301.82   68.57
   2   8 -15   40.93   26.04
  -8   2 -15   58.23   80.66
   8  -2  15   46.59   43.91
  -2  -8  15   36.94   25.32
   8  -2  15   70.33   57.33
  -2  -8  15  114.64   48.02
  -8   3 -15  215.54  102.81
   3   8 -15  261.49   54.60
  -3  -8  15  320.05   77.94
   8  -3  15  247.53   70.72
   8  -3  15  250.74   88.19
  -8   4 -15  -29.80   36.38
  -8   4 -15   37.73   76.46
   8  -4  15   68.34   36.69
   8  -4  15   33.08   62.81
  -4  -8  15   33.66   42.18
  -8   5 -15  207.39   90.85
  -8   5 -15   17.40   45.25
   8  -5  15  212.05   47.96
   8  -5  15    2.63   76.32
  -8   6 -15  -15.90   76.66
  -8   6 -15  -55.10   37.04
   8  -6  15    2.81   65.37
   8  -6  15    1.95   31.60
  -8   8 -15   -2.65   37.09
   8  -8  15   48.78   36.66
  -8   9 -15   -2.77   40.70
  -8   9 -15  310.25  100.00
   8  -9  15  -32.29   36.13
   8  -9  15  109.96   77.07
  -7   9 -15    2.68   37.36
   7  -9  15   72.02   68.29
   7  -9  15    1.96   33.21
  -6   9 -15    2.59   36.33
   9   6 -15   35.37   31.71
   6  -9  15   34.13   30.43
   9   5 -15   40.97   25.55
   9   5 -15   46.19   33.04
  -9  -5  15   26.56   20.68
  -9  -5  15   50.59   32.70
   9   4 -15  217.67   52.21
   9   4 -15  172.10   44.52
  -9  -4  15  255.17   39.39
  -9  -4  15  209.31   46.28
   4  -9  15    4.80   75.68
  -3   9 -15   -7.02   32.59
   9   3 -15   13.84   32.48
   9   3 -15    9.23   24.36
   3  -9  15  -35.05   53.89
  -9  -3  15   18.34   30.60
   3  -9  15   -1.72   26.24
  -9  -3  15   20.28   21.20
   9   2 -15  193.69   60.95
   9   2 -15  302.26   70.19
  -9  -2  15  206.08   57.75
   2  -9  15  168.73   81.34
   2  -9  15  383.35   63.43
   9   1 -15   19.28   37.80
   9   1 -15    4.91   25.48
  -1   9 -15   11.05   30.72
   1  -9  15   37.62   24.54
  -9  -1  15  -17.39   28.90
   1  -9  15   21.69   49.42
   9   0 -15   57.55   38.73
   9   0 -15   30.85   28.16
   0   9 -15   80.67   30.96
  -9   0 -15    7.69   81.89
   0  -9  15   39.89   49.56
  -9   0  15   66.77   30.08
   9   0  15   77.73   47.21
  -9   1 -15   18.30   92.12
   9  -1 -15  -22.27   35.91
   1   9 -15  -39.32   30.61
  -1  -9  15  -10.20   47.51
   9  -1  15  -50.59   60.03
  -9   1  15   32.96   34.74
   9  -1  15   21.84   45.09
  -9   2 -15  266.01  102.46
   9  -2 -15  373.70   69.71
   9  -2  15  277.33   70.01
  -2  -9  15  386.44   75.39
   9  -2  15  385.25   80.90
  -9   3 -15   29.89   80.82
   9  -3  15  -83.13   40.67
  -3  -9  15   53.70   49.55
   9  -3  15    2.57   61.63
  -9   4 -15  361.74   98.00
  -9   4 -15   91.01   52.44
   9  -4  15  340.30   54.21
   9  -4  15   23.74   74.20
  -4  -9  15  210.03   60.22
  -9   5 -15    7.79   37.54
  -9   5 -15  109.30   89.23
   9  -5  15   10.39   37.09
   9  -5  15    2.75   68.96
  -9   6 -15   -3.42   81.41
   9  -6  15   -2.91   72.76
  -9   7 -15    2.66   35.33
   9  -7  15   -1.93   32.22
  -9   8 -15   -2.72   38.28
  -9   8 -15  145.04   89.71
   9  -8  15   22.25   82.18
   9  -8  15    2.01   34.98
  -9   9 -15    7.46   91.89
  -9   9 -15    2.86   34.25
   9  -9  15   -3.21   74.13
   9  -9  15    2.08   34.27
  -9  10 -15   15.69   44.86
   9 -10  15   -3.26   80.15
   9 -10  15    2.22   35.89
  -8  10 -15    3.04   42.05
   8 -10  15   -2.16   34.54
   8 -10  15    3.05   74.91
  -7  10 -15    2.94   39.21
   7 -10  15   -2.91   70.65
  10   6 -15   42.52   35.80
  10   6 -15   29.56   30.75
  -6  10 -15  -45.74   40.61
   6 -10  15  -25.12   67.31
   6 -10  15   28.54   32.42
  10   5 -15   -6.64   33.25
  10   5 -15   14.89   31.19
   5 -10  15  187.99   63.88
 -10  -5  15   25.67   39.33
 -10  -5  15   -2.00   20.66
  10   4 -15    9.93   33.74
  10   4 -15   47.05   29.51
  -4  10 -15   -2.73   33.69
   4 -10  15   -1.93   31.47
 -10  -4  15  -11.06   35.29
 -10  -4  15   57.37   21.46
  10   3 -15  159.25   49.19
  10   3 -15   85.33   38.24
 -10  -3  15  116.11   33.81
 -10  -3  15  125.95   40.11
  10   2 -15   14.75   41.49
  10   2 -15  -15.49   24.99
 -10  -2  15  -11.76   25.15
 -10  -2  15   -4.10   32.43
   2 -10  15   -4.98   57.54
  10   1 -15   -9.82   43.65
  10   1 -15   12.58   26.59
   1 -10  15   34.20   57.28
 -10  -1  15   55.54   33.26
  10   0 -15  -42.96   30.57
  10   0 -15   -1.92   40.42
  10   0  15   35.06   49.42
 -10   0  15  -18.02   31.74
   0 -10  15   57.77   56.98
  10  -1 -15   10.87   31.64
 -10   1 -15   58.93   93.44
  10  -1 -15   27.01   39.11
 -10   1  15   69.80   35.85
  10  -1  15   16.80   62.72
  10  -1  15  -33.97   50.30
 -10   2 -15  -33.18   89.93
  10  -2 -15   -1.98   39.00
  10  -2  15    7.99   47.89
  10  -2  15   39.81   62.63
 -10   3 -15  301.29   99.34
  10  -3  15  513.47   75.82
  10  -3  15  118.05   53.88
 -10   4 -15   53.09   92.49
 -10   4 -15    2.70   37.68
  10  -4  15  -27.49   40.85
  10  -4  15   27.42   69.16
 -10   5 -15  -36.42   94.50
  10  -5  15   -2.88   70.73
 -10   7 -15   14.98   96.35
 -10   7 -15   11.01   40.89
  10  -7  15    2.01   36.15
  10  -7  15    3.23   79.96
 -10   8 -15   42.18   38.48
 -10   8 -15    3.84   92.12
  10  -8  15    3.39   83.50
  10  -8  15  -49.71   35.43
 -10   9 -15   23.66   43.78
 -10   9 -15 -105.14   94.48
  10  -9  15   13.81   81.89
  10  -9  15  171.52   40.36
 -10  10 -15   42.95   97.65
 -10  10 -15   -3.24   45.53
  10 -10  15   16.04   37.82
  10 -10  15 -262.69   85.97
  10 -11  15   -3.58   85.14
   8 -11  15   -3.25   76.48
  11   6 -15    2.04   33.70
  11   6 -15  148.35   41.37
 -11  -6  15    2.69   45.41
 -11  -6  15   35.08   27.02
  11   5 -15  -27.62   35.87
  11   5 -15 -138.87   44.46
 -11  -5  15   -4.52   26.58
 -11  -5  15   18.67   46.33
  11   4 -15    1.85   41.20
  11   4 -15   30.56   32.44
 -11  -4  15   11.28   20.91
 -11  -4  15   -2.53   42.93
  11   3 -15   -7.73   43.84
  11   3 -15   27.47   31.39
 -11  -3  15   35.91   39.02
 -11  -3  15  -16.80   23.30
  11   2 -15    3.85   28.70
  11   2 -15  -38.17   46.70
 -11  -2  15   -5.24   27.97
 -11  -2  15  -29.98   35.98
  11   1 -15  -78.89   47.71
  11   1 -15    3.97   30.90
 -11  -1  15   18.94   39.53
  11   0 -15  174.80   49.07
  11   0 -15   98.85   36.02
 -11   0  15   29.72   41.07
  11   0  15   15.06   54.88
  11  -1 -15   27.36   34.06
 -11   1 -15  126.31  108.39
 -11   1  15  -40.99   41.03
  11  -1  15  -43.51   46.44
  11  -1  15  -26.61   67.77
 -11   2 -15   43.11   96.96
  11  -2  15   11.08   64.23
  11  -2  15   64.40   49.47
 -11   3 -15   18.82   97.15
  11  -3  15  -27.35   65.27
 -11   6 -15  352.31  103.37
 -11   6 -15    2.79   38.48
  11  -6  15 -198.65   79.69
  11  -6  15   -2.06   36.07
 -11   7 -15  -60.60  101.52
 -11   7 -15    2.83   41.39
  11  -7  15   -2.05   35.15
  11  -7  15 -143.25   85.91
 -11   8 -15   -2.89   41.66
 -11   8 -15  -16.35  105.47
  11  -8  15  -21.43   86.23
  11  -8  15    6.35   36.84
 -11   9 -15  -82.72  107.87
 -11   9 -15    3.04   46.33
  11  -9  15    6.61   39.35
  11  -9  15    3.73   87.17
 -11  10 -15 -114.26  113.90
 -11  10 -15  -30.23   47.80
  11 -10  15   82.44   43.69
  11 -10  15  -26.59   98.39
 -11  11 -15  142.57  126.78
  11 -11  15    3.85  102.05
  12   6 -15   29.04   44.61
 -12  -6  15    2.60   24.95
  12   5 -15   -2.06   41.66
  12   0 -15    4.71   57.79
  12   0  15  332.80   64.81
  12  -1 -15  -23.18   55.33
 -12   1 -15   27.09  107.77
  12  -1  15   56.74   81.86
 -12   1  15   -2.93   32.00
  12  -1  15  212.07   46.53
 -12   2 -15  -41.72  103.99
  12  -2 -15  -79.14   50.86
  12  -2  15  -98.33   74.31
 -12   2  15   48.68   48.67
 -12   4 -15   28.92   42.38
  12  -4  15   -2.27   36.52
 -12   5 -15    2.86   41.91
 -12   5 -15  225.97  102.75
  12  -5  15   30.32   36.77
  12  -5  15  -50.92   74.96
 -12   6 -15   72.42  104.52
 -12   6 -15   -2.87   37.66
  12  -6  15  -20.69   34.48
  12  -6  15   67.21   77.39
 -12   7 -15    2.89   41.44
 -12   7 -15   44.19  112.01
  12  -7  15    3.39   83.53
  12  -7  15    2.07   34.13
 -12   8 -15   75.71  111.42
 -12   8 -15    2.96   41.38
  12  -8  15    2.17   35.89
  12  -8  15 -189.06   95.47
 -12   9 -15    4.47  113.19
 -12   9 -15    3.13   45.36
  12  -9  15  -39.58  104.52
  12  -9  15    6.73   36.90
 -12  10 -15  -17.54  116.33
 -12  10 -15   -3.49   46.96
  12 -10  15    2.41   38.34
  12 -10  15    4.10  106.60
 -12  11 -15   -8.36  104.89
  12 -11  15    4.18   96.37
  13   7 -15   70.50   51.54
  13   6 -15   17.32   39.89
  13   6 -15   41.13   48.18
 -13  -6  15   40.81   31.59
 -13  -6  15   -6.54   53.01
  13   5 -15   31.05   37.43
  13   5 -15    2.28   46.10
 -13  -5  15    2.91   31.36
 -13  -5  15  106.95   53.65
  13   4 -15   27.28   49.81
  13   4 -15   22.85   40.74
 -13  -4  15  -11.74   31.35
 -13  -4  15   77.12   53.24
  13   3 -15  -42.17   53.05
  13   3 -15  -76.14   38.16
 -13  -3  15  -15.25   33.32
 -13  -3  15   -6.14   50.12
  13   2 -15    2.40   36.93
  13   2 -15  -16.83   54.70
 -13  -2  15   43.85   47.52
 -13  -2  15  -37.60   34.35
  13   1 -15   -2.43   39.53
  13   1 -15   64.38   56.04
 -13  -1  15   26.42   45.69
 -13  -1  15   12.85   35.79
  13   0 -15   19.76   36.57
  13   0 -15  -56.16   56.85
 -13   0  15  -12.12   47.72
  13  -1 -15  105.58   41.08
  13  -1 -15  114.85   59.51
 -13   1  15  -19.11   46.34
  13  -2 -15   -2.60   53.52
 -13   2  15  -32.64   50.97
 -13   3 -15  -29.96   47.88
  13  -3  15    2.42   43.87
 -13   4 -15   11.87   44.98
 -13   4 -15  -20.51  102.49
  13  -4  15  -40.79   72.62
  13  -4  15   -2.24   37.86
 -13   5 -15   12.61  111.05
 -13   5 -15   17.51   43.30
  13  -5  15 -104.19   77.40
  13  -5  15    2.16   36.73
 -13   6 -15 -130.00  122.86
 -13   6 -15    2.93   42.41
  13  -6  15   -2.07   36.29
  13  -6  15   22.68   80.77
 -13   7 -15    2.95   45.75
 -13   7 -15   85.95  130.01
  13  -7  15  298.09   93.24
  13  -7  15   57.42   40.94
 -13   8 -15 -107.51  124.61
 -13   8 -15    3.01   42.61
  13  -8  15    3.77   94.07
  13  -8  15   33.00   37.82
 -13   9 -15   -3.22   47.31
 -13   9 -15   34.54  120.91
  13  -9  15  -94.58  104.09
  13  -9  15    4.58   38.57
 -13  10 -15  -62.63  123.14
 -13  10 -15    3.63   49.12
  13 -10  15   -4.38  109.45
 -13  11 -15   50.11  120.69
  13 -11  15    9.04  124.05
  14   7 -15   79.95   54.55
  14   7 -15    4.94   38.32
  14   6 -15    5.04   53.28
  14   6 -15   35.34   45.84
 -14  -6  15   82.02   60.41
 -14  -6  15  -22.99   35.44
  14   5 -15   14.17   44.86
  14   5 -15   85.85   53.86
 -14  -5  15  -25.73   62.90
 -14  -5  15  -19.86   36.67
  14   4 -15  -52.41   52.66
  14   4 -15    2.80   48.64
 -14  -4  15    3.33   37.50
 -14  -4  15  -35.84   55.44
  14   3 -15  -46.52   42.18
  14   3 -15  -33.10   58.20
 -14  -3  15   31.07   57.87
 -14  -3  15   13.59   36.39
  14   2 -15   15.70   59.12
  14   2 -15  -29.34   43.24
 -14  -2  15    3.46   37.30
 -14  -2  15  -26.29   52.44
  14   1 -15   95.78   61.17
  14   1 -15   -2.70   38.24
 -14  -1  15   -3.48   37.17
 -14  -1  15   88.55   52.12
  14   0 -15   16.56   59.01
  14   0 -15  -51.52   38.41
 -14   0  15  -23.52   51.64
  14  -1 -15   -2.88   45.45
  14  -1 -15   16.85   62.83
 -14   1  15   -6.94   46.59
  14  -2 -15  -85.27   61.67
  14  -2 -15    9.31   47.36
 -14   2  15  -34.86   53.42
 -14   7 -15    2.97   40.83
 -14   8 -15   -3.07   42.31
 -14   8 -15  -92.64  141.72
 -14   9 -15    3.30   44.08
 -14   9 -15 -243.68  155.23
  14  -9  15    4.22  109.11
  14  -9  15    2.34   37.84
 -14  10 -15 -207.42   62.11
 -14  10 -15   49.14  147.45
 -14  11 -15  -66.66  135.04
  14 -11  15   14.59  125.37
  15   7 -15  -20.51   60.10
  15   7 -15   34.92   40.94
 -15  -7  15   31.34   55.81
 -15  -7  15  -26.79   42.74
  15   6 -15   22.24   57.91
  15   6 -15  -33.10   43.97
 -15  -6  15   34.98   65.90
 -15  -6  15  -11.13   41.23
  15   5 -15  -43.18   46.22
  15   5 -15   22.28   61.46
 -15  -5  15  -40.07   64.79
 -15  -5  15   -3.75   40.57
  15   4 -15    2.74   57.62
  15   4 -15   52.25   47.09
 -15  -4  15   -7.92   61.86
 -15  -4  15    3.78   42.53
  15   3 -15  -81.21   65.10
  15   3 -15  -21.23   48.90
 -15  -3  15  -38.36   62.55
 -15  -3  15  -49.43   45.11
  15   2 -15   25.45   60.63
  15   2 -15    2.96   44.44
 -15  -2  15   -3.69   56.66
 -15  -2  15  -19.01   41.53
  15   1 -15   -8.55   62.17
  15   1 -15   98.77   48.22
 -15  -1  15   14.66   55.38
 -15  -1  15   44.74   39.92
  15   0 -15  152.28   70.15
  15   0 -15    2.99   42.63
 -15   0  15  -14.95   57.21
  15  -1 -15  -63.70   67.40
  15  -1 -15   66.07   48.67
 -15   1  15   38.15   55.48
  15  -2 -15  -90.26   48.15
  15  -2 -15   53.10   68.96
 -15   2  15   50.26   60.61
  15  -3 -15 -100.44   74.83
  16   7 -15  -64.72   66.14
  16   7 -15  -90.90   47.91
 -16  -7  15  -55.72   60.52
 -16  -7  15   30.25   47.80
  16   6 -15  -29.04   53.60
  16   6 -15  131.96   70.25
 -16  -6  15   25.20   46.86
 -16  -6  15   37.31   70.11
  16   5 -15   -6.13   63.43
  16   5 -15   47.10   52.01
 -16  -5  15    4.33   69.08
 -16  -5  15   12.75   46.90
  16   4 -15   91.14   62.06
  16   4 -15   50.64   53.45
 -16  -4  15  -39.03   70.64
 -16  -4  15   -4.29   47.10
  16   3 -15 -210.69   53.87
  16   3 -15  109.81   71.91
 -16  -3  15  -63.82   69.24
 -16  -3  15  -25.22   48.45
  16   2 -15   -3.09   60.25
  16   2 -15   -3.27   47.38
 -16  -2  15    8.33   44.95
 -16  -2  15  -61.91   63.55
  16   1 -15   43.18   63.14
  16   1 -15   59.72   51.67
 -16  -1  15   -4.00   46.41
 -16  -1  15   20.45   57.50
  16   0 -15   50.06   70.20
  16   0 -15   36.38   44.85
 -16   0  15   -3.91   43.06
 -16   0  15  -41.46   65.29
  16  -1 -15   64.08   71.43
  16  -1 -15  -13.83   46.37
 -16   1  15    8.42   59.47
  16  -2 -15    3.46   73.00
  16  -2 -15    7.27   46.59
 -16   2  15  -32.03   67.86
  16  -3 -15    7.35   78.26
  17   7 -15  -25.08   71.93
  17   7 -15   12.96   50.76
 -17  -7  15   11.96   66.30
 -17  -7  15  -34.45   51.71
  17   6 -15  -31.27   51.80
  17   6 -15    3.39   67.03
 -17  -6  15  -83.76   72.21
 -17  -6  15  -61.77   49.49
  17   5 -15 -108.79   57.11
  17   5 -15    3.37   72.36
 -17  -5  15   24.02   48.26
 -17  -5  15  102.31   76.35
  17   4 -15   14.72   52.96
  17   4 -15   20.14   67.78
 -17  -4  15   -4.72   77.52
 -17  -4  15   57.65   51.56
  17   3 -15 -169.79   78.40
  17   3 -15    3.67   54.07
 -17  -3  15   74.80   50.77
 -17  -3  15  -65.50   74.64
  17   2 -15 -171.64   63.21
  17   2 -15    3.32   70.77
 -17  -2  15  -36.74   74.46
 -17  -2  15  -18.10   56.79
  17   1 -15  481.86   97.94
  17   1 -15  301.09   77.71
 -17  -1  15   91.31   83.55
 -17  -1  15   73.85   68.08
  17   0 -15  590.05   95.63
  17   0 -15  473.02   77.49
  17  -1 -15  819.91   86.28
  17  -1 -15  505.00   99.62
 -17   1  15  182.05   81.02
  17  -2 -15 -147.27   72.63
 -17   2  15  -70.57   75.15
  17  -3 -15 -239.30   94.70
  18   7 -15   58.86   48.66
  18   7 -15   -7.96   76.01
 -18  -7  15  -46.13   68.31
 -18  -7  15  -50.81   61.88
  18   6 -15  -82.20   56.05
  18   6 -15  180.07   80.35
 -18  -6  15   13.97   76.50
 -18  -6  15  -27.04   55.43
  18   5 -15  -35.23   62.94
  18   5 -15 -258.67   79.35
 -18  -5  15  -21.68   61.96
 -18  -5  15  -39.82   79.43
  18   4 -15  -16.07   59.89
  18   4 -15   14.78   77.61
 -18  -4  15  -26.87   57.46
 -18  -4  15  -66.65   83.92
  18   3 -15   50.55   75.64
  18   3 -15  -32.24   63.43
 -18  -3  15  -82.92   60.22
 -18  -3  15  -40.75   78.35
  18   2 -15   40.42   60.96
  18   2 -15    3.63   74.78
 -18  -2  15  -25.31   79.26
 -18  -2  15   24.79   55.49
  18   1 -15    3.62   80.54
  18   1 -15 -150.02   61.11
 -18  -1  15 -127.12   78.13
 -18  -1  15   33.04   50.73
  18   0 -15  -65.15   62.34
  18   0 -15   -3.63   77.14
 -18   0  15  -31.16   50.80
 -18   0  15  -35.75   76.11
  18  -1 -15   59.93   84.24
  18  -1 -15   -8.45   57.26
 -18   1  15   77.88   73.94
 -18   1  15    4.33   45.77
  18  -2 -15  177.75   87.87
  18  -2 -15   43.91   64.85
 -18   2  15   78.06   81.29
  18  -3 -15 -176.19   87.30
   0   0  16 3956.26  728.51
   0   1 -16  -96.37   53.55
  -1   0  16   -8.30   42.25
   0  -1  16   -1.81   27.85
   0  -1  16  -14.09   43.44
   1   0  16  -23.52   37.65
  -1   1 -16  591.33  136.04
   1   1 -16  780.23  133.97
   1  -1  16  619.05  130.16
  -1  -1  16  575.01  121.15
   1  -1  16  621.73  119.07
  -1  -1  16  674.68  130.28
   2   1 -16   41.00   17.08
   2   1 -16  130.82   51.40
  -1   2 -16  -29.70   51.42
  -2  -1  16   59.84   31.17
   1  -2  16   12.34   30.46
  -2  -1  16   73.33   43.62
   1  -2  16   24.19   39.83
   0   2 -16   37.10   48.77
  -2   0 -16   82.68   59.94
   0  -2  16   51.76   40.33
   2   0  16   40.70   40.66
  -2   0  16   77.76   45.96
   0  -2  16   54.25   30.16
  -2   1 -16   -7.73   57.40
   1   2 -16   10.44   50.20
   2  -1  16   16.80   45.12
  -1  -2  16   55.10   38.25
  -1  -2  16   26.33   29.72
   2  -1  16   25.05   30.80
   2   2 -16   76.12   52.21
  -2   2 -16  134.41   60.23
  -2  -2  16  102.75   45.63
   2  -2  16  103.19   46.83
   2  -2  16   97.15   37.85
  -2  -2  16  175.98   36.62
  -2   3 -16  401.08   96.59
   3   2 -16  410.90   89.77
   3   2 -16  349.38   81.77
  -3  -2  16  465.11   81.83
   2  -3  16  387.31   84.36
  -3  -2  16  383.86   84.36
   2  -3  16  391.60   76.85
  -1   3 -16   54.82   48.85
  -3  -1  16    1.65   26.60
   1  -3  16   22.23   42.98
   1  -3  16   19.04   28.58
  -3   0 -16   17.10   61.37
   0   3 -16    2.08   46.52
   0  -3  16    1.76   40.23
   3   0  16  -34.91   41.04
  -3   0  16  -13.46   43.75
   0  -3  16  -25.00   28.42
   1   3 -16   25.46   45.69
  -3   1 -16   53.78   58.94
  -1  -3  16   -5.00   36.67
   3  -1  16   30.33   48.00
  -1  -3  16    9.65   26.61
   3  -1  16   20.00   30.65
   2   3 -16  376.01   91.18
  -3   2 -16  483.33  101.62
  -2  -3  16  458.02   78.89
   3  -2  16  353.09   77.18
   3  -2  16  395.89   86.05
  -2  -3  16  346.14   82.04
  -3   3 -16  174.31   61.87
   3   3 -16   69.83   45.66
  -3  -3  16   64.07   30.70
   3  -3  16  113.45   51.43
  -3  -3  16   86.31   40.59
   3  -3  16  119.19   36.42
  -3   4 -16  -41.88   54.77
   4   3 -16   56.13   43.13
  -4  -3  16   26.95   23.27
   3  -4  16    3.71   29.71
   3  -4  16    8.52   48.40
  -4  -3  16    1.43   35.22
   4   2 -16   12.64   20.84
  -2   4 -16   -2.32   55.86
   4   2 -16   -1.87   41.93
   2  -4  16    5.33   27.24
  -4  -2  16  -13.01   25.23
   2  -4  16   42.37   45.49
  -4  -2  16  -10.09   37.28
  -1   4 -16  278.92   68.19
   4   1 -16  246.00   50.14
   1  -4  16  254.92   48.42
  -4  -1  16  234.68   53.07
   1  -4  16  162.77   60.11
  -4   0 -16   83.29   64.52
   4   0 -16   25.69   20.65
   0   4 -16   43.70   50.76
   0  -4  16   52.72   28.06
   0  -4  16   94.46   43.45
  -4   0  16   24.98   42.79
   1   4 -16  232.71   65.47
  -4   1 -16  251.33   79.27
   1   4 -16  254.07   41.59
  -1  -4  16  213.04   58.22
  -1  -4  16  147.70   47.52
   4  -1  16  188.87   65.07
   2   4 -16   -1.86   46.10
   2   4 -16    5.86   19.13
  -4   2 -16   -2.68   61.17
  -2  -4  16    4.23   24.31
  -2  -4  16   27.54   40.51
   4  -2  16   -2.14   47.78
   3   4 -16  -29.67   43.12
  -4   3 -16   36.47   64.29
   3   4 -16  -22.83   18.95
   4  -3  16  -10.90   48.89
  -3  -4  16   -2.55   20.30
  -3  -4  16  -30.23   36.44
  -4   4 -16    2.62   60.55
   4   4 -16    6.10   16.28
   4   4 -16   45.72   42.71
  -4  -4  16    8.38   34.14
   4  -4  16   -3.89   31.42
  -4  -4  16    8.97   20.01
   4  -4  16    6.74   50.72
  -4   5 -16   47.64   31.71
  -4   5 -16  -12.92   64.48
  -5  -4  16   69.27   35.81
   4  -5  16   70.69   31.39
   4  -5  16   23.40   53.35
  -5  -4  16   27.11   19.15
  -3   5 -16   16.96   56.79
  -3   5 -16  -22.53   27.98
   5   3 -16   -5.46   17.43
   5   3 -16  -10.60   15.91
   5   3 -16  -22.15   20.76
   3  -5  16   35.56   29.89
  -5  -3  16   30.81   35.27
   3  -5  16   33.60   53.04
  -5  -3  16   -1.09   19.50
  -2   5 -16  580.59  101.07
   5   2 -16  564.33   77.13
  -2   5 -16  352.45   71.21
   5   2 -16  496.18   88.44
   5   2 -16  302.51   91.45
  -5  -2  16  255.34   89.66
  -5  -2  16  573.19   71.00
   2  -5  16  526.74   95.78
  -5  -2  16  287.32   87.42
   2  -5  16  350.55   81.01
   5   1 -16    7.67   23.79
  -1   5 -16   -9.13   24.62
  -1   5 -16   39.20   51.81
  -5  -1  16  -26.95   27.23
   1  -5  16   19.47   27.94
   1  -5  16  -10.31   49.89
  -5   0 -16    9.38   71.20
   0   5 -16    3.44   23.90
   0   5 -16  -70.38   50.21
   5   0 -16   27.58   22.68
   0  -5  16    6.05   24.94
  -5   0  16  -24.40   39.75
   5   0  16   40.16   39.09
   0  -5  16  -49.32   47.30
  -5   1 -16    8.95   65.70
   1   5 -16   16.13   17.42
   1   5 -16   86.43   47.42
  -1  -5  16  -16.85   26.11
   5  -1  16   11.72   51.76
   5  -1  16   55.58   36.90
  -1  -5  16   15.09   45.69
   2   5 -16  361.55   67.63
   2   5 -16  292.06   93.05
  -5   2 -16  380.64  109.22
   5  -2  16  402.17   94.76
   5  -2  16  307.36   83.38
  -2  -5  16  392.04   89.89
  -2  -5  16  449.91   79.67
   3   5 -16    1.77   44.28
  -5   3 -16   33.10   65.53
   3   5 -16   -9.62   19.52
  -3  -5  16   -1.18   19.86
  -3  -5  16   30.10   40.33
   5  -3  16   41.33   54.94
   5  -3  16   12.67   38.13
  -5   4 -16   97.51   67.25
   4   5 -16   38.23   44.40
   4   5 -16   32.61   19.19
   5  -4  16   44.98   56.61
  -4  -5  16   56.22   20.31
   5  -4  16   71.64   34.65
  -4  -5  16   63.20   40.75
  -5   5 -16   68.96   70.17
   5  -5  16    4.89   53.88
  -5   6 -16  356.60   82.04
   5  -6  16   38.58   81.53
  -4   6 -16   -2.21   29.09
  -4   6 -16    2.68   65.61
   4  -6  16   75.03   30.50
   4  -6  16   19.64   58.03
  -3   6 -16  149.18   36.79
   6   3 -16  144.39   36.94
   6   3 -16  154.03   33.04
  -3   6 -16  127.33   65.92
  -6  -3  16  168.23   28.39
  -6  -3  16  125.02   31.34
   3  -6  16  219.74   40.31
   3  -6  16  189.13   62.71
   6   2 -16   61.51   30.17
  -2   6 -16   56.01   61.39
   6   2 -16   68.91   22.82
  -2   6 -16   65.72   29.26
  -6  -2  16   70.53   21.79
   2  -6  16   58.16   53.96
   2  -6  16   54.14   28.34
   6   1 -16  141.60   39.88
  -1   6 -16   88.66   34.43
  -1   6 -16   93.34   66.42
   1  -6  16  194.93   56.33
   1  -6  16  141.44   33.61
  -6  -1  16  186.73   32.96
   0   6 -16   93.80   57.33
   6   0 -16   96.57   32.31
  -6   0 -16  105.75   77.69
   0   6 -16   69.34   28.43
   0  -6  16  113.57   52.93
   0  -6  16   81.44   28.76
   6   0  16  131.46   45.39
  -6   1 -16  104.44   76.80
   1   6 -16  135.42   31.97
   1   6 -16  174.88   60.18
   6  -1  16   80.83   46.42
  -1  -6  16  118.22   32.61
  -1  -6  16  105.84   54.57
   6  -1  16  144.56   60.09
   2   6 -16   56.71   51.70
  -6   2 -16   15.11   70.61
   2   6 -16   20.30   21.66
  -2  -6  16   60.49   22.67
   6  -2  16  115.42   56.09
  -2  -6  16   62.01   50.22
   6  -2  16    2.31   38.64
   3   6 -16  116.53   54.56
  -6   3 -16  164.32   75.60
   3   6 -16   86.61   28.46
  -3  -6  16  140.11   32.35
   6  -3  16  152.62   48.01
  -3  -6  16  138.77   53.01
   6  -3  16   65.23   60.03
   4   6 -16   31.48   19.11
   4   6 -16    1.79   44.59
  -6   4 -16   14.79   70.41
  -4  -6  16   -1.09   19.64
  -4  -6  16  -23.24   46.37
   6  -4  16   12.40   61.65
   6  -4  16   42.20   36.19
  -6   5 -16  406.39   86.11
  -6   5 -16  132.58   44.06
   6  -5  16   71.19   43.25
   6  -5  16    2.55   74.66
  -6   6 -16   -2.44   30.39
  -6   6 -16  -89.81   72.72
   6  -6  16   48.54   68.97
   6  -6  16  118.42   34.00
  -6   7 -16    5.01   37.19
  -6   7 -16   43.91   80.93
   6  -7  16    5.53   69.80
  -5   7 -16   24.10   71.63
   5  -7  16  -31.06   61.60
   7   4 -16  127.33   26.81
  -4   7 -16    2.29   37.35
  -4   7 -16  -40.52   77.63
   7   4 -16   85.15   31.63
   4  -7  16    2.44   63.29
   4  -7  16  171.77   35.05
   7   3 -16  113.18   38.39
  -3   7 -16   89.59   36.08
  -3   7 -16  -53.25   74.80
   7   3 -16  134.06   31.70
   3  -7  16  142.61   35.71
  -7  -3  16  161.09   31.03
   3  -7  16   27.75   62.59
  -7  -3  16  175.56   27.27
   7   2 -16  267.94   52.20
  -2   7 -16  179.84   77.84
   7   2 -16  178.09   42.06
  -2   7 -16  197.89   41.55
   2  -7  16  219.27   44.23
   2  -7  16  202.32   64.44
  -7  -2  16  161.73   41.00
   7   1 -16  101.04   31.01
  -1   7 -16   28.96   66.87
   7   1 -16  110.22   39.15
  -1   7 -16  108.54   31.70
   1  -7  16  106.50   32.88
  -7  -1  16   93.80   30.40
   1  -7  16   92.63   53.42
   0   7 -16   -1.87   25.41
  -7   0 -16   24.60   78.17
   0   7 -16  -68.42   59.79
   7   0 -16   15.28   29.26
   0  -7  16  -11.48   24.60
   0  -7  16  -14.27   46.58
   7   0  16   47.96   46.94
   1   7 -16  155.34   65.36
   1   7 -16  119.24   28.47
   7  -1 -16  166.65   37.31
  -7   1 -16  131.60   87.09
  -1  -7  16   89.68   31.37
  -1  -7  16   95.12   52.43
   7  -1  16  102.74   59.23
   7  -1  16  172.44   51.07
  -7   2 -16  244.97   89.12
   2   7 -16  201.03   37.99
   2   7 -16  -18.45   67.73
   7  -2  16  202.28   66.67
   7  -2  16  295.67   56.33
  -2  -7  16  286.84   61.15
  -2  -7  16  179.81   42.08
   3   7 -16   43.41   59.95
   3   7 -16  127.78   28.55
  -7   3 -16  112.55   81.95
  -3  -7  16   99.22   30.49
  -3  -7  16  121.44   53.74
   7  -3  16  122.04   46.03
   7  -3  16  192.15   69.51
   4   7 -16   92.98   53.98
   4   7 -16  104.21   25.35
  -7   4 -16   72.57   82.24
   7  -4  16  111.17   43.91
  -4  -7  16   94.40   49.64
  -4  -7  16   77.78   25.89
   7  -4  16   72.63   60.26
  -7   5 -16   -2.53   37.18
  -7   5 -16    3.20   78.62
   7  -5  16  -18.75   67.64
   7  -5  16   29.76   36.49
  -7   6 -16    2.56   37.81
  -7   6 -16   50.85   82.58
   7  -6  16  -39.44   70.32
   7  -6  16   88.88   37.20
  -7   8 -16    2.68   36.92
   7  -8  16    1.99   32.79
  -5   8 -16  -39.48   77.77
   5  -8  16   53.88   60.22
  -4   8 -16   28.55   35.46
   8   4 -16  127.87   36.28
   8   4 -16  128.73   28.82
   4  -8  16  126.96   35.57
   4  -8  16   53.20   62.03
  -8  -4  16   85.33   23.25
  -8  -4  16   56.43   30.70
   8   3 -16   57.63   23.88
  -3   8 -16   15.95   31.89
   8   3 -16   59.18   32.17
  -8  -3  16    6.28   26.48
   3  -8  16   48.24   28.86
   3  -8  16    4.57   55.05
  -8  -3  16   56.33   20.41
   8   2 -16  137.44   41.61
  -2   8 -16  184.12   39.21
   8   2 -16  239.27   50.98
   2  -8  16  225.47   42.11
  -8  -2  16  168.84   40.51
   2  -8  16  148.71   63.82
   8   1 -16   24.09   25.18
   8   1 -16    8.02   34.82
  -1   8 -16   35.12   30.42
   1  -8  16   -8.41   50.80
   1  -8  16    1.59   24.56
  -8  -1  16   16.25   24.93
   8   0 -16   31.74   35.60
   0   8 -16   54.73   27.87
  -8   0 -16  112.90   81.97
  -8   0  16   10.91   31.62
   0  -8  16   46.84   26.85
   8   0  16   88.72   47.92
   0  -8  16   30.52   49.56
   8  -1 -16   -1.57   34.06
   1   8 -16    7.46   25.36
  -8   1 -16   39.68   84.92
  -1  -8  16   24.65   24.12
   8  -1  16   29.81   46.25
   8  -1  16    5.39   61.11
  -1  -8  16   42.16   48.62
  -8   2 -16  123.55   96.18
   2   8 -16  116.12   35.00
   8  -2  16  214.27   67.80
  -2  -8  16  262.95   57.69
   8  -2  16   64.94   55.49
  -2  -8  16  211.82   40.64
  -8   3 -16   -3.32   85.35
   3   8 -16   59.23   25.12
  -3  -8  16   24.54   23.42
  -3  -8  16   32.60   48.39
   8  -3  16  111.69   45.87
   8  -3  16    2.62   65.40
  -8   4 -16  117.01   84.82
   8  -4  16  119.19   43.04
  -4  -8  16  102.54   49.49
   8  -4  16  -21.58   69.02
  -8   5 -16   13.32   38.70
  -8   5 -16  -13.69   88.50
   8  -5  16   -5.62   67.45
   8  -5  16    2.21   37.86
  -8   6 -16   -3.42   92.43
  -8   7 -16    2.73   36.64
   8  -7  16    6.05   34.84
  -8   8 -16 -130.28   96.65
  -8   8 -16 -111.50   42.80
   8  -8  16    2.06   36.56
   8  -8  16   44.22   83.93
  -8   9 -16  -49.01   93.31
  -8   9 -16    2.87   41.86
   8  -9  16    2.13   34.98
   8  -9  16   53.93   79.71
  -7   9 -16  -88.53   99.47
  -7   9 -16    2.77   39.41
   7  -9  16    2.06   33.41
   7  -9  16   41.21   73.10
  -6   9 -16    2.67   39.95
   6  -9  16    2.00   31.55
   6  -9  16  -33.13   68.38
   9   4 -16   12.62   25.05
   9   4 -16    3.02   36.36
  -9  -4  16   22.48   30.07
  -9  -4  16   24.21   19.25
   9   3 -16  113.13   42.70
   9   3 -16  229.90   52.64
  -9  -3  16  279.87   39.11
  -9  -3  16  182.13   43.59
   3  -9  16   88.16   70.22
  -2   9 -16    2.32   32.03
   9   2 -16   30.33   25.26
   9   2 -16   35.94   38.09
   2  -9  16   12.12   28.98
  -9  -2  16   11.14   27.73
   2  -9  16   18.46   57.01
   9   1 -16   43.10   40.75
   9   1 -16   32.73   27.12
  -1   9 -16   91.76   32.49
  -9  -1  16    7.92   30.26
   1  -9  16   22.71   53.35
   1  -9  16   48.67   28.16
   0   9 -16  -15.19   29.98
   9   0 -16   21.04   29.77
   9   0 -16  -22.99   40.11
   9   0  16  -14.53   49.09
   0  -9  16  -16.34   26.73
  -9   0  16   -8.94   33.32
   0  -9  16   33.12   53.24
   1   9 -16   29.90   28.17
  -9   1 -16  -88.78   93.83
   9  -1 -16   54.97   38.41
   9  -1  16  -31.65   47.94
   9  -1  16    2.83   61.23
  -1  -9  16   75.17   51.10
  -9   2 -16   47.58   85.91
   9  -2  16    5.41   63.14
  -2  -9  16  -12.52   50.36
   9  -2  16   13.79   47.18
  -9   3 -16  237.51  102.43
  -3  -9  16  181.57   60.00
   9  -3  16    2.72   74.66
   9  -3  16  280.53   58.18
  -9   4 -16  -46.17   91.45
  -9   4 -16    8.37   39.83
  -4  -9  16   48.33   48.87
   9  -4  16   -2.82   68.30
   9  -4  16   16.79   41.27
  -9   5 -16   -3.65   94.61
  -9   7 -16  -37.20   97.68
  -9   7 -16    2.83   40.15
   9  -7  16  -39.40   34.72
   9  -7  16    3.25   78.36
  -9   8 -16    2.89   40.90
  -9   8 -16   41.89   96.41
   9  -8  16    3.38   82.66
   9  -8  16  -19.14   34.67
  -9   9 -16   62.34   95.33
  -9   9 -16   -2.97   41.41
   9  -9  16    3.40   81.06
   9  -9  16   -2.18   36.07
  -9  10 -16   39.80  102.35
  -9  10 -16   -3.20   45.90
   9 -10  16    4.60   38.68
   9 -10  16    3.44   82.66
  -8  10 -16    3.10   41.31
   8 -10  16   -2.23   37.01
   8 -10  16  -12.85   74.12
  -7  10 -16    3.00   42.48
   7 -10  16   -2.16   34.67
   7 -10  16   -3.01   73.26
  -6  10 -16  -14.53   41.93
   6 -10  16   -2.84   70.55
   6 -10  16  -67.25   37.64
  10   5 -16   33.54   36.75
  10   5 -16   31.91   29.80
   5 -10  16   38.61   66.29
  -4  10 -16    2.74   40.29
  10   4 -16  125.51   33.97
  10   4 -16   74.64   42.04
   4 -10  16  248.87   70.01
 -10  -4  16  123.47   38.82
 -10  -4  16   75.98   26.64
   4 -10  16   41.79   36.18
  10   3 -16  -10.65   41.91
  -3  10 -16   -2.67   35.76
  10   3 -16    7.00   28.45
 -10  -3  16   -4.17   34.35
 -10  -3  16  -43.19   24.87
   3 -10  16   -1.94   30.15
  10   2 -16   21.27   28.66
  10   2 -16   72.07   43.25
 -10  -2  16    8.32   33.37
  10   1 -16    1.84   28.18
  10   1 -16  -26.06   46.41
   1 -10  16  -64.20   59.90
 -10  -1  16   17.62   32.07
  10   0 -16   -3.91   41.71
  10   0 -16  -12.16   29.77
   0 -10  16  -93.60   57.86
 -10   0  16   -4.75   35.44
  10   0  16  -21.41   53.19
  10  -1 -16    9.67   42.13
 -10   1 -16   12.39   98.71
  10  -1  16   -2.98   65.74
  10  -1  16   26.98   52.36
  -1 -10  16  -25.65   55.11
 -10   1  16   -2.88   39.30
  10  -2 -16   71.27   40.98
 -10   2 -16   46.67   94.16
  10  -2  16   65.68   51.18
  10  -2  16    2.83   67.01
  -2 -10  16  128.27   53.99
 -10   3 -16  -75.39   96.47
  10  -3  16   -2.66   43.51
  -3 -10  16    6.47   48.98
  10  -3  16    2.81   64.93
  -4 -10  16   86.77   51.53
 -10   6 -16  203.54  111.65
 -10   6 -16   -2.90   43.86
  10  -6  16    3.18   85.60
  10  -6  16  -28.86   38.20
 -10   7 -16    2.93   40.87
 -10   7 -16    4.00  104.82
  10  -7  16    3.37   83.10
  10  -7  16   21.19   38.05
 -10   8 -16    5.97   41.75
 -10   8 -16  -24.17   94.61
  10  -8  16   50.32   37.14
  10  -8  16    3.57   89.01
 -10   9 -16    3.07   44.11
 -10   9 -16   24.51  106.21
  10  -9  16    6.73   37.48
  10  -9  16    3.68   89.34
 -10  10 -16    3.31   47.54
 -10  10 -16 -106.25  104.46
  10 -10  16    7.45   90.12
  10 -10  16  -30.79   41.44
 -10  11 -16  -73.01   98.81
 -10  11 -16   41.53   52.50
  10 -11  16  -60.44   95.92
  -9  11 -16   -3.65   50.50
   9 -11  16    3.54   81.41
  -8  11 -16    3.53   51.27
   8 -11  16    3.33   81.97
  -7  11 -16    3.43   47.97
   7 -11  16   -3.21   74.42
  -6  11 -16   -3.35   48.06
   6 -11  16  -18.72   73.41
  -5  11 -16   -3.28   44.51
  11   5 -16   -6.33   32.87
  11   5 -16  -44.94   40.73
 -11  -5  16   24.86   25.48
   5 -11  16   89.23   74.57
 -11  -5  16   55.53   43.39
  11   4 -16  -16.99   42.32
  11   4 -16   26.29   33.11
 -11  -4  16    2.29   25.10
 -11  -4  16    9.95   38.57
  11   3 -16   37.66   45.99
  11   3 -16    3.94   33.38
 -11  -3  16   61.83   39.40
 -11  -3  16   39.38   27.03
  11   2 -16   10.27   44.50
  11   2 -16   17.72   29.88
 -11  -2  16  -14.02   36.90
 -11  -2  16    5.41   29.48
  11   1 -16   32.43   31.20
  11   1 -16   43.72   47.79
 -11  -1  16  -31.59   36.58
  11   0 -16  -26.22   34.79
 -11   0  16    2.56   38.02
  11  -1 -16   29.19   33.73
 -11   1 -16    8.84  108.05
 -11   1  16   -2.94   40.11
  11  -1  16 -110.09   75.83
 -11   2 -16   20.72  102.10
  11  -2  16   -2.95   68.86
 -11   4 -16    3.02   40.40
  11  -4  16  -84.97   44.07
 -11   5 -16    8.15  102.44
 -11   5 -16   -3.02   44.36
  11  -5  16   -9.35   77.08
  11  -5  16    6.99   39.91
 -11   6 -16    8.98   41.90
 -11   6 -16   29.82  112.44
  11  -6  16 -105.53   38.07
  11  -6  16    3.31   79.69
 -11   7 -16   -3.02   45.13
 -11   7 -16  -34.57  107.73
  11  -7  16    3.47   87.04
  11  -7  16    2.16   37.94
 -11   8 -16   34.80  109.06
 -11   8 -16    6.10   43.16
  11  -8  16 -156.93   93.27
  11  -8  16  -22.40   39.76
 -11   9 -16  -98.09   46.99
 -11   9 -16   17.42  111.73
  11  -9  16   20.70   39.47
  11  -9  16   31.42  104.33
 -11  10 -16   54.62   47.69
 -11  10 -16   -4.30  112.27
  11 -10  16  -16.07  102.72
  11 -10  16    2.44   41.39
 -11  11 -16    4.18  110.46
 -11  11 -16    3.92   52.98
  11 -11  16    4.08   98.38
  12   5 -16   79.16   43.83
 -12  -5  16   -2.57   27.37
  12   4 -16   -2.10   46.47
  12   2 -16   -2.23   51.31
  12   1 -16   71.87   50.55
  12   0 -16   93.02   57.32
  12  -1 -16    4.68   47.86
  12  -1 -16  125.30   40.71
 -12   1  16  -24.89   46.53
  12  -2 -16   26.50   52.14
  12  -3  16   -2.70   46.41
 -12   4 -16    3.12   44.18
 -12   4 -16  120.63  106.01
  12  -4  16  -54.85   75.94
  12  -4  16    2.51   45.58
 -12   5 -16  -18.63   45.64
 -12   5 -16   25.69  109.60
  12  -5  16 -147.58   78.74
  12  -5  16    2.34   38.81
 -12   6 -16   54.03  111.77
 -12   6 -16    3.08   45.30
  12  -6  16    2.25   38.56
  12  -6  16   44.06   82.84
 -12   7 -16  -61.33  121.30
 -12   7 -16   -3.10   45.27
  12  -7  16  -17.94   91.49
  12  -7  16    2.22   39.36
 -12   8 -16  -28.40  128.57
 -12   8 -16   34.43   44.01
  12  -8  16   26.98   96.08
  12  -8  16   -2.28   39.14
 -12   9 -16  -70.95  121.03
 -12   9 -16   19.53   46.23
  12  -9  16   94.17   41.75
  12  -9  16   -4.13  108.17
 -12  10 -16  -92.27  116.51
 -12  10 -16   -3.52   47.60
  12 -10  16  -12.96  109.71
  12 -10  16  -99.94   44.40
 -12  11 -16  -48.56  112.24
  12 -11  16   -4.40  102.30
  13   6 -16  117.96   54.32
  13   5 -16   -5.16   40.79
  13   5 -16    9.26   48.99
 -13  -5  16   14.64   32.17
 -13  -5  16   36.86   55.33
  13   4 -16  -78.87   50.58
  13   4 -16    2.53   40.05
 -13  -4  16  -17.78   33.03
 -13  -4  16   22.55   52.28
  13   3 -16   55.07   53.28
  13   3 -16    2.47   38.25
 -13  -3  16   18.40   48.76
 -13  -3  16    6.25   36.00
  13   2 -16    9.82   52.74
  13   2 -16  -29.28   37.15
 -13  -2  16    9.71   34.20
 -13  -2  16  -53.55   47.26
  13   1 -16   12.62   54.77
  13   1 -16  -73.89   36.24
 -13  -1  16   21.06   43.70
  13   0 -16   12.92   39.53
  13   0 -16    2.61   55.93
 -13   0  16   24.57   45.97
  13   0  16  -16.01   57.45
 -13   1 -16   -5.01   92.72
  13  -1 -16   27.34   37.67
  13  -1 -16    5.16   52.46
 -13   1  16    3.34   49.39
  13  -1  16  -43.04   56.94
 -13   2 -16   -9.29  115.86
  13  -2 -16   75.84   57.24
 -13   2  16  -24.00   59.89
  13  -2  16    5.72   47.74
  13  -2  16  -99.10   76.26
 -13   3 -16   48.22   48.06
 -13   3 -16   39.55  107.71
  13  -3  16   49.31   75.10
  13  -3  16   55.59   47.46
 -13   4 -16   44.92   47.51
 -13   4 -16   30.48  115.65
  13  -4  16 -179.54   79.38
  13  -4  16   54.14   46.38
 -13   5 -16   -3.17   45.87
 -13   5 -16  -13.38  112.39
  13  -5  16 -137.04   82.37
  13  -5  16  -44.62   38.73
 -13   6 -16    3.15   55.41
 -13   6 -16  623.81  149.99
  13  -6  16  178.04   85.53
 -13   7 -16 -116.23  135.74
 -13   7 -16    3.15   40.22
  13  -7  16   93.56   41.68
  13  -7  16    7.39   89.57
 -13   8 -16    3.19   47.52
 -13   8 -16   -5.26  136.47
  13  -8  16   -2.32   37.63
  13  -8  16    3.93   99.37
 -13   9 -16 -139.84  134.08
 -13   9 -16   -3.33   48.73
  13  -9  16  111.17  107.65
  13  -9  16  -47.97   41.93
 -13  10 -16   21.85   50.28
 -13  10 -16  -15.11  122.73
  13 -10  16    4.58  111.90
  13 -10  16   15.31   43.65
 -13  11 -16   28.68  115.84
  13 -11  16   -4.76  115.33
  14   6 -16  -33.19   56.74
  14   6 -16  -30.48   43.78
  14   5 -16   28.42   44.12
  14   5 -16   10.29   53.77
 -14  -5  16  -36.67   32.89
 -14  -5  16   18.56   58.11
  14   4 -16   -2.55   54.22
  14   4 -16  -16.83   41.31
 -14  -4  16  -25.17   57.63
 -14  -4  16   33.85   37.25
  14   3 -16  200.29   63.48
  14   3 -16  107.04   46.66
 -14  -3  16   51.83   57.20
 -14  -3  16  -13.92   38.63
  14   2 -16    5.43   41.53
  14   2 -16   -2.67   56.56
 -14  -2  16   60.10   53.94
 -14  -2  16  -38.87   42.65
  14   1 -16  -27.27   40.86
  14   1 -16   21.63   59.45
 -14  -1  16 -104.14   53.67
 -14  -1  16  -31.96   41.83
  14   0 -16  -19.81   43.25
  14   0 -16 -226.84   64.47
 -14   0  16   -3.41   53.81
  14  -1 -16    2.84   58.78
  14  -1 -16    2.96   40.84
 -14   1  16   -7.27   52.20
  14  -2 -16 -103.15   60.00
 -14   2  16    8.43   57.00
 -14   4 -16  -98.52   46.18
 -14   5 -16   41.84   46.55
 -14   6 -16  103.65  129.16
 -14   6 -16  -38.44   43.61
  14  -6  16   70.73   41.58
 -14   7 -16  107.10  135.32
 -14   7 -16   63.98   45.31
  14  -7  16   56.71   42.22
  14  -7  16   26.11   95.92
 -14   8 -16   51.67  147.77
 -14   8 -16    3.23   45.73
  14  -8  16    7.01   40.61
  14  -8  16 -229.75  102.11
 -14   9 -16    3.41   49.76
 -14   9 -16  186.91  157.34
  14  -9  16    4.84   41.53
  14  -9  16    8.73  118.19
 -14  10 -16   11.34   48.85
 -14  10 -16  108.34  145.90
  14 -10  16    4.78  116.17
  14 -10  16   -2.59   43.81
 -14  11 -16  -42.79  137.37
  14 -11  16    5.10  121.84
  15   6 -16    8.45   57.83
  15   6 -16   23.94   48.01
 -15  -6  16   11.96   65.51
 -15  -6  16   37.22   39.91
  15   5 -16    9.27   49.67
  15   5 -16   25.50   58.33
 -15  -5  16  -73.15   64.69
 -15  -5  16   15.18   37.98
  15   4 -16   30.87   47.96
  15   4 -16   64.38   60.70
 -15  -4  16   -4.00   62.52
 -15  -4  16   11.50   41.51
  15   3 -16    6.10   47.11
  15   3 -16   45.67   63.25
 -15  -3  16  -58.02   41.48
 -15  -3  16   27.03   60.52
  15   2 -16 -186.48   69.47
  15   2 -16  -30.21   47.63
 -15  -2  16  -11.63   42.73
 -15  -2  16  -26.25   61.98
  15   1 -16   20.27   62.70
  15   1 -16   15.11   46.12
 -15  -1  16   30.33   41.24
 -15  -1  16   -7.52   55.87
  15   0 -16  -74.20   59.44
  15   0 -16   56.06   48.68
 -15   0  16  -30.25   53.94
  15  -1 -16   38.66   47.68
  15  -1 -16   12.32   67.95
 -15   1  16   23.92   54.28
  15  -2 -16  -66.23   70.35
 -15   2  16   44.99   63.83
  16   6 -16  -40.42   62.18
  16   6 -16  -57.88   50.27
 -16  -6  16  -38.01   43.45
 -16  -6  16 -106.51   70.79
  16   5 -16 -110.36   60.47
  16   5 -16  215.34   75.83
 -16  -5  16   64.61   48.37
 -16  -5  16   17.69   69.26
  16   4 -16 -178.66   67.58
  16   4 -16  -40.62   57.92
 -16  -4  16   66.31   71.69
 -16  -4  16   21.79   49.62
  16   3 -16   13.45   52.39
  16   3 -16  -96.33   63.83
 -16  -3  16   -4.29   66.83
 -16  -3  16  -60.17   47.27
  16   2 -16   40.27   51.36
  16   2 -16   18.82   68.64
 -16  -2  16  -12.73   43.66
 -16  -2  16   62.97   68.21
  16   1 -16  -87.00   47.45
  16   1 -16  -87.53   67.99
 -16  -1  16  -20.28   41.92
 -16  -1  16  105.08   64.21
  16   0 -16   13.76   53.18
  16   0 -16  -56.92   70.12
 -16   0  16  -55.07   45.89
 -16   0  16  -33.67   62.98
  16  -1 -16  -43.16   70.90
  16  -1 -16   31.86   51.16
 -16   1  16    8.80   64.07
  16  -2 -16  -38.38   72.01
 -16   2  16    4.89   66.95
  17   6 -16    6.94   52.70
  17   6 -16  154.58   76.79
 -17  -6  16  -36.20   73.41
 -17  -6  16   -4.81   46.40
  17   5 -16  -14.52   56.10
  17   5 -16   -3.43   74.66
 -17  -5  16   71.71   78.37
 -17  -5  16  -53.60   54.33
  17   4 -16    3.71   59.29
  17   4 -16 -153.10   71.32
 -17  -4  16   -9.65   78.17
 -17  -4  16  -63.67   57.56
  17   3 -16  -57.49   75.79
  17   3 -16   18.49   58.97
 -17  -3  16  -38.10   53.00
 -17  -3  16  -66.00   73.43
  17   2 -16   70.89   73.76
  17   2 -16   22.32   54.44
 -17  -2  16   23.02   50.86
 -17  -2  16  -70.30   71.40
  17   1 -16  126.42   75.88
  17   1 -16   22.24   57.43
 -17  -1  16   -4.40   50.20
 -17  -1  16   61.03   67.30
  17   0 -16   20.35   70.37
  17   0 -16  -15.25   54.41
 -17   0  16   54.25   46.99
 -17   0  16  -56.15   71.35
  17  -1 -16    3.52   74.83
  17  -1 -16  -78.05   49.65
 -17   1  16  -97.56   69.18
  17  -2 -16  -60.10   84.51
 -17   2  16  -10.73   78.71
  18   6 -16  -64.58   78.04
  18   6 -16   51.83   59.29
 -18  -6  16  -16.37   57.24
 -18  -6  16   52.54   75.46
  18   5 -16   -3.76   79.12
  18   5 -16   58.80   57.06
 -18  -5  16   20.37   83.02
 -18  -5  16  -27.52   58.07
  18   4 -16 -197.75   61.22
  18   4 -16    3.75   79.63
 -18  -4  16  146.90   87.58
 -18  -4  16  -10.93   59.91
  18   3 -16   25.68   81.41
  18   3 -16   32.39   62.48
 -18  -3  16  -36.82   54.78
 -18  -3  16  -52.21   79.34
  18   2 -16    7.36   75.57
  18   2 -16  -61.65   60.29
 -18  -2  16  -70.37   56.00
 -18  -2  16  -31.24   80.31
  18   1 -16  -78.32   62.59
  18   1 -16 -150.26   82.07
 -18  -1  16  -28.57   55.84
 -18  -1  16  -47.17   80.09
  18   0 -16   29.35   79.64
  18   0 -16  -63.51   62.28
 -18   0  16   26.74   51.42
 -18   0  16  -10.43   77.73
  18  -1 -16 -170.32   86.33
  18  -1 -16 -176.82   63.50
 -18   1  16    5.44   78.52
 -18   1  16   47.75   49.09
  18  -2 -16   12.00   89.18
 -18   2  16    5.95   88.23
   0   0  17   31.17   52.20
   0   1 -17 1575.44  301.02
  -1   0  17 1536.52  280.40
   1   0  17 1226.69  275.17
   0  -1  17 1456.82  275.65
   0  -1  17 1622.23  292.15
   1   1 -17  -17.65   54.21
  -1   1 -17   82.68   58.25
  -1  -1  17  -17.61   46.95
   1  -1  17   20.27   32.01
  -1  -1  17  -11.62   31.90
   1  -1  17   31.04   44.91
  -1   2 -17   32.03   53.21
   2   1 -17   46.62   54.81
   1  -2  17   24.49   31.54
  -2  -1  17   24.55   29.47
   1  -2  17  -40.06   44.96
   0   2 -17   75.41   53.35
  -2   0  17   58.37   49.31
   0  -2  17   -9.66   44.95
   0  -2  17   10.97   30.53
   2   0  17   22.84   44.78
   1   2 -17    6.77   52.42
  -2   1 -17  -47.02   61.90
  -1  -2  17   18.78   41.23
   2  -1  17   20.43   48.42
   2  -1  17   16.60   30.22
  -1  -2  17   -5.33   28.18
   2   2 -17  -32.49   49.40
  -2   2 -17   10.35   56.83
  -2  -2  17    5.21   30.39
   2  -2  17  -37.61   47.45
   2  -2  17  -23.50   31.25
  -2  -2  17   -5.52   41.25
   3   2 -17  391.76   77.09
  -2   3 -17  401.06   82.56
   2  -3  17  221.75   72.08
  -3  -2  17  249.89   63.81
  -3  -2  17  255.45   69.10
   2  -3  17  261.88   60.23
  -1   3 -17  243.29   62.51
   1  -3  17  106.54   37.25
  -3  -1  17  118.66   37.85
   1  -3  17   54.11   48.68
   0   3 -17  215.20   60.63
  -3   0 -17  112.49   63.30
   0  -3  17  104.42   49.72
   0  -3  17   71.56   36.46
  -3   0  17  125.19   55.20
   3   0  17   83.06   46.77
  -3   1 -17  196.01   67.20
   1   3 -17   74.46   54.30
   3  -1  17   95.77   54.95
  -1  -3  17  170.11   47.86
  -1  -3  17  117.81   36.59
   3  -1  17   51.58   40.72
   2   3 -17  328.27   75.17
  -3   2 -17  337.41   86.41
   3  -2  17  314.62   62.68
  -2  -3  17  149.05   66.19
  -2  -3  17  279.77   61.85
   3  -2  17  393.46   74.82
   3   3 -17 -103.04   48.50
  -3   3 -17   57.88   62.46
   3  -3  17  -14.19   35.75
  -3  -3  17   -7.83   27.46
  -3  -3  17   19.40   36.67
   3  -3  17  -20.01   53.72
   4   3 -17  102.56   56.49
  -3   4 -17  169.68   77.29
  -4  -3  17  165.32   42.54
   3  -4  17  211.32   45.31
   3  -4  17  198.73   64.08
  -4  -3  17  162.49   51.45
   4   2 -17  481.96  105.74
  -2   4 -17  546.50  115.61
  -4  -2  17  513.91  102.18
   2  -4  17  422.46   91.21
   2  -4  17  469.64  101.40
  -4  -2  17  377.73   98.85
  -1   4 -17  174.27   62.61
   4   1 -17  138.08   32.94
   1  -4  17   69.35   37.17
   1  -4  17   39.27   53.09
  -4  -1  17   80.87   38.71
  -4   0 -17   -9.50   66.37
   4   0 -17   10.23   19.85
   0   4 -17    6.77   52.15
  -4   0  17   63.19   50.17
   0  -4  17   -1.72   31.01
   0  -4  17    5.88   45.23
  -4   1 -17  220.45   75.13
   1   4 -17  124.14   57.50
   4  -1  17   82.20   55.93
  -1  -4  17  109.02   47.50
  -1  -4  17  146.78   35.72
   2   4 -17  440.69   78.85
  -4   2 -17  536.89  116.95
   2   4 -17  485.89  110.19
  -2  -4  17  499.77   97.28
   4  -2  17  496.60  103.59
   4  -2  17  522.26   93.26
  -2  -4  17  527.59   92.14
   3   4 -17  240.60   61.58
  -4   3 -17  183.74   73.11
   3   4 -17  214.59   35.09
   4  -3  17  130.47   48.02
  -3  -4  17  139.12   52.35
   4  -3  17  107.50   63.20
  -3  -4  17  167.46   41.81
   4   4 -17  -11.93   20.23
  -4   4 -17   -2.81   63.82
   4   4 -17   -1.77   46.81
   4  -4  17  -31.15   56.08
   4  -4  17  -33.09   36.20
  -4  -4  17  -29.14   21.76
  -4  -4  17   30.46   38.41
  -4   5 -17   37.08   27.53
  -4   5 -17   76.64   69.94
   4  -5  17   39.85   33.89
   4  -5  17  103.50   56.77
  -3   5 -17  307.80   84.91
  -3   5 -17  348.81   53.38
   3  -5  17  297.57   57.30
  -5  -3  17  215.44   56.60
   3  -5  17  221.64   73.11
   5   2 -17    2.21   27.02
  -2   5 -17   67.73   58.56
  -2   5 -17   64.26   29.87
   2  -5  17  -15.88   53.98
  -5  -2  17   27.83   29.22
   2  -5  17   49.41   30.59
  -1   5 -17  231.00   46.16
   5   1 -17  161.04   52.75
  -1   5 -17  171.33   73.96
  -5  -1  17  246.07   56.58
   1  -5  17  374.40   53.16
   1  -5  17  258.31   66.71
  -5   0 -17  -56.41   67.68
   0   5 -17  -34.98   26.25
   0   5 -17  -18.11   54.92
   5   0 -17    5.48   22.14
   5   0  17   46.17   44.49
   0  -5  17   45.72   52.20
   0  -5  17  -16.67   28.09
  -5   0  17   -2.51   45.58
  -5   1 -17  254.41   88.16
   1   5 -17  254.52   69.32
   1   5 -17  238.35   45.26
  -1  -5  17  188.88   50.51
   5  -1  17  268.77   57.01
   5  -1  17  259.02   73.81
  -1  -5  17  237.03   65.39
  -5   2 -17   45.47   70.50
   2   5 -17   53.36   51.66
   2   5 -17   20.92   21.85
   5  -2  17   41.32   37.75
   5  -2  17    9.58   52.98
  -2  -5  17   25.59   25.18
  -2  -5  17    7.48   43.80
   3   5 -17  197.60   46.83
   3   5 -17  351.65   73.75
  -5   3 -17  215.50   88.09
  -3  -5  17  298.57   65.90
   5  -3  17  296.61   78.41
  -3  -5  17  283.23   54.33
   4   5 -17  -24.10   48.13
   4   5 -17   18.75   19.18
  -5   4 -17   65.64   70.89
  -4  -5  17   13.80   21.33
   5  -4  17  -27.66   58.56
  -4  -5  17   34.24   40.32
  -5   5 -17  290.53   86.57
   5  -5  17  -80.21   77.56
  -5   6 -17   99.35   74.60
   5  -6  17    2.72   62.34
  -4   6 -17   -2.36   37.52
   4  -6  17   65.15   34.86
  -3   6 -17 -105.33   37.44
   3  -6  17  -94.75   71.60
   3  -6  17  -55.08   35.63
  -2   6 -17  370.61   54.55
   6   2 -17  319.51   65.98
  -2   6 -17  459.91   89.37
   6   2 -17  250.30   56.76
   2  -6  17  215.72   78.17
   2  -6  17  347.70   60.29
  -6  -2  17  237.09   52.73
  -1   6 -17   10.02   25.29
  -1   6 -17  132.77   63.62
   6   1 -17   -2.61   28.13
   1  -6  17  -20.90   54.52
   1  -6  17   -6.73   28.72
  -6   0 -17   17.50   78.70
   6   0 -17   10.05   25.32
   0   6 -17    1.89   26.46
   0   6 -17   91.71   62.09
   6   0  17  -27.45   46.03
   0  -6  17   17.45   25.74
   0  -6  17  -15.72   53.90
  -6   1 -17  -10.10   80.94
   1   6 -17    7.08   24.42
   1   6 -17  -47.14   57.00
   6  -1  17  -40.11   43.04
  -1  -6  17   19.58   53.42
   6  -1  17  -47.23   59.49
  -1  -6  17   -1.47   25.70
   2   6 -17  213.39   78.00
   2   6 -17  249.06   49.05
  -6   2 -17  196.19   95.52
  -2  -6  17  268.90   57.33
   6  -2  17  288.64   64.73
   6  -2  17  343.82   82.80
  -2  -6  17  446.07   76.38
  -6   3 -17  -90.90   78.35
   3   6 -17   -7.59   19.96
   3   6 -17    2.02   51.82
   6  -3  17 -171.27   70.89
  -3  -6  17   -4.88   21.60
   6  -3  17  -59.25   45.37
  -3  -6  17    4.01   49.61
   4   6 -17  109.03   51.03
   4   6 -17   77.64   22.88
  -6   4 -17  -57.00   82.03
   6  -4  17   77.93   45.93
  -4  -6  17   79.03   23.91
  -4  -6  17  149.34   48.90
   6  -4  17  -99.82   71.26
  -6   5 -17   -2.58   37.19
  -6   5 -17  -19.33   78.89
   6  -5  17   24.44   65.82
   6  -5  17  -69.72   39.62
  -6   6 -17   22.49   83.61
  -6   6 -17    2.62   38.62
   6  -6  17   -2.84   65.96
  -5   7 -17   15.78   73.54
   5  -7  17   16.73   67.30
  -4   7 -17    6.04   78.37
  -4   7 -17    2.42   34.95
   4  -7  17  -22.39   31.76
   4  -7  17    2.65   60.95
  -3   7 -17   57.52   51.19
  -3   7 -17   69.84   88.56
   3  -7  17  180.91   83.89
   3  -7  17  360.10   54.30
   7   2 -17  -20.49   34.16
  -2   7 -17  -15.35   32.98
   7   2 -17   33.71   22.47
   2  -7  17   39.13   28.62
  -7  -2  17   15.59   23.33
   2  -7  17   28.79   62.83
  -1   7 -17  264.16   40.03
   1  -7  17   94.65   63.89
   7   0 -17   41.97   36.42
   0   7 -17   90.17   33.21
  -7   0 -17  159.65   83.17
   0  -7  17  179.64   63.54
   7   0  17   31.03   51.28
   0  -7  17   44.70   32.64
  -7   1 -17   -3.57   88.07
   7  -1 -17  113.50   38.22
   1   7 -17   51.76   33.43
  -1  -7  17  141.22   33.77
   7  -1  17  127.81   56.46
  -1  -7  17  197.45   58.96
   7  -1  17    2.74   65.63
   2   7 -17   16.53   60.54
  -7   2 -17  -58.10   88.47
   2   7 -17   17.17   22.38
  -2  -7  17   19.23   23.81
  -2  -7  17   25.78   52.30
   7  -2  17  -42.10   63.69
   7  -2  17   25.94   43.67
  -7   3 -17  212.92   98.51
   3   7 -17  267.11   74.36
   3   7 -17  204.25   43.42
   7  -3  17    5.33   78.33
  -3  -7  17  275.88   50.15
   7  -3  17  433.92   63.93
  -3  -7  17  220.29   70.90
   4   7 -17   43.69   55.28
  -7   4 -17   36.84   83.37
   4   7 -17    1.47   20.41
   7  -4  17    2.37   40.51
  -4  -7  17   16.32   52.90
  -4  -7  17   20.61   21.70
   7  -4  17    2.75   65.10
  -7   5 -17   41.19   86.92
  -7   5 -17   38.03   38.75
   7  -5  17    2.87   69.77
   7  -5  17   47.91   39.63
  -7   7 -17    5.55   42.56
   7  -7  17  -37.81   38.26
  -7   8 -17    2.84   40.89
  -7   8 -17   50.82   96.61
   7  -8  17    2.08   35.43
   7  -8  17    3.15   67.29
  -6   8 -17    5.46   37.47
   6  -8  17   -2.01   35.00
  -4   8 -17   13.25   81.27
   4  -8  17   28.73   66.67
   8   3 -17    5.81   31.94
  -3   8 -17    9.74   83.62
   8   3 -17   46.51   22.97
  -3   8 -17   -2.38   33.45
   3  -8  17    2.48   60.81
   3  -8  17   38.28   32.41
  -2   8 -17    2.27   34.45
   8   2 -17   80.76   28.66
   8   2 -17  106.03   40.91
  -2   8 -17   15.83   75.46
  -8  -2  17   82.96   31.09
   2  -8  17  148.62   34.36
   2  -8  17   63.76   60.07
  -1   8 -17    4.30   28.12
   8   1 -17    1.69   26.26
   8   1 -17   14.79   35.48
   1  -8  17    4.56   54.42
   1  -8  17    6.70   27.37
  -8  -1  17   25.20   25.44
   0   8 -17   18.36   28.83
   8   0 -17   15.98   33.93
   0  -8  17    4.43   50.13
   0  -8  17  -22.39   26.17
   8   0  17  -66.99   47.16
   8  -1 -17    7.78   32.17
  -8   1 -17   98.99   88.31
   1   8 -17  -51.78   26.81
  -1  -8  17   69.19   52.95
   8  -1  17    2.87   64.27
  -1  -8  17  -21.13   26.36
   8  -1  17   -2.84   47.14
   2   8 -17  109.05   27.82
  -8   2 -17  130.89   97.42
   8  -2  17   47.05   48.24
  -2  -8  17   79.34   28.10
   8  -2  17   33.07   69.61
  -2  -8  17   21.19   51.40
   3   8 -17   31.26   24.44
  -8   3 -17   31.91   89.82
   8  -3  17   31.66   43.71
   8  -3  17    8.32   68.72
  -3  -8  17   40.25   23.58
  -3  -8  17   31.17   51.03
  -8   4 -17  -24.91   94.67
   4   8 -17   27.47   25.41
  -4  -8  17  -26.35   51.69
   8  -4  17  -54.83   69.68
  -8   6 -17   -2.86   40.29
   8  -6  17   -2.25   37.50
  -8   7 -17   -2.89   42.39
  -8   7 -17   63.03   97.33
   8  -7  17    2.17   38.00
   8  -7  17  -16.26   85.34
  -8   8 -17    2.96   42.52
  -8   8 -17  -41.86  100.63
   8  -8  17   -2.15   38.02
   8  -8  17   10.07   82.86
  -8   9 -17   47.30   98.55
  -8   9 -17    3.02   43.08
   8  -9  17  -94.46   79.72
   8  -9  17    2.24   36.13
  -7   9 -17   42.17   94.44
  -7   9 -17    2.92   42.78
   7  -9  17    2.17   37.03
   7  -9  17   25.19   79.65
  -6   9 -17  -71.86   94.81
  -6   9 -17    2.80   42.21
   6  -9  17  -35.70   34.95
   6  -9  17   -2.94   73.76
  -5   9 -17   14.93   89.48
  -5   9 -17   18.88   39.42
   5  -9  17  -35.88   62.92
  -4   9 -17    2.58   39.87
   4  -9  17   37.25   33.44
   9   3 -17   58.29   26.95
   9   3 -17   78.78   39.86
  -9  -3  17   46.79   24.42
  -9  -3  17   59.83   30.04
   9   2 -17   25.29   40.90
   9   2 -17   31.25   26.11
  -9  -2  17   24.82   28.06
   2  -9  17   26.28   57.54
   9   1 -17    3.61   28.00
  -1   9 -17   -6.86   31.08
   9   1 -17   11.02   40.28
   1  -9  17   32.24   56.35
   1  -9  17   64.72   30.99
  -9  -1  17   -6.17   30.23
   0   9 -17  -32.99   29.16
   9   0 -17    1.79   35.08
   0  -9  17   -3.36   28.83
  -9   0  17   56.62   34.89
   0  -9  17   11.34   52.59
   9   0  17   42.54   54.24
  -9   1 -17   12.18   94.47
   1   9 -17   42.47   29.75
   9  -1 -17    8.53   35.83
   9  -1  17   -3.01   70.07
  -1  -9  17  -24.32   53.71
  -1  -9  17   -3.26   26.23
   9  -1  17    6.03   54.82
  -9   2 -17  100.38   98.33
   2   9 -17    2.09   28.39
  -2  -9  17   53.92   53.31
   9  -2  17   -2.91   50.70
   9  -2  17    8.65   70.32
  -9   3 -17  -52.76   94.90
   9  -3  17  -17.32   65.90
  -3  -9  17   75.40   53.65
  -4  -9  17  155.23   51.84
  -9   5 -17   -2.99   44.35
   9  -5  17   -2.47   42.30
  -9   6 -17 -131.37  105.53
  -9   6 -17    2.99   45.73
   9  -6  17  -51.62   80.84
   9  -6  17   -2.33   39.79
  -9   7 -17   -3.02   44.42
  -9   7 -17    7.95   97.94
   9  -7  17    3.39   84.18
   9  -7  17    8.92   41.05
  -9   8 -17    8.00  102.33
  -9   8 -17    3.05   36.52
   9  -8  17   -3.55   86.46
   9  -8  17  -57.74   37.39
  -9   9 -17    3.13   45.21
  -9   9 -17   36.81  100.30
   9  -9  17   -7.27   86.24
   9  -9  17    6.94   40.05
  -9  10 -17 -174.68  110.41
  -9  10 -17   23.07   47.10
   9 -10  17   18.31   87.77
   9 -10  17   -2.39   41.82
  -8  10 -17  -19.13   44.31
  -8  10 -17  -90.35   99.74
   8 -10  17  -20.44   80.98
   8 -10  17    2.32   39.24
  -7  10 -17  -61.17  100.95
  -7  10 -17    3.08   41.99
   7 -10  17  -12.72   75.87
   7 -10  17    2.25   38.98
   6 -10  17   17.94   72.83
   6 -10  17   32.67   35.07
  -5  10 -17    2.88   41.26
   5 -10  17   -2.84   69.46
   5 -10  17   -2.11   36.77
  10   4 -17  -62.48   40.33
  -4  10 -17   -2.79   40.14
   4 -10  17   -2.06   33.20
   4 -10  17    2.74   62.37
  10   3 -17   36.82   30.22
  10   3 -17   49.20   42.20
  -3  10 -17   46.05   40.80
 -10  -3  17   82.02   34.46
 -10  -3  17   86.15   26.78
   3 -10  17   66.03   35.02
   3 -10  17   23.83   64.62
  -2  10 -17   -2.63   36.29
  10   2 -17   48.78   43.73
  10   2 -17   12.71   28.13
 -10  -2  17   42.47   33.44
   2 -10  17    1.95   30.92
  10   1 -17    9.75   31.57
  10   1 -17   -4.08   46.11
 -10  -1  17    4.46   31.45
  10   0 -17   17.67   41.49
  10   0 -17   17.13   30.59
 -10   0  17    5.07   35.29
   0 -10  17   44.69   60.62
 -10   1 -17   82.45  101.95
  10  -1 -17    9.66   41.10
  -1 -10  17  -65.12   58.82
  10  -1  17    3.17   73.45
  -2 -10  17   32.59   54.35
  -3 -10  17  140.13   55.93
 -10   4 -17    3.11   45.22
  -4 -10  17  -16.77   58.06
  10  -4  17  -48.23   47.61
 -10   5 -17    3.12   47.54
 -10   5 -17  -77.73  114.20
  10  -5  17 -282.84   84.42
  10  -5  17 -105.38   47.13
 -10   6 -17   68.07  114.21
 -10   6 -17   34.23   47.58
  10  -6  17  -79.35   41.23
  10  -6  17    3.39   85.46
 -10   7 -17   -3.13   47.50
 -10   7 -17   81.44  106.11
  10  -7  17   38.91   40.98
  10  -7  17   10.54   87.20
 -10   8 -17   12.89  105.80
 -10   8 -17    6.32   46.34
  10  -8  17 -115.79   92.01
  10  -8  17   36.49   39.63
 -10   9 -17  -21.55  106.38
 -10   9 -17    3.23   44.80
  10  -9  17  -49.97   41.49
  10  -9  17   19.42   91.78
 -10  10 -17 -150.87  110.58
 -10  10 -17    6.82   47.64
  10 -10  17  -17.21   40.24
  10 -10  17    3.95   96.66
 -10  11 -17    7.59   51.74
 -10  11 -17  -29.95  107.32
  10 -11  17  -24.05   92.62
  -9  11 -17   -3.66   50.30
  -9  11 -17   72.15   97.78
   9 -11  17  -11.17   91.79
   9 -11  17    7.67   42.35
  -8  11 -17    3.55   49.21
   8 -11  17    3.50   86.67
   8 -11  17    2.49   40.52
  -7  11 -17   -3.44   46.56
   7 -11  17   -2.42   37.64
   7 -11  17   13.22   75.84
   6 -11  17   -3.19   75.12
  -5  11 -17    3.27   44.01
   5 -11  17    3.09   71.86
  11   4 -17    6.05   32.17
  11   4 -17   77.73   42.34
  -4  11 -17    3.21   43.59
   4 -11  17   -9.18   71.95
  11   3 -17   36.62   44.27
  11   3 -17   -1.97   31.55
  -3  11 -17    3.16   42.13
 -11  -3  17  -35.22   29.79
   3 -11  17    2.99   71.53
 -11  -3  17  -48.83   36.40
  11   2 -17  174.43   48.31
  11   2 -17  -28.28   34.05
   2 -11  17 -275.73   74.66
 -11  -2  17  -27.83   32.77
 -11  -2  17   26.06   37.18
  11   1 -17   54.96   37.81
 -11  -1  17  101.10   40.72
  11   0 -17  124.72   42.47
 -11   0  17   40.36   45.51
  11  -2 -17  -45.35   48.21
  11  -2  17   -3.16   54.47
 -11   3 -17   -4.23   84.04
  11  -3  17  -38.35   51.46
  11  -3  17   -3.08   67.04
 -11   4 -17    3.23   46.85
 -11   4 -17  -25.19  105.74
  11  -4  17   41.36   48.63
  11  -4  17   -3.17   75.81
 -11   5 -17   21.60  108.84
 -11   5 -17    3.24   45.20
  11  -5  17   30.67   43.50
  11  -5  17   -3.33   82.79
 -11   6 -17   -3.22   47.16
 -11   6 -17   -4.51  110.32
  11  -6  17   38.54   87.25
  11  -6  17  -24.44   41.98
 -11   7 -17    3.24   48.25
 -11   7 -17  -60.67  126.09
  11  -7  17   -3.66   96.46
  11  -7  17   55.83   39.89
 -11   8 -17    3.26   41.83
 -11   8 -17  -69.56  119.96
  11  -8  17  -87.95   44.08
  11  -8  17    3.89   96.68
 -11   9 -17 -203.27  116.73
 -11   9 -17  -59.61   48.50
  11  -9  17   36.93  103.50
  11  -9  17  -80.46   43.26
 -11  10 -17  -72.42  115.59
 -11  10 -17  -17.60   51.60
  11 -10  17  -83.43   45.80
  11 -10  17    8.49  107.70
 -11  11 -17 -123.70  111.21
 -11  11 -17   27.53   52.73
  11 -11  17   -4.31  105.21
  12   4 -17   34.41   47.57
 -12  -4  17   60.97   30.74
  12   3 -17   20.05   49.92
 -12  -3  17   -5.69   31.88
  12   2 -17    9.29   53.53
 -12  -2  17  -33.31   34.28
  12   1 -17   38.70   55.50
 -12  -1  17   -2.75   37.47
  12   0 -17  139.38   38.91
  12   0 -17   67.14   54.51
  12   0  17  -67.85   60.80
 -12   0  17   23.27   43.76
 -12   1 -17  473.32  113.95
  12  -1 -17   77.58   49.65
 -12   1  17   94.01   50.46
  12  -1  17   23.26   55.99
 -12   2 -17  -60.35  109.89
  12  -2 -17   71.89   52.48
  12  -2  17   39.20   76.08
  12  -2  17  -15.84   55.95
 -12   3 -17   -4.45  104.49
  12  -3  17   54.08   78.77
  12  -3  17    2.94   52.00
 -12   4 -17   22.09  106.95
 -12   4 -17   -3.34   49.32
  12  -4  17   16.16   75.28
  12  -4  17    2.75   48.33
 -12   5 -17 -134.06   46.70
 -12   5 -17   76.87  115.17
  12  -5  17   38.31   45.33
  12  -5  17 -146.88   85.38
 -12   6 -17   -3.31   45.44
 -12   6 -17   28.63  123.94
  12  -6  17    2.45   42.67
  12  -6  17    3.57   86.85
 -12   7 -17    3.32   51.55
 -12   7 -17  270.21  143.14
  12  -7  17   -2.35   40.66
  12  -7  17   -3.81  101.32
 -12   8 -17   51.04  137.38
 -12   8 -17    3.35   47.15
  12  -8  17   53.28   41.78
  12  -8  17   -4.00  104.65
 -12   9 -17   17.03   48.67
 -12   9 -17  -29.95  128.57
  12  -9  17  -34.28  111.24
  12  -9  17  -12.35   44.28
 -12  10 -17  -58.20  126.05
 -12  10 -17   -3.63   51.16
  12 -10  17    2.59   42.94
  12 -10  17   27.25  115.42
 -12  11 -17 -111.70  120.45
 -12  11 -17    4.08   59.36
  12 -11  17  -60.77  120.91
  13   4 -17    7.59   39.09
  13   4 -17  -90.31   55.26
 -13  -4  17    3.01   32.06
 -13  -4  17   -3.18   51.13
  13   3 -17    4.90   57.23
  13   3 -17   59.22   41.30
 -13  -3  17  -67.20   32.63
 -13  -3  17  -33.10   51.13
  13   2 -17   67.55   55.85
  13   2 -17    2.50   37.77
 -13  -2  17  -16.59   34.04
 -13  -2  17   56.80   47.75
  13   1 -17    2.51   37.49
  13   1 -17    2.57   58.74
 -13  -1  17    3.06   46.88
  13   0 -17   66.01   59.38
  13   0 -17   61.18   42.83
  13   0  17   50.84   60.58
 -13   0  17   79.26   46.26
  13  -1 -17    2.59   53.90
  13  -1 -17  -23.09   43.41
 -13   1  17   46.17   52.41
  13  -1  17    3.31   54.47
 -13   2 -17  -48.81  115.52
  13  -2 -17   80.93   55.26
  13  -2  17 -167.76   57.40
  13  -2  17 -182.93   79.83
 -13   3 -17   -4.64  126.82
 -13   3 -17   -6.80   50.89
  13  -3  17  -43.34   52.27
  13  -3  17    9.82   77.32
 -13   4 -17   -3.44   54.56
 -13   4 -17    9.24  117.52
  13  -4  17   29.56   81.30
  13  -4  17  -90.12   49.54
 -13   5 -17  154.04   76.57
  13  -5  17  429.61  104.53
 -13   6 -17 -104.91  129.56
 -13   6 -17    3.40   51.32
  13  -6  17    3.64   91.73
  13  -6  17  -94.86   44.57
 -13   7 -17  117.00  137.48
 -13   7 -17    3.39   46.17
  13  -7  17  -14.37   43.27
  13  -7  17   78.08  100.17
 -13   8 -17 -139.22  147.42
 -13   8 -17    3.40   45.23
  13  -8  17   20.73  100.21
  13  -8  17  -29.46   44.10
 -13   9 -17   49.75  144.49
 -13   9 -17   20.96   48.48
  13  -9  17    2.51   42.02
  13  -9  17   -4.44  104.64
 -13  10 -17  262.36  145.29
 -13  10 -17    3.74   57.50
  13 -10  17  124.44   51.86
  13 -10  17  147.60  140.68
 -13  11 -17    4.24   52.87
 -13  11 -17  -35.32  124.26
  13 -11  17    5.00  125.60
  14   5 -17   39.19   57.20
  14   4 -17   42.10   45.12
  14   4 -17    2.62   54.12
 -14  -4  17    3.60   55.42
 -14  -4  17    3.44   33.79
  14   3 -17    5.31   56.12
  14   3 -17  -16.49   40.32
 -14  -3  17   17.81   39.17
 -14  -3  17  -10.25   53.37
  14   2 -17  -61.06   43.45
  14   2 -17   51.56   61.43
 -14  -2  17   13.48   54.81
 -14  -2  17    3.61   40.52
  14   1 -17  -77.53   44.19
  14   1 -17    2.74   57.53
 -14  -1  17   78.84   55.50
 -14  -1  17   68.77   40.38
  14   0 -17   46.55   45.26
  14   0 -17  -56.67   62.44
 -14   0  17   24.42   51.71
  14  -1 -17 -165.05   62.62
  14  -1 -17  102.05   49.07
 -14   1  17    7.67   55.40
  14  -2 -17  -60.13   62.28
 -14   3 -17  -63.10   53.06
 -14   4 -17   33.49  122.78
 -14   4 -17  -35.39   50.75
  14  -4  17   36.87   46.93
 -14   5 -17   -3.49   53.47
 -14   5 -17 -118.02  118.16
  14  -5  17    2.52   40.89
  14  -5  17 -282.11   85.31
 -14   6 -17    3.46   51.31
 -14   6 -17  -77.99  136.17
  14  -6  17    7.20   42.15
  14  -6  17  -51.72   88.47
 -14   7 -17    3.43   48.75
 -14   7 -17  118.55  150.67
  14  -7  17    2.38   37.56
  14  -7  17  -58.96  105.31
 -14   8 -17 -108.78  162.87
 -14   8 -17    3.46   50.43
  14  -8  17 -188.31  105.88
  14  -8  17  -14.81   39.95
 -14   9 -17   31.16  162.90
 -14   9 -17   -3.57   46.66
  14  -9  17    2.54   45.52
  14  -9  17 -201.18  110.64
 -14  10 -17  -42.19  151.78
 -14  10 -17    3.84   54.63
  14 -10  17   -4.95  125.57
  14 -10  17 -180.53   52.54
 -14  11 -17   17.03  145.19
  14 -11  17 -211.26  129.03
  15   5 -17   77.14   48.04
  15   5 -17  103.99   63.86
  15   4 -17   34.08   47.11
  15   4 -17  -88.61   61.14
 -15  -4  17   72.25   61.98
 -15  -4  17   42.86   38.56
  15   3 -17  -67.01   47.18
  15   3 -17  -17.44   62.58
 -15  -3  17   57.88   58.34
 -15  -3  17  -51.37   47.68
  15   2 -17  -52.43   47.63
  15   2 -17   14.83   64.73
 -15  -2  17   -7.60   59.42
 -15  -2  17   15.80   41.64
  15   1 -17   -2.93   65.34
  15   1 -17   79.71   47.83
 -15  -1  17   19.21   41.49
 -15  -1  17   11.51   55.84
  15   0 -17   -3.00   67.23
  15   0 -17   35.21   45.43
 -15   0  17    7.73   59.51
  15  -1 -17 -144.13   48.87
  15  -1 -17    3.11   68.20
 -15   1  17  -20.92   58.27
  15  -2 -17  -66.32   69.23
  16   5 -17   50.82   65.12
  16   5 -17    3.35   48.85
 -16  -5  17  -76.21   71.12
 -16  -5  17   13.09   46.71
  16   4 -17  -64.60   65.21
 -16  -4  17  -22.16   54.43
 -16  -4  17   13.39   73.20
  16   3 -17   12.66   73.87
  16   3 -17   13.47   60.11
 -16  -3  17  -21.69   74.15
 -16  -3  17   30.75   48.45
  16   2 -17 -160.85   57.81
  16   2 -17    6.37   69.40
 -16  -2  17  -42.74   67.14
 -16  -2  17   -8.64   51.14
  16   1 -17    3.40   51.56
  16   1 -17   -3.20   72.21
 -16  -1  17   20.50   46.71
 -16  -1  17   -4.30   64.29
  16   0 -17   41.38   70.51
  16   0 -17  -88.31   53.80
 -16   0  17  -35.53   44.04
 -16   0  17   -8.61   63.37
  16  -1 -17   -3.34   73.83
  16  -1 -17  -73.27   52.35
 -16   1  17   32.25   66.43
  16  -2 -17  -80.37   76.92
 -16   2  17 -128.01   76.82
  17   5 -17    3.49   70.09
  17   5 -17    3.62   55.63
 -17  -5  17  -29.65   53.60
 -17  -5  17  -63.17   79.36
  17   4 -17    6.92   70.03
  17   4 -17  -25.97   59.24
 -17  -4  17   59.83   55.80
 -17  -4  17  102.82   77.40
  17   3 -17   75.07   52.42
  17   3 -17    3.44   76.01
 -17  -3  17  -77.49   77.71
 -17  -3  17  -38.59   50.79
  17   2 -17   72.00   54.43
  17   2 -17   27.34   73.50
 -17  -2  17  -32.74   52.06
 -17  -2  17   48.01   76.85
  17   1 -17  -75.89   76.14
  17   1 -17  158.65   60.59
 -17  -1  17   26.58   50.03
 -17  -1  17   72.16   73.52
  17   0 -17  -43.03   54.77
  17   0 -17   30.75   76.02
 -17   0  17    4.81   73.41
 -17   0  17  -16.70   41.19
  17  -1 -17 -116.91   56.94
  17  -1 -17   49.61   80.54
 -17   1  17  -10.24   74.51
  17  -2 -17   18.87   83.78
 -17   2  17   70.11   83.03
  18   5 -17   35.27   58.47
  18   5 -17    3.82   79.19
 -18  -5  17   11.17   54.15
 -18  -5  17  -57.65   87.47
  18   4 -17    4.05   60.74
  18   4 -17   -3.80   79.77
 -18  -4  17  -55.53   59.95
 -18  -4  17  226.87   83.96
  18   3 -17  -52.10   82.74
  18   3 -17 -128.34   60.73
 -18  -3  17 -149.64   85.24
 -18  -3  17   21.37   61.04
  18   2 -17    3.72   83.39
  18   2 -17   33.45   64.37
 -18  -2  17   -5.06   57.02
 -18  -2  17   21.48   83.95
  18   1 -17   67.15   64.53
  18   1 -17   14.78   83.14
 -18  -1  17    4.79   53.97
 -18  -1  17  -96.77   81.77
  18   0 -17 -130.71   84.70
  18   0 -17  -17.34   60.97
 -18   0  17   26.97   83.63
 -18   0  17  -22.25   50.14
  18  -1 -17  -79.84   79.87
  18  -1 -17  -44.67   63.21
 -18   1  17   -4.30   48.69
 -18   1  17   -5.71   81.56
  18  -2 -17   -4.02   67.97
 -18   2  17  -19.42   88.01
   0   1 -18   -2.76   60.14
   0  -1  18   14.30   50.72
   0  -1  18  -28.26   33.55
   1   1 -18  623.39  111.85
  -1   1 -18  452.39  115.03
  -1  -1  18  582.87   96.04
   1  -1  18  318.68  106.02
   1  -1  18  379.08   95.18
  -1   2 -18   -7.93   61.62
  -2  -1  18  -20.79   34.14
   1  -2  18  -34.59   49.88
   1  -2  18   22.17   32.94
   0   2 -18  103.58   60.80
   0  -2  18   58.60   48.30
   0  -2  18   51.04   34.57
  -2   1 -18   47.19   67.04
   1   2 -18   -2.43   56.43
   2  -1  18   12.20   51.42
  -1  -2  18  -15.32   33.02
  -1  -2  18   46.87   46.49
   2  -1  18   31.56   37.79
   2   2 -18  189.37   57.40
  -2   2 -18  143.99   65.19
  -2  -2  18   62.25   50.69
   2  -2  18  110.47   39.76
   2  -2  18   47.16   53.73
  -2  -2  18   50.76   37.42
   3   2 -18  -76.57   53.85
  -2   3 -18  -53.42   63.83
   2  -3  18   55.38   35.01
  -3  -2  18   20.23   32.80
   2  -3  18   11.20   53.29
  -3  -2  18   48.20   43.14
  -1   3 -18  467.20   96.80
   1  -3  18  387.11   84.60
  -3  -1  18  359.92   79.88
   1  -3  18  383.10   75.09
   0   3 -18   50.75   59.32
   0  -3  18    3.87   29.30
  -3   0  18  -80.53   60.09
   0  -3  18  -18.15   46.82
   1   3 -18  306.21   92.15
  -3   1 -18  408.44  100.82
  -1  -3  18  358.08   82.15
   3  -1  18  165.39   89.56
  -1  -3  18  366.55   76.29
   3  -1  18  412.60   76.57
  -3   2 -18   63.92   70.32
   2   3 -18  113.54   55.29
   3  -2  18   34.67   38.08
  -2  -3  18    9.14   42.24
  -2  -3  18   41.66   31.40
   3  -2  18  -28.10   57.36
   3   3 -18  611.06  118.24
  -3   3 -18  579.87  127.40
  -3  -3  18  597.48  105.63
  -3  -3  18  327.47  107.45
   3  -3  18  364.79  113.36
   3  -3  18  593.95  100.49
  -3   4 -18  413.77  113.47
   4   3 -18  424.27   98.96
  -4  -3  18  335.77   90.69
   3  -4  18  363.55   96.42
   3  -4  18  576.28   84.55
  -4  -3  18  387.85   86.56
   4   2 -18  722.91  147.30
  -2   4 -18  557.70  158.51
  -4  -2  18  712.43  141.86
   2  -4  18  850.58  129.14
   2  -4  18  717.99  141.14
  -4  -2  18  719.28  144.00
  -1   4 -18  514.23   85.19
  -4  -1  18  161.57   63.17
   1  -4  18  322.77   71.61
   1  -4  18  326.72   58.81
   0   4 -18  478.48   97.12
   0  -4  18  280.39   74.26
  -4   0  18  560.80   93.85
   0  -4  18  293.65   83.64
   1   4 -18  255.96   79.50
  -4   1 -18  260.31   90.55
   4  -1  18  181.22   74.01
  -1  -4  18  256.17   58.69
  -1  -4  18  283.41   68.75
   4  -1  18  216.40   61.88
   2   4 -18  723.32  153.36
  -4   2 -18  776.66  161.48
  -2  -4  18  633.23  133.29
  -2  -4  18  558.82  136.05
   4  -2  18  685.47  130.42
   4  -2  18  731.71  142.39
   3   4 -18  508.07  101.98
  -4   3 -18  573.80  115.57
   3   4 -18  450.47   71.84
  -3  -4  18  420.65   85.41
   4  -3  18  419.93   84.85
  -3  -4  18  322.88   90.31
   4  -3  18  409.80   99.06
   4   4 -18  340.56   58.73
  -4   4 -18  216.04  111.60
   4   4 -18  361.63   86.17
  -4  -4  18  381.35   70.27
  -4  -4  18  320.96   77.46
   4  -4  18  432.26   72.95
   4  -4  18  116.93   95.89
  -4   5 -18 -211.99   96.26
  -4   5 -18    2.49   38.38
   4  -5  18    2.15   40.93
   4  -5  18 -282.01   79.22
  -3   5 -18  -87.30   87.70
  -3   5 -18   16.46   39.57
   3  -5  18   90.93   43.22
   3  -5  18  -90.55   74.97
  -2   5 -18  278.68   92.85
  -2   5 -18  375.95   59.95
   2  -5  18  419.05   66.96
   2  -5  18  277.45   85.23
  -1   5 -18   46.19   30.25
  -1   5 -18   70.83   62.05
  -5  -1  18   31.28   35.24
   1  -5  18  -11.55   55.53
   1  -5  18    7.53   31.55
   0   5 -18   55.07   62.63
   5   0 -18   14.12   22.99
   0   5 -18   27.69   25.27
   0  -5  18  -22.12   52.42
   0  -5  18   -1.80   27.61
  -5   0  18   25.59   52.02
   1   5 -18   50.03   27.51
   1   5 -18  -26.23   60.40
  -5   1 -18  155.36   80.16
   5  -1  18   18.81   59.81
   5  -1  18   -2.51   43.53
  -1  -5  18   92.67   51.01
  -1  -5  18   67.39   29.65
   2   5 -18  260.87   86.32
   2   5 -18  238.22   55.77
  -5   2 -18  254.96   98.47
  -2  -5  18  272.91   65.46
  -2  -5  18  366.25   77.41
   5  -2  18  432.90   87.24
   3   5 -18  272.55   61.86
  -5   3 -18  -78.68   87.65
   3   5 -18  152.71   28.47
   5  -3  18    2.58   66.61
  -3  -5  18  147.08   50.18
  -3  -5  18  148.81   32.28
   4   5 -18   96.44   55.12
  -5   4 -18 -209.38   90.65
   4   5 -18   54.66   21.48
  -4  -5  18   63.54   23.17
   5  -4  18 -253.41   78.18
  -4  -5  18   69.84   44.53
  -5   5 -18   -6.51   80.61
   5  -5  18   -2.77   66.05
  -5   6 -18  -71.51   83.81
   5  -6  18    2.85   70.78
  -4   6 -18  -36.88   72.05
  -4   6 -18   -2.52   35.80
   4  -6  18   88.25   35.23
   4  -6  18  -35.62   69.12
  -3   6 -18  350.75  127.03
  -3   6 -18  668.29   87.14
   3  -6  18  608.61  118.64
   3  -6  18  632.20   95.40
  -2   6 -18  -47.52   36.53
   2  -6  18  -20.77   36.45
  -1   6 -18  273.83   50.54
   6   1 -18  175.62   59.87
   1  -6  18  591.62   87.43
   1  -6  18  336.98   58.80
   0   6 -18  -70.70   67.86
   0   6 -18   18.08   25.27
   6   0 -18   24.95   27.89
   0  -6  18   51.58   31.56
   6   0  18   67.78   49.68
   0  -6  18  274.46   66.15
   1   6 -18   82.75   46.79
  -6   1 -18  374.17  111.20
   1   6 -18  318.19   81.58
   6  -1  18  506.45   85.94
  -1  -6  18  455.24   79.41
  -1  -6  18  200.77   54.82
   6  -1  18  201.21   66.07
   2   6 -18    9.19   58.53
  -6   2 -18 -140.05   90.46
   2   6 -18   -3.50   23.60
  -2  -6  18   89.56   26.99
   6  -2  18   23.17   43.26
   6  -2  18 -139.57   72.03
  -2  -6  18   84.10   56.37
   3   6 -18  397.23   78.80
  -6   3 -18  307.29  129.35
   3   6 -18  393.01  112.77
  -3  -6  18  379.57  107.35
  -3  -6  18  529.38   92.36
   6  -3  18   70.25  115.93
   6  -3  18  550.17   99.01
   4   6 -18    2.94   21.30
   4   6 -18   62.22   56.92
  -6   4 -18   97.48   87.35
   6  -4  18   72.73   43.35
  -4  -6  18   70.83   51.30
   6  -4  18    2.81   66.73
  -4  -6  18   51.84   21.58
  -6   5 -18   34.50   88.34
  -6   5 -18    2.76   40.05
   6  -5  18  141.32   41.98
   6  -5  18    2.91   69.09
  -6   7 -18    2.81   41.11
   6  -7  18    2.18   37.96
  -4   7 -18  -12.70   82.26
   4  -7  18    2.84   67.93
  -3   7 -18  -26.77   34.03
  -3   7 -18   24.40   73.54
   3  -7  18   -3.84   34.16
   3  -7  18    2.71   69.31
  -2   7 -18  251.51   96.43
  -2   7 -18  284.84   58.55
   2  -7  18  289.47   62.64
   2  -7  18  245.53   90.16
  -1   7 -18  -64.67   74.02
  -1   7 -18   19.75   30.80
   7   1 -18    6.02   33.19
   1  -7  18    6.95   30.05
   1  -7  18   12.63   59.75
   0   7 -18  -33.18   30.36
   7   0 -18    5.59   30.04
   0   7 -18  -70.21   69.34
   0  -7  18    4.90   28.23
   0  -7  18   12.35   57.73
   7   0  18  -89.82   50.43
   1   7 -18    1.94   29.51
   1   7 -18   31.00   65.71
  -7   1 -18   22.65   86.69
  -1  -7  18   19.33   57.43
   7  -1  18    2.80   47.04
  -1  -7  18    1.55   26.93
   7  -1  18    2.92   66.70
   2   7 -18  231.00   86.18
  -7   2 -18  216.86  106.36
   2   7 -18  295.07   51.44
   7  -2  18  275.33   87.65
   7  -2  18  306.94   72.93
  -2  -7  18  327.89   84.50
  -2  -7  18  322.40   59.40
   3   7 -18  116.09   62.11
   3   7 -18    9.93   23.28
  -7   3 -18  -35.51   89.38
  -3  -7  18   36.86   57.87
   7  -3  18  -42.52   44.77
   7  -3  18   -2.82   66.92
  -3  -7  18    4.07   23.36
   4   7 -18   28.80   24.03
  -7   4 -18  135.43   98.30
   7  -4  18   -2.56   41.79
   7  -4  18   20.61   73.43
  -4  -7  18   94.80   24.63
  -4  -7  18   28.87   56.59
  -7   6 -18   -2.93   41.66
   7  -6  18  -37.18   41.75
  -7   7 -18   44.55   93.53
  -7   7 -18    2.95   46.98
   7  -7  18    3.24   81.44
   7  -7  18   33.95   40.40
  -7   8 -18  -33.03   45.66
  -7   8 -18   -3.82  102.17
   7  -8  18  -66.79   40.24
   7  -8  18   -3.35   81.55
  -6   8 -18 -106.18   90.11
   6  -8  18  104.13   77.74
   6  -8  18   25.78   37.47
  -5   8 -18    2.75   36.74
  -5   8 -18   -3.53   63.96
   5  -8  18    2.07   36.30
   5  -8  18   -2.98   67.59
  -3   8 -18  -19.96   84.27
   3  -8  18    2.68   62.80
   8   2 -18    3.17   25.20
  -2   8 -18   -3.24   78.82
   8   2 -18    6.79   40.05
  -2   8 -18  -23.83   33.63
   2  -8  18  114.82   29.91
   2  -8  18    2.58   61.67
  -1   8 -18  110.97   32.97
   8   1 -18   36.90   38.84
  -1   8 -18   28.32   81.91
   1  -8  18  134.25   59.41
  -8  -1  18   23.56   32.10
   1  -8  18  106.25   33.37
   0   8 -18   33.38   74.44
   0   8 -18   -2.13   30.18
   8   0 -18    3.20   34.45
   0  -8  18  -32.08   29.66
   8   0  18   18.41   50.87
   0  -8  18  -16.95   59.08
  -8   1 -18  112.26   97.01
   1   8 -18    2.91   73.28
   8  -1 -18   58.01   35.84
   1   8 -18   30.10   30.46
  -1  -8  18   46.38   27.13
   8  -1  18   45.85   72.14
  -1  -8  18  -14.23   60.96
   8  -1  18  178.43   54.60
   2   8 -18   -3.74   25.56
   2   8 -18 -120.79   70.67
  -8   2 -18 -191.90  101.59
  -2  -8  18   37.29   57.97
   8  -2  18 -111.61   71.71
  -2  -8  18  -14.98   25.15
  -8   3 -18  -15.06   96.03
   3   8 -18   42.30   25.74
   3   8 -18   66.38   67.12
  -3  -8  18   69.53   25.39
   8  -3  18   76.60   69.90
  -3  -8  18  114.80   60.94
  -4  -8  18   80.73   55.40
  -4  -8  18    9.65   23.19
  -8   5 -18  -60.94   44.67
   8  -5  18    5.10   42.92
  -8   6 -18    3.07   41.06
  -8   6 -18  -83.69  101.82
   8  -6  18   -3.27   83.65
   8  -6  18    4.83   40.13
  -8   7 -18    3.08   47.01
  -8   7 -18  -11.94  108.88
   8  -7  18    2.34   38.99
   8  -7  18   -3.39   86.79
  -8   8 -18   28.29   98.17
  -8   8 -18    3.13   44.30
   8  -8  18   42.34   90.86
   8  -8  18   59.91   43.42
  -8   9 -18   -3.18   46.07
  -8   9 -18    4.13   99.96
   8  -9  18    4.73   41.17
   8  -9  18  -17.97   86.99
  -7   9 -18    6.12   43.84
  -7   9 -18  -12.02  103.29
   7  -9  18    2.29   37.93
   7  -9  18    3.36   78.64
  -6   9 -18   35.16   96.00
   6  -9  18    3.15   70.60
  -5   9 -18   30.81   98.84
  -5   9 -18   -2.82   40.77
   5  -9  18  -44.75   35.03
   5  -9  18   -2.96   71.00
  -4   9 -18   53.57   91.59
  -4   9 -18   -2.71   38.72
   4  -9  18   -2.80   66.32
   4  -9  18    2.06   33.73
  -3   9 -18   25.96   37.11
   3  -9  18   65.64   35.14
   9   2 -18   27.91   40.73
   9   2 -18   27.54   28.19
  -9  -2  18   42.75   32.04
   9   1 -18   39.68   29.05
   9   1 -18  -22.47   45.42
   1  -9  18    4.95   58.97
  -9  -1  18   41.65   31.80
   9   0 -18   -7.18   37.38
   0   9 -18   15.77   29.09
   0  -9  18  -26.28   30.14
   0  -9  18    7.19   59.50
  -9   1 -18   38.42  101.11
   9  -1 -18   33.62   36.05
   1   9 -18   75.34   31.42
  -1  -9  18   51.52   59.73
   9  -1  18 -112.25   72.55
  -1  -9  18   16.74   28.47
   2   9 -18   14.49   29.06
  -2  -9  18   50.24   26.86
  -2  -9  18   75.51   56.21
   3   9 -18    4.10   28.69
  -3  -9  18  -29.02   55.28
   9  -4  18    2.80   47.37
  -9   5 -18 -114.75  104.06
  -9   5 -18  -19.16   45.68
   9  -5  18  -74.38   45.99
   9  -5  18   -3.29   83.70
  -9   6 -18    3.21   49.01
  -9   6 -18   38.21  106.24
   9  -6  18    3.44   83.81
   9  -6  18 -137.61   45.31
  -9   7 -18  -60.41  105.28
  -9   7 -18  -19.32   48.44
   9  -7  18    2.41   43.06
   9  -7  18   56.51   90.81
  -9   8 -18    3.26   43.13
  -9   8 -18   29.94  112.86
   9  -8  18    2.37   39.98
   9  -8  18   -7.44   93.12
  -9   9 -18    3.30   47.34
  -9   9 -18  -34.53  112.49
   9  -9  18  157.46   99.25
   9  -9  18    2.44   40.78
  -9  10 -18  205.72   49.22
  -9  10 -18  -57.00  119.82
   9 -10  18   -3.89   92.93
   9 -10  18 -158.30   43.23
  -8  10 -18    3.31   46.78
  -8  10 -18  -55.65  104.89
   8 -10  18    3.62   90.25
   8 -10  18   -2.43   39.63
  -7  10 -18    3.20   43.73
  -7  10 -18  -80.81  100.26
   7 -10  18   54.11   78.61
   7 -10  18    7.08   37.74
  -6  10 -18    4.27   98.28
   6 -10  18  -41.22   77.35
  -5  10 -18   -2.97   37.44
   5 -10  18    3.00   70.46
   5 -10  18    2.21   38.77
  -4  10 -18   -2.87   39.15
   4 -10  18    6.40   37.78
   4 -10  18   -8.56   69.47
  -3  10 -18    2.77   40.90
   3 -10  18    2.07   38.35
   3 -10  18    2.74   65.72
  -2  10 -18  -16.05   38.11
  10   2 -18  -20.39   31.00
  10   2 -18  -76.18   48.17
 -10  -2  18  -28.14   32.80
   2 -10  18  -34.19   65.28
   2 -10  18   14.06   33.47
  10   1 -18   -2.07   44.03
  10   1 -18  -30.24   30.34
  -1  10 -18   44.02   35.27
   1 -10  18   58.53   30.94
 -10  -1  18   -4.66   35.49
  10   0 -18   23.67   41.37
 -10   0  18    5.57   39.88
  10  -1 -18  -19.12   41.77
  -1 -10  18   -2.45   60.88
  -2 -10  18 -140.02   60.62
  10  -2  18    3.21   54.75
 -10   3 -18  736.30  116.02
  -3 -10  18  368.91   68.77
 -10   4 -18    3.29   50.85
 -10   4 -18  -63.25  106.42
  10  -4  18   -3.27   78.58
  10  -4  18  -71.92   48.53
 -10   5 -18    4.34  112.27
 -10   5 -18    3.33   48.72
  10  -5  18   27.39   86.81
  10  -5  18   81.35   47.96
 -10   6 -18  125.92  113.16
 -10   6 -18  -16.68   49.92
  10  -6  18   -2.58   42.89
  10  -6  18    3.59   85.21
 -10   7 -18   83.43  114.28
 -10   7 -18  -16.73   49.18
  10  -7  18    3.71   99.07
  10  -7  18  -17.27   40.78
 -10   8 -18   73.40  110.79
 -10   8 -18    6.76   47.59
  10  -8  18   17.06   43.12
  10  -8  18  -42.71   90.82
 -10   9 -18    3.42   47.22
 -10   9 -18  -27.49  118.81
  10  -9  18   28.40   92.28
  10  -9  18   -2.51   45.05
 -10  10 -18  -45.57  111.40
 -10  10 -18    3.55   49.64
  10 -10  18   15.52   45.98
  10 -10  18   -4.18   98.72
 -10  11 -18   -3.85   49.60
 -10  11 -18    4.53  118.68
  10 -11  18   -2.74   45.66
  10 -11  18   -4.23  101.41
  -9  11 -18   -3.72   49.18
  -9  11 -18   13.38  108.39
   9 -11  18    3.95   90.49
   9 -11  18   50.58   43.59
  -8  11 -18    3.60   49.63
  -8  11 -18   -9.00  109.27
   8 -11  18    2.58   42.52
   8 -11  18    3.68   88.62
  -7  11 -18    3.48   48.73
   7 -11  18   -2.51   42.19
   7 -11  18   72.98   79.30
   6 -11  18   65.85   77.19
  -5  11 -18  -39.36   44.87
   5 -11  18   18.91   71.38
   5 -11  18    2.37   39.96
  -4  11 -18    3.21   48.16
   4 -11  18   -3.07   75.33
   4 -11  18    2.30   36.97
  11   3 -18   -2.09   37.77
  -3  11 -18    3.14   43.02
   3 -11  18  -26.92   73.07
  11   2 -18   -2.05   33.04
  -2  11 -18   -3.10   42.34
 -11  -2  18   -2.85   29.07
 -11  -2  18  -21.67   37.66
   2 -11  18  -49.87   68.31
  11   1 -18   50.33   34.67
 -11  -1  18   45.32   40.94
   1 -11  18   29.10   75.01
   0 -11  18   11.35   67.49
  11   0  18   10.33   58.70
 -11   1 -18  160.14  107.87
  11  -1  18   96.34   61.78
 -11   2 -18   13.85  112.30
  11  -2  18   -3.36   57.99
  11  -2  18 -253.45   80.77
 -11   3 -18  -26.80  109.28
  11  -3  18 -123.63   59.83
  11  -3  18   -3.28   80.52
 -11   4 -18    3.43   49.86
 -11   4 -18   -4.46  110.45
  11  -4  18  -20.12   84.77
  11  -4  18  -32.76   52.85
 -11   5 -18  -54.68  113.34
 -11   5 -18    3.47   50.95
  11  -5  18 -269.31   87.83
  11  -5  18    2.77   49.18
 -11   6 -18    6.92   51.86
 -11   6 -18   23.90  122.93
  11  -6  18   90.09   47.77
  11  -6  18  -29.59   90.83
 -11   7 -18    6.93   48.77
 -11   7 -18   29.75  126.19
  11  -7  18    3.88   90.49
  11  -7  18  -35.22   46.55
 -11   8 -18   38.18   49.92
 -11   8 -18   44.66  126.95
  11  -8  18    2.49   42.40
  11  -8  18   80.78  102.08
 -11   9 -18  -81.04   54.07
 -11   9 -18   68.48  123.31
  11  -9  18   59.98  105.70
  11  -9  18   -2.58   40.32
 -11  10 -18   14.36  116.49
 -11  10 -18    3.67   52.92
  11 -10  18    2.64   43.01
  11 -10  18   -4.47  111.76
 -11  11 -18    3.99   55.25
 -11  11 -18   56.04  121.99
  11 -11  18 -121.08   50.51
  11 -11  18   -4.58  115.64
 -11  12 -18  -77.11  113.87
  11 -12  18    4.63  113.03
 -10  12 -18 -184.79  109.20
  10 -12  18  130.22  105.99
  -9  12 -18   41.24  109.64
   9 -12  18   -4.06   93.59
  12   3 -18   41.59   52.40
 -12  -3  18   -2.64   34.73
  12   2 -18  158.12   37.53
  12   2 -18   75.95   52.57
 -12  -2  18  156.22   42.05
 -12  -2  18    3.11   32.58
  12   1 -18   43.09   36.38
  12   1 -18    9.82   52.82
 -12  -1  18  -71.89   40.57
  12   0 -18   56.04   41.37
  12   0 -18    2.41   52.70
  12   0  18  -56.63   63.43
 -12   0  18   24.41   44.22
  12  -1 -18   11.60   47.72
 -12   1 -18   87.67  113.99
  12  -1  18    3.51   62.31
 -12   2 -18   24.39  122.07
  12  -2  18  131.50   85.08
  12  -2  18 -179.77   64.73
 -12   3 -18   98.43  121.37
  12  -3  18   -3.17   56.55
  12  -3  18  -77.85   83.72
 -12   4 -18  -79.64  120.81
 -12   4 -18    3.55   54.08
  12  -4  18  -62.67   54.94
  12  -4  18  -54.87   80.45
 -12   5 -18   -7.19   51.57
 -12   5 -18   -9.58  121.40
  12  -5  18  -36.39   45.36
  12  -5  18   10.81   87.79
 -12   6 -18   -3.57   55.81
 -12   6 -18  -15.07  136.44
  12  -6  18 -160.28   49.87
  12  -6  18    3.78   95.10
 -12   7 -18   -3.57   53.32
 -12   7 -18 -211.68  132.28
  12  -7  18    4.03  102.50
  12  -7  18 -139.54   48.18
 -12   8 -18   -5.44  136.06
 -12   8 -18    3.57   49.50
  12  -8  18  -51.57   42.55
  12  -8  18   38.01  105.72
 -12   9 -18    3.60   52.19
 -12   9 -18  -26.72  138.96
  12  -9  18   26.32   41.95
  12  -9  18    4.46  101.88
 -12  10 -18   18.89   51.33
 -12  10 -18  -77.70  133.62
  12 -10  18  -23.55  119.00
  12 -10  18    8.12   48.17
 -12  11 -18  -12.45   55.90
 -12  11 -18 -138.30  130.94
  12 -11  18    2.88   51.44
  12 -11  18  -53.92  124.75
 -12  12 -18   65.60  119.99
  12 -12  18    5.02  119.36
  13   3 -18   27.53   39.00
  13   3 -18   52.62   55.79
 -13  -3  18   26.18   36.92
 -13  -3  18  -63.16   46.23
  13   2 -18   60.23   35.14
  13   2 -18  -71.35   56.72
 -13  -2  18   27.26   44.52
 -13  -2  18   -3.39   37.20
  13   1 -18   83.28   57.87
  13   1 -18    2.62   37.56
 -13  -1  18   -9.22   45.17
  13   0 -18  -57.63   43.54
  13   0 -18  -74.42   54.47
  13   0  18   17.81   57.94
 -13   0  18   33.10   50.39
  13  -1 -18   17.92   56.07
 -13   1  18   27.18   54.42
  13  -1  18  -45.79   62.02
 -13   2 -18   20.50  134.36
  13  -2 -18    2.58   54.76
  13  -2  18 -179.93   89.39
  13  -2  18   -3.35   59.26
 -13   3 -18    4.92  128.87
  13  -3  18   10.43   86.36
  13  -3  18 -156.63   57.93
 -13   4 -18    3.67   58.98
 -13   4 -18  -92.86  133.58
  13  -4  18    3.48   88.88
  13  -4  18  -89.47   58.39
 -13   5 -18    5.01  126.70
 -13   5 -18   -7.40   56.88
  13  -5  18   58.04   86.87
  13  -5  18  -69.33   48.88
 -13   6 -18 -152.56  139.64
 -13   6 -18   18.32   53.00
  13  -6  18    2.65   45.39
  13  -6  18  -27.18   97.24
 -13   7 -18  -28.10  146.90
 -13   7 -18    3.65   54.17
  13  -7  18 -271.73  101.78
  13  -7  18  -10.17   43.75
 -13   8 -18  -82.40  160.21
 -13   8 -18  -54.86   51.73
  13  -8  18   18.28   48.76
  13  -8  18   22.01  104.48
 -13   9 -18 -136.53  158.36
 -13   9 -18    3.69   56.02
  13  -9  18  -87.92  124.36
  13  -9  18 -124.53   50.09
 -13  10 -18   27.21   57.10
 -13  10 -18  -11.38  146.78
  13 -10  18   -2.76   46.10
  13 -10  18   -4.94  123.42
 -13  11 -18    4.30   55.21
 -13  11 -18   53.82  140.20
  13 -11  18   -5.19  134.00
 -13  12 -18  159.63  132.50
  13 -12  18    5.38  133.90
  14   3 -18  -86.41   47.16
  14   3 -18  -68.82   59.81
 -14  -3  18   10.93   40.95
 -14  -3  18  -13.68   53.62
  14   2 -18   27.91   44.44
  14   2 -18  -30.34   60.81
 -14  -2  18  -85.45   51.04
 -14  -2  18  -62.51   39.92
  14   1 -18   38.70   63.46
  14   1 -18  -23.05   42.10
 -14  -1  18    3.44   50.07
 -14  -1  18  -22.03   42.80
  14   0 -18  -51.24   65.69
  14   0 -18  -44.74   39.37
 -14   0  18   39.92   52.38
  14  -1 -18   14.10   59.84
 -14   1  18   70.01   59.16
  14  -2 -18    2.83   65.18
 -14   2 -18  -42.88  124.86
 -14   3 -18    3.68   52.60
 -14   3 -18   66.65  120.93
  14  -3  18   53.58   82.05
  14  -3  18  -40.40   54.18
 -14   4 -18   -5.06  131.89
 -14   4 -18    3.78   60.02
  14  -4  18   28.89   52.06
  14  -4  18  -46.11   82.24
 -14   5 -18   26.05  142.09
 -14   5 -18   -3.77   56.35
  14  -5  18    3.65   88.02
  14  -5  18    2.75   45.40
 -14   6 -18   -3.74   53.06
 -14   6 -18  -60.49  142.19
  14  -6  18  -28.65   45.74
  14  -6  18  105.24   98.53
 -14   7 -18    3.72   53.40
 -14   7 -18  207.22  154.26
  14  -7  18 -123.14   46.13
  14  -7  18    4.16  101.75
 -14   8 -18 -183.67  165.99
 -14   8 -18    3.70   50.69
  14  -8  18 -356.18  120.31
  14  -8  18   47.24   47.61
 -14   9 -18    3.77   53.45
 -14   9 -18   13.13  164.51
  14  -9  18   21.40   46.10
  14  -9  18    4.82  115.24
 -14  10 -18    6.39  161.61
 -14  10 -18    3.99   55.04
  14 -10  18    5.12  125.09
  14 -10  18   16.86   47.81
 -14  11 -18  -66.99   61.31
 -14  11 -18  -72.25  155.67
  14 -11  18   -5.47  137.45
 -14  12 -18  104.52  142.46
  14 -12  18    5.73  137.99
  15   4 -18   55.55   66.79
  15   3 -18  -62.24   62.94
  15   3 -18   52.70   46.54
 -15  -3  18  -44.34   43.71
 -15  -3  18   19.38   61.47
  15   2 -18   27.10   64.79
  15   2 -18  -40.26   49.25
 -15  -2  18  -19.30   55.32
 -15  -2  18   32.13   44.14
  15   1 -18   31.82   47.32
  15   1 -18  -56.32   62.29
 -15  -1  18   53.98   59.62
 -15  -1  18  -31.08   42.36
  15   0 -18  -58.90   50.85
  15   0 -18   21.05   67.99
 -15   0  18   -8.04   58.28
  15  -1 -18  -21.75   68.91
 -15   1  18   40.07   63.19
  15  -2 -18    3.13   68.24
  16   4 -18 -140.11   73.37
  16   4 -18 -149.49   57.59
  16   3 -18 -131.94   74.44
  16   3 -18   10.32   50.69
 -16  -3  18  -49.24   51.32
 -16  -3  18   91.81   70.68
  16   2 -18 -123.76   62.61
 -16  -2  18  -30.70   51.97
 -16  -2  18  -91.46   70.73
  16   1 -18  454.04   92.57
  16   1 -18  271.56   75.19
 -16  -1  18   62.08   60.43
 -16  -1  18  125.44   81.67
  16   0 -18  440.57   85.86
 -16   0  18   63.18   74.49
 -16   0  18  255.10   91.17
  16  -1 -18  381.02   80.44
  16  -1 -18  416.64   89.11
 -16   1  18  278.55   88.60
  16  -2 -18  -93.51   80.18
  17   4 -18   37.11   56.62
  17   4 -18  -10.55   76.13
 -17  -4  18   63.88   80.67
 -17  -4  18   15.19   53.29
  17   3 -18 -146.71   76.71
  17   3 -18    3.80   55.76
 -17  -3  18  -39.24   78.48
 -17  -3  18   68.69   55.91
  17   2 -18   45.90   58.93
  17   2 -18  -17.52   79.06
 -17  -2  18  -33.19   53.77
 -17  -2  18 -107.81   74.17
  17   1 -18  176.80   77.41
  17   1 -18   47.02   57.88
 -17  -1  18 -150.82   74.46
 -17  -1  18  -35.58   51.31
  17   0 -18   19.98   58.50
  17   0 -18   61.63   76.06
 -17   0  18   45.78   44.64
 -17   0  18   60.14   75.09
  17  -1 -18   49.52   79.05
  17  -1 -18   -4.23   61.94
 -17   1  18   86.74   76.61
  17  -2 -18  -78.93   84.44
  18   4 -18  -73.12   83.16
  18   4 -18  -64.58   61.02
 -18  -4  18  -16.92   63.97
 -18  -4  18  -65.11   84.46
  18   3 -18   33.90   80.90
  18   3 -18 -109.51   60.74
 -18  -3  18  -64.99   59.55
 -18  -3  18  -43.68   87.68
  18   2 -18 -172.49   81.05
  18   2 -18   -8.46   62.25
 -18  -2  18   99.06   84.99
 -18  -2  18   15.34   56.65
  18   1 -18  -56.62   63.97
  18   1 -18   59.48   83.19
 -18  -1  18   27.29   86.18
 -18  -1  18   52.72   52.89
  18   0 -18    4.43   62.55
 -18   0  18  107.02   86.59
 -18   0  18   31.00   50.67
  18  -1 -18    4.68   66.01
 -18   1  18 -103.10   89.68
 -18   1  18   16.99   48.80
   0   1 -19  352.65  112.25
   0  -1  19  451.51  107.41
   0  -1  19  501.76   93.63
  -1   1 -19   -6.07   63.80
   1   1 -19  -14.26   60.74
   1  -1  19   15.57   57.08
   1  -1  19   31.49   41.34
  -1  -1  19    2.36   38.64
  -1   2 -19   53.61   71.34
   1  -2  19   51.81   34.81
   1  -2  19   -6.97   50.72
  -2  -1  19   11.55   39.99
   0   2 -19  -43.31   63.75
   0  -2  19   14.79   34.28
   0  -2  19    9.01   50.93
  -2   1 -19   37.62   71.26
   1   2 -19   26.05   60.26
  -1  -2  19    8.82   49.89
   2  -1  19    5.25   56.58
   2  -1  19   14.76   39.25
  -1  -2  19   -2.07   32.77
   2   2 -19   -5.01   58.22
  -2   2 -19   -2.95   68.44
  -2  -2  19  -20.37   34.49
   2  -2  19  -50.68   53.56
  -2  -2  19   45.72   49.62
   2  -2  19   71.15   39.84
   3   2 -19  650.85  123.10
  -2   3 -19  563.31  134.05
   2  -3  19  484.90  115.29
  -3  -2  19  467.41  116.57
  -3  -2  19  545.50  111.83
   2  -3  19  649.72  104.39
  -1   3 -19  128.63   66.83
   1  -3  19   81.51   54.06
   1  -3  19   48.39   37.28
  -3  -1  19   24.70   37.61
   0   3 -19  278.50   70.46
   0  -3  19  113.27   45.53
   0  -3  19  122.89   55.61
   1   3 -19   54.49   61.00
  -3   1 -19  153.11   78.85
  -1  -3  19    4.11   49.27
   3  -1  19   42.72   41.63
   3  -1  19   72.59   65.73
  -1  -3  19   49.92   36.19
   2   3 -19  556.52  124.31
  -3   2 -19  664.19  132.61
  -2  -3  19  325.96  110.78
  -2  -3  19  615.10  109.23
   3  -2  19  507.49  118.04
   3  -2  19  491.93  104.68
   3   3 -19 -144.30   56.84
  -3   3 -19   39.30   72.76
  -3  -3  19    7.44   30.79
   3  -3  19  -24.93   60.85
  -3  -3  19   11.41   45.30
   3  -3  19   -8.99   37.70
   4   3 -19  632.24  136.83
  -4  -3  19  403.82  129.43
  -4  -3  19  503.57  124.92
   3  -4  19  695.59  118.19
  -2   4 -19   83.78   78.13
   4   2 -19  174.59   58.68
  -4  -2  19  150.77   41.70
   2  -4  19  182.83   44.66
   2  -4  19   49.43   68.27
  -1   4 -19  464.44  112.55
   1  -4  19  447.55   96.39
  -4  -1  19  450.82   92.07
   1  -4  19  390.07   84.44
   0   4 -19  -47.04   62.69
  -4   0  19   30.59   69.60
   0  -4  19  -55.98   53.77
   0  -4  19  -14.09   35.56
  -4   1 -19  391.39  116.72
   1   4 -19  306.46  105.82
  -1  -4  19  388.52   94.26
   4  -1  19  271.61  101.12
  -1  -4  19  501.94   85.24
   4  -1  19  423.99   85.24
  -4   2 -19   -3.25   83.57
   2   4 -19   77.07   63.02
   4  -2  19  108.32   46.06
  -2  -4  19  132.23   53.22
   4  -2  19   20.97   75.57
  -2  -4  19  130.74   37.28
   3   4 -19  645.94  102.41
   3   4 -19  702.43  139.12
   4  -3  19  544.61  117.65
  -3  -4  19  636.32  121.16
  -3  -4  19  519.19  126.55
   4  -3  19  824.08  137.21
  -4   4 -19  -19.22   74.44
   4   4 -19   23.58   22.63
   4   4 -19    2.05   50.92
  -4  -4  19   -9.28   27.51
   4  -4  19  -16.35   67.22
   4  -4  19  -36.75   41.78
  -4  -4  19   22.71   44.82
  -4   5 -19  125.26   98.81
  -4   5 -19    2.66   47.55
   4  -5  19   87.56   74.64
   4  -5  19  216.07   49.29
  -3   5 -19  563.68   78.16
  -3   5 -19  247.31  118.22
   3  -5  19  406.16  103.68
   3  -5  19  505.15   85.30
  -2   5 -19  433.33   70.17
   2  -5  19  461.38   95.79
   2  -5  19  443.66   77.96
  -1   5 -19   83.55   39.85
  -1   5 -19  417.65   83.15
   1  -5  19  173.71   43.40
   1  -5  19   72.04   65.05
   0   5 -19  418.77   76.29
   0  -5  19  315.84   86.07
   0  -5  19  392.28  101.80
   1   5 -19  137.55   36.31
   1   5 -19  371.67   75.03
  -5   1 -19  110.70   86.21
  -1  -5  19  107.29   39.89
  -1  -5  19   90.53   61.01
   5  -1  19  -45.94   75.19
   2   5 -19  576.20  100.89
  -5   2 -19  191.45  114.66
   2   5 -19  389.85   65.89
  -2  -5  19  400.96   77.29
  -2  -5  19  519.81   87.67
  -5   3 -19  215.12  120.68
   3   5 -19  361.42   69.57
   3   5 -19  466.06  105.77
  -3  -5  19  503.58   82.14
   5  -3  19  293.33  103.05
  -3  -5  19  219.75   92.60
   4   5 -19  131.89   34.35
  -5   4 -19  162.34   93.19
   4   5 -19  229.63   67.96
   5  -4  19   80.04   78.62
  -4  -5  19  202.12   39.82
  -4  -5  19  267.00   57.19
  -5   5 -19   -2.81   33.86
  -5   5 -19  -34.69   89.39
   5  -5  19    2.95   67.98
  -4   6 -19   26.82   85.19
  -4   6 -19   -2.68   35.48
   4  -6  19    2.88   71.99
  -3   6 -19   28.38   83.80
  -3   6 -19    5.09   40.29
   3  -6  19  171.71   41.95
   3  -6  19  168.74   71.04
  -2   6 -19  179.86  103.88
  -2   6 -19  265.38   60.99
   2  -6  19  438.85   69.47
   2  -6  19  418.46   93.17
  -1   6 -19   29.67   32.87
  -1   6 -19   45.76   70.80
   1  -6  19   25.97   62.88
   1  -6  19   32.94   34.55
   0   6 -19   10.75   29.48
   0   6 -19   27.37   65.71
   6   0 -19    2.46   25.77
   0  -6  19  -85.51   63.37
   0  -6  19    3.69   31.57
  -6   1 -19   52.66   86.38
   1   6 -19   72.28   31.33
   6  -1  19    2.98   66.77
  -1  -6  19  -34.00   62.49
  -1  -6  19   27.95   31.06
   6  -1  19   16.83   47.82
  -6   2 -19  296.13  115.34
   2   6 -19  313.99   90.80
   2   6 -19  378.25   58.74
  -2  -6  19  257.20   67.30
   6  -2  19  171.73   94.69
   6  -2  19  334.72   74.62
  -2  -6  19  401.40   83.29
   3   6 -19   87.80   30.31
   3   6 -19  207.87   64.71
  -6   3 -19  195.55   90.83
  -3  -6  19  113.95   32.44
   6  -3  19  143.48   47.70
   6  -3  19    2.87   70.59
  -3  -6  19   88.04   61.44
  -6   4 -19   32.07   92.17
  -4  -6  19  166.95   56.14
   6  -4  19   77.87   71.23
  -4  -6  19   81.99   26.38
   6  -6  19   50.33   41.66
  -6   7 -19    3.77   96.68
   6  -7  19   -3.25   85.43
  -5   7 -19   -2.84   40.10
   5  -7  19    4.50   37.54
  -3   7 -19   55.11   88.43
   3  -7  19   77.86   83.78
  -2   7 -19   12.23   38.77
  -2   7 -19    6.17   75.73
   2  -7  19   45.46   34.13
   2  -7  19  -11.17   69.83
  -1   7 -19   68.06   72.81
  -1   7 -19  113.79   35.59
   1  -7  19   20.59   34.96
   1  -7  19  155.05   68.07
   0   7 -19    2.84   70.00
   7   0 -19   15.22   29.03
   0   7 -19  -30.63   30.87
   0  -7  19   21.19   30.21
   0  -7  19   42.50   64.85
   1   7 -19   22.61   30.50
   1   7 -19  173.91   69.41
  -7   1 -19   83.54   93.55
  -1  -7  19   93.54   30.62
  -1  -7  19  111.88   66.04
   7  -1  19  -59.17   75.45
   7  -1  19   -2.94   49.02
   2   7 -19    7.62   27.70
  -7   2 -19   11.47   91.54
   2   7 -19  -12.95   67.56
  -2  -7  19  -15.25   66.47
   7  -2  19   -2.85   37.75
   7  -2  19    2.99   72.67
  -2  -7  19   49.22   28.76
   3   7 -19  189.06   38.48
  -7   3 -19  143.17  104.80
   3   7 -19  217.77   73.21
   7  -3  19  194.83   83.36
  -3  -7  19  202.47   43.35
  -3  -7  19  248.28   73.98
  -4  -7  19   10.61   23.80
  -7   5 -19   40.25   46.41
   7  -5  19    2.62   44.38
  -7   6 -19    8.00  105.38
  -7   6 -19    3.12   48.03
   7  -6  19   72.50   46.42
   7  -6  19  -13.26   83.12
  -7   7 -19  356.29  115.09
  -7   7 -19    3.13   70.73
   7  -7  19  149.22  115.29
  -7   8 -19 -122.06  102.08
  -7   8 -19   28.57   46.44
   7  -8  19  130.92   42.83
   7  -8  19    3.51   92.52
  -6   8 -19  -57.83   98.15
   6  -8  19   63.45   84.22
  -5   8 -19  -89.07   90.18
  -5   8 -19    2.90   40.54
   5  -8  19   -6.51   37.87
   5  -8  19    3.18   77.18
  -4   8 -19    2.77   39.40
   4  -8  19  121.31   73.48
   4  -8  19    2.09   34.59
  -2   8 -19   -3.35   81.91
  -1   8 -19   92.61   31.58
  -1   8 -19   12.96   74.98
   1  -8  19  -59.78   66.13
   0   8 -19  -12.46   74.77
   8   0 -19   -9.53   33.61
   0   8 -19    4.49   32.24
   0  -8  19   53.12   66.30
   0  -8  19   41.08   30.56
   1   8 -19  -25.14   25.44
   1   8 -19   29.73   78.98
  -1  -8  19   -1.69   30.40
  -1  -8  19    7.82   62.77
   2   8 -19   56.21   70.27
   2   8 -19   44.98   28.31
  -2  -8  19   31.71   27.49
  -2  -8  19   59.18   63.82
   3   8 -19  165.58   70.53
   3   8 -19  -16.33   26.82
  -3  -8  19   22.16   26.46
  -3  -8  19   -2.53   65.97
   8  -4  19  -42.06   48.43
  -8   5 -19   -6.49   48.72
  -8   5 -19 -163.98  107.30
   8  -5  19    6.70   83.77
   8  -5  19    2.72   47.28
  -8   6 -19    3.28   47.01
  -8   6 -19 -101.97  129.51
   8  -6  19   75.00   43.34
   8  -6  19    3.49   92.79
  -8   7 -19    3.28   46.43
  -8   7 -19  -25.91  108.33
   8  -7  19    2.52   45.63
   8  -7  19   21.27   94.68
  -8   8 -19   17.15  111.35
  -8   8 -19    3.32   49.95
   8  -8  19   33.13   94.85
   8  -8  19    2.42   38.74
  -8   9 -19    3.38   44.24
  -8   9 -19   -4.36  102.61
   8  -9  19  -26.65   91.65
   8  -9  19    2.50   44.93
  -7   9 -19 -130.56  109.69
  -7   9 -19   22.70   47.39
   7  -9  19    2.42   39.56
   7  -9  19    3.58   84.89
  -6   9 -19  -69.42   97.84
   6  -9  19 -111.39   81.63
  -5   9 -19    2.98   39.99
  -5   9 -19  -67.95   95.25
   5  -9  19   -2.25   37.99
   5  -9  19    3.17   73.60
  -4   9 -19    2.84   40.54
  -4   9 -19    3.92  105.14
   4  -9  19   42.17   79.30
   4  -9  19   32.65   39.69
  -3   9 -19   -2.71   39.74
  -3   9 -19  -11.58  101.48
   3  -9  19   12.54   34.08
   3  -9  19    2.88   71.96
  -2   9 -19    2.59   37.86
   2  -9  19  -52.38   36.31
   9   1 -19   38.01   42.90
   0   9 -19  203.52   95.03
   9   0 -19   53.68   42.82
   0  -9  19  109.53   66.85
   1   9 -19  -77.82   87.75
   1   9 -19   44.14   31.77
   9  -1 -19   32.78   36.70
  -1  -9  19   88.61   30.24
   9  -1  19   -3.29   54.75
  -1  -9  19    2.55   65.77
   2   9 -19   91.30   80.63
   2   9 -19   -2.10   27.75
  -2  -9  19  -62.50   60.49
  -2  -9  19   21.63   27.45
   9  -2  19   -3.21   52.32
   3   9 -19   10.09   28.37
  -9   3 -19  156.40   98.16
   3   9 -19  -23.01   76.88
   9  -3  19    9.34   53.45
   9  -3  19  246.49   82.26
  -3  -9  19   90.74   63.84
  -3  -9  19   20.81   26.38
  -9   4 -19  249.36  112.60
   9  -4  19  151.47   56.02
   9  -4  19   73.70   96.98
  -9   5 -19    3.40   49.82
  -9   5 -19  -30.39  113.67
   9  -5  19   19.88   49.14
   9  -5  19    3.51   86.68
  -9   6 -19    3.43   51.38
  -9   6 -19  112.37  112.30
   9  -6  19  -51.04   44.84
   9  -6  19    3.64   88.11
  -9   7 -19  -92.44  111.05
  -9   7 -19   -3.43   48.18
   9  -7  19   48.58   98.02
   9  -7  19    2.60   46.62
  -9   8 -19  -54.94  116.77
  -9   8 -19   72.68   51.83
   9  -8  19    3.86   90.35
   9  -8  19    2.50   42.61
  -9   9 -19   -3.51   50.88
  -9   9 -19  -27.59  108.92
   9  -9  19    5.17   46.50
   9  -9  19  -28.07  101.59
  -9  10 -19   39.47   53.04
  -9  10 -19  -88.04  118.78
   9 -10  19   26.37   44.78
   9 -10  19    4.12  100.49
  -8  10 -19  -76.53  109.15
  -8  10 -19   -6.92   50.56
   8 -10  19    2.55   43.21
   8 -10  19    3.85   91.06
  -7  10 -19    3.33   48.51
  -7  10 -19  -22.19  110.07
   7 -10  19    7.19   87.17
   7 -10  19    2.47   41.80
  -6  10 -19  -30.89  112.04
   6 -10  19    3.39   83.02
  -5  10 -19   52.44   43.16
  -5  10 -19  115.87  108.62
   5 -10  19   -3.20   80.49
   5 -10  19    4.63   37.08
  -4  10 -19  -17.96  107.91
  -4  10 -19    2.97   42.11
   4 -10  19    2.24   35.87
   4 -10  19   -3.03   70.89
  -3  10 -19    2.85   41.61
  -3  10 -19  -45.21  102.46
   3 -10  19    2.17   36.82
   3 -10  19  -49.32   65.61
  -2  10 -19   -8.23   40.68
   2 -10  19    2.80   65.21
   2 -10  19  -10.42   35.03
  -1  10 -19    5.28   39.47
  10   1 -19   38.22   35.33
  10   1 -19   18.83   48.64
   1 -10  19 -229.73   70.43
 -10  -1  19  118.76   37.64
   1 -10  19   42.35   33.16
   0  10 -19  -17.80   37.58
  10   0 -19  -15.74   48.22
   0 -10  19 -103.36   36.74
  10  -1 -19   -1.87   34.91
 -10   1 -19   38.21  108.48
  10  -1  19 -268.05   88.72
  10  -1  19   13.91   61.00
 -10   2 -19   -4.59  110.94
  10  -2  19 -313.24   88.13
  -2 -10  19  -12.41   60.48
  10  -2  19 -122.94   63.63
 -10   3 -19   76.01  110.29
  -3 -10  19   -2.39   57.29
  10  -3  19   -3.37   78.31
  10  -3  19    3.28   58.11
 -10   4 -19  -40.33  113.25
  10  -4  19  -62.50   54.10
  10  -4  19    6.91   82.67
 -10   5 -19  -54.89  110.69
 -10   5 -19  -67.33   48.94
  10  -5  19  -50.27   53.56
  10  -5  19    3.65   88.02
 -10   6 -19    4.78  116.99
 -10   6 -19    3.58   54.01
  10  -6  19   -3.78   95.59
  10  -6  19   58.27   48.63
 -10   7 -19   71.62   51.47
 -10   7 -19   64.17  124.80
  10  -7  19    3.94   97.10
  10  -7  19  -47.98   44.84
 -10   8 -19    3.60   54.46
 -10   8 -19  -93.47  118.81
  10  -8  19  -24.23   99.88
  10  -8  19  -75.79   46.64
 -10   9 -19    3.62   47.10
 -10   9 -19  -34.08  123.00
  10  -9  19   42.64   45.76
  10  -9  19    8.44  108.79
 -10  10 -19    3.72   50.70
 -10  10 -19    9.62  117.09
  10 -10  19    8.80  108.81
  10 -10  19    2.72   46.86
 -10  11 -19   62.21  118.06
 -10  11 -19  -15.90   55.15
  10 -11  19    4.48  105.97
  10 -11  19  -14.27   50.80
  -9  11 -19    3.83   54.51
  -9  11 -19  160.24  115.22
   9 -11  19  121.16  101.43
   9 -11  19  -44.37   46.11
  -8  11 -19   37.60  121.50
  -8  11 -19    3.70   52.80
   8 -11  19    2.69   46.84
   8 -11  19  -70.43   97.17
  -7  11 -19  153.68  115.75
  -7  11 -19   28.60   50.95
   7 -11  19    2.60   43.47
   7 -11  19    3.68   87.32
  -6  11 -19  108.62  118.26
   6 -11  19    3.47   76.56
  -5  11 -19    3.34   48.35
   5 -11  19  -90.85   40.51
   5 -11  19   -3.31   78.18
  -4  11 -19   -3.24   43.15
   4 -11  19    3.17   76.57
   4 -11  19  -14.32   40.43
  -3  11 -19    3.15   43.88
   3 -11  19    3.06   68.50
   3 -11  19   -2.32   36.40
  -2  11 -19  -24.72   42.71
   2 -11  19    2.95   73.03
  -1  11 -19   15.18   39.95
   1 -11  19   -2.91   68.27
   0 -11  19    2.83   64.49
 -11   1 -19 -141.99  121.14
  11  -1 -19   45.88   44.23
  -1 -11  19   79.43   64.45
  11  -1  19 -151.24   63.73
 -11   2 -19  -63.14  118.86
  11  -2  19    3.54   83.25
  11  -2  19    3.54   60.24
 -11   3 -19   51.75  118.21
  11  -3  19   -3.38   58.89
  11  -3  19   -3.49   82.76
 -11   4 -19    3.60   54.06
 -11   4 -19  -28.33  124.48
  11  -4  19    7.11   87.87
  11  -4  19   99.07   58.54
 -11   5 -19    3.69   52.58
 -11   5 -19   48.25  127.30
  11  -5  19   -3.74   90.47
  11  -5  19    6.01   52.72
 -11   6 -19   -3.71   53.55
 -11   6 -19  105.63  136.77
  11  -6  19  -88.68   51.05
  11  -6  19    3.90   96.04
 -11   7 -19  325.94  147.02
 -11   7 -19    3.71   50.91
  11  -7  19    4.11  102.92
  11  -7  19   32.57   48.72
 -11   8 -19 -201.39   53.29
 -11   8 -19 -144.76  132.90
  11  -8  19    2.67   44.19
  11  -8  19   -4.25  108.43
 -11   9 -19  -68.19  138.85
 -11   9 -19    3.74   54.11
  11  -9  19    2.73   47.41
  11  -9  19    4.44  107.53
 -11  10 -19  -56.42  119.20
 -11  10 -19   -3.85   53.97
  11 -10  19  -18.56  117.92
  11 -10  19   69.85   47.21
 -11  11 -19    4.12   59.55
 -11  11 -19  139.10  134.01
  11 -11  19    2.94   48.58
  11 -11  19   -4.81  125.58
 -11  12 -19   -4.67   65.93
 -11  12 -19   -4.83  122.76
  11 -12  19   -4.93  117.45
 -10  12 -19  107.85   66.77
 -10  12 -19  176.81  128.93
  10 -12  19    4.57  121.51
  -9  12 -19    4.33   58.86
  -9  12 -19  159.72  121.74
   9 -12  19  -34.44  103.11
  -8  12 -19   50.24  124.93
  -8  12 -19   -4.19   57.05
   8 -12  19   -4.05  101.97
  -7  12 -19   -4.06   56.62
   7 -12  19    3.86   88.51
   6 -12  19    3.69   86.31
   5 -12  19  -57.24   83.77
  12   2 -19   39.31   33.76
  12   2 -19   79.91   53.88
  12   1 -19   49.03   38.41
  12   1 -19   81.90   56.64
 -12  -1  19   45.78   43.46
  12   0 -19  -62.44   55.44
 -12   0  19  -29.45   49.11
  12  -1 -19  -61.69   47.13
  12  -1  19  224.74   74.11
 -12   2 -19   15.36  121.59
  12  -2  19    3.67   86.74
  12  -2  19   21.66   64.20
 -12   3 -19    9.90  126.33
  12  -3  19    3.60   84.97
  12  -3  19  -81.76   58.89
 -12   4 -19  168.36  128.39
 -12   4 -19  -85.82   53.40
  12  -4  19   45.93   57.92
  12  -4  19    3.63   84.95
 -12   5 -19   -3.83   58.48
 -12   5 -19  268.40  152.69
  12  -5  19  -18.98  102.40
  12  -5  19    3.04   52.79
 -12   6 -19   -3.83   56.25
 -12   6 -19   47.76  136.93
  12  -6  19    4.04   96.93
  12  -6  19   -2.90   51.11
 -12   7 -19   33.51  140.68
 -12   7 -19   -3.83   56.05
  12  -7  19   12.74  101.61
  12  -7  19   16.48   48.69
 -12   8 -19  -34.41   55.92
 -12   8 -19    5.77  150.78
  12  -8  19   18.98   44.05
  12  -8  19   44.70  110.85
 -12   9 -19   19.27   56.73
 -12   9 -19   86.44  142.07
  12  -9  19  102.03  122.03
  12  -9  19   -2.79   45.42
 -12  10 -19  149.34  146.66
 -12  10 -19    3.97   58.46
  12 -10  19    9.77  136.04
  12 -10  19  168.77   55.98
 -12  11 -19  -21.30   59.45
 -12  11 -19    5.29  135.88
  12 -11  19  -81.59  129.91
  12 -11  19  -30.15   53.67
 -12  12 -19  140.07  125.88
  12 -12  19   -5.27  129.55
  13   2 -19  -20.75   58.48
  13   2 -19   15.31   40.76
 -13  -2  19   13.85   41.71
 -13  -2  19   18.30   47.43
  13   1 -19   75.20   39.87
  13   1 -19   31.50   57.42
 -13  -1  19   43.97   46.93
  13   0 -19  135.66   48.69
  13   0 -19  130.18   62.79
 -13   0  19   52.32   55.55
  13  -1 -19   27.77   56.14
  13  -1  19  -85.64   67.15
 -13   2 -19  -53.89  137.13
  13  -2  19    3.83   97.84
  13  -2  19    7.31   64.16
 -13   3 -19 -171.50  147.27
  13  -3  19    3.70   88.39
  13  -3  19    3.45   57.19
 -13   4 -19  -82.71  129.21
 -13   4 -19   -3.86   55.06
  13  -4  19  -29.20   54.19
  13  -4  19   29.65   93.04
 -13   5 -19    3.96   61.54
 -13   5 -19  -26.53  138.63
  13  -5  19 -103.87   94.37
  13  -5  19  126.97   56.95
 -13   6 -19   11.82   60.08
 -13   6 -19  -50.02  139.63
  13  -6  19  -57.63  105.86
  13  -6  19  -60.90   53.75
 -13   7 -19    3.94   54.54
 -13   7 -19  -29.47  146.61
  13  -7  19    8.67  110.57
  13  -7  19   38.48   49.31
 -13   8 -19   -3.92   54.67
 -13   8 -19  -80.38  155.29
  13  -8  19    4.64  110.00
  13  -8  19    2.79   48.12
 -13   9 -19   -3.92   57.01
 -13   9 -19  -44.09  166.28
  13  -9  19  -79.35   53.75
  13  -9  19 -340.68  143.90
 -13  10 -19 -133.75  162.43
 -13  10 -19    4.08   58.96
  13 -10  19    5.11  129.91
  13 -10  19   -2.90   50.92
 -13  11 -19   17.13  149.08
 -13  11 -19    4.41   60.46
  13 -11  19    6.15   51.00
  13 -11  19    5.39  144.78
 -13  12 -19  -26.72  141.37
  13 -12  19    5.61  140.04
  14   2 -19    2.82   41.54
  14   2 -19  111.92   61.14
 -14  -2  19  -71.13   43.19
 -14  -2  19   44.80   53.29
  14   1 -19    5.56   59.62
  14   1 -19   17.71   43.84
 -14  -1  19   45.31   52.37
 -14  -1  19   74.01   43.63
  14   0 -19  -62.24   47.51
  14   0 -19   22.70   65.55
 -14   0  19  -22.77   54.32
  14  -1 -19    2.78   58.52
  14  -1  19 -193.70   69.42
 -14   2 -19   39.28  138.72
  14  -2  19  -42.96   66.71
 -14   3 -19   37.85  128.38
 -14   3 -19   -3.80   55.79
  14  -3  19   16.88   60.07
  14  -3  19  -41.67   94.73
 -14   4 -19   -3.99   54.64
 -14   4 -19  -53.46  129.84
  14  -4  19  -26.40   92.18
  14  -4  19   15.81   56.03
 -14   5 -19   -4.05   55.57
 -14   5 -19   16.56  137.66
  14  -5  19  -50.70   50.83
  14  -5  19   19.38   94.29
 -14   6 -19  -75.43  144.17
 -14   6 -19    4.04   57.06
  14  -6  19    2.85   53.25
  14  -6  19    4.11  100.17
 -14   7 -19   80.77  172.91
 -14   7 -19   -4.01   63.08
  14  -7  19  763.49  139.12
  14  -7  19  293.94   68.51
 -14   8 -19  239.73  176.98
 -14   8 -19  -56.04   58.14
  14  -8  19   -2.80   46.53
  14  -8  19    4.75  122.15
 -14   9 -19   84.12   57.86
 -14   9 -19    6.91  187.74
  14  -9  19    5.10  127.16
  14  -9  19   11.33   48.44
 -14  10 -19   -4.19   56.80
 -14  10 -19 -335.14  179.96
  14 -10  19    5.37  126.49
  14 -10  19   41.16   50.06
 -14  11 -19    9.17   62.42
 -14  11 -19  127.90  168.58
  14 -11  19    5.67  139.09
  15   3 -19    3.02   66.72
  15   2 -19  -37.61   46.50
  15   2 -19   -9.14   65.81
 -15  -2  19  -35.07   59.18
 -15  -2  19  -12.26   46.48
  15   1 -19  -21.20   67.22
  15   1 -19    3.26   49.10
 -15  -1  19   74.36   45.24
 -15  -1  19   27.31   56.55
  15   0 -19    5.99   67.43
  15   0 -19   44.06   53.20
 -15   0  19   45.98   59.37
  15  -1 -19   61.40   67.72
 -15   1  19  -14.56   69.84
 -15   9 -19    4.08   58.20
 -15  10 -19   -4.29   60.92
  16   3 -19   42.74   74.51
  16   2 -19  -17.40   54.26
  16   2 -19  -13.01   73.70
 -16  -2  19   17.76   52.20
 -16  -2  19  -66.03   67.80
  16   1 -19    3.23   72.47
  16   1 -19    3.61   47.88
 -16  -1  19  -26.33   66.70
 -16  -1  19   12.54   49.37
  16   0 -19   89.32   59.18
  16   0 -19    3.18   69.12
 -16   0  19   19.60   43.92
 -16   0  19  -51.22   64.84
  16  -1 -19  -59.29   73.45
 -16   1  19  -47.71   69.24
  17   3 -19   35.39   79.05
  17   2 -19 -247.00   78.72
  17   2 -19  -38.67   60.68
 -17  -2  19   19.17   54.52
 -17  -2  19  -29.83   75.62
  17   1 -19  -28.05   63.30
  17   1 -19 -142.18   74.56
 -17  -1  19  -49.00   52.72
 -17  -1  19    9.91   73.78
  17   0 -19   27.71   75.63
  17   0 -19  -74.10   60.60
 -17   0  19   67.86   76.51
 -17   0  19  -49.60   45.40
  17  -1 -19   69.98   76.75
 -17   1  19  -52.85   81.16
  18   3 -19  -76.10   82.22
  18   3 -19   50.65   65.95
 -18  -3  19  -61.52   83.63
  18   2 -19   55.84   65.02
 -18  -2  19  -67.09   86.65
 -18  -2  19   72.01   56.63
  18   1 -19 -102.30   70.84
 -18  -1  19  -56.02   88.25
  18   0 -19  137.13   71.07
 -18   0  19  -23.55   92.09
   0   1 -20  -21.74   69.49
   0  -1  20    7.97   44.45
  -1   1 -20  151.00   73.74
  -1  -1  20   63.02   44.86
   1  -1  20   39.56   60.87
   1  -1  20   34.83   44.88
  -1   2 -20  -69.32   73.20
   1  -2  20   77.36   57.33
  -2  -1  20    5.15   44.15
   1  -2  20  -16.24   38.27
   0   2 -20  -49.22   67.63
   0  -2  20   24.96   39.02
   0  -2  20    9.71   57.75
  -2   1 -20  -89.88   78.34
   1   2 -20   61.19   67.89
  -1  -2  20   -8.95   39.96
   2  -1  20  -10.82   46.60
  -1  -2  20    2.37   51.63
   2  -1  20   11.36   62.07
  -2   2 -20   62.91   83.92
   2   2 -20  141.15   70.47
   2  -2  20  201.40   49.38
   2  -2  20   77.47   67.47
  -2  -2  20  185.53   48.32
  -2  -2  20  139.09   63.57
  -2   3 -20 -168.90   88.37
   3   2 -20  196.69   63.59
  -3  -2  20   39.07   37.13
   2  -3  20    2.29   40.14
  -3  -2  20   19.32   55.80
  -1   3 -20  462.41  104.22
   1  -3  20  313.62   91.36
  -3  -1  20  272.34   80.92
   1  -3  20  437.27   76.56
   0   3 -20  -11.16   74.06
   0  -3  20  -23.00   53.96
   0  -3  20    2.19   35.57
  -3   1 -20  410.78  111.63
   1   3 -20  347.22   97.45
  -1  -3  20  354.34   84.00
   3  -1  20  416.51   78.28
   3  -1  20  517.54   94.58
  -1  -3  20  168.88   75.00
  -3   2 -20 -105.18   82.02
   2   3 -20  -37.69   61.39
   3  -2  20  -13.43   69.18
  -2  -3  20   48.27   37.81
  -2  -3  20    6.36   49.25
   3  -2  20   41.63   43.09
  -3   3 -20  325.71  154.88
   3   3 -20  814.40  142.48
   3  -3  20  864.16  120.66
  -3  -3  20  532.40  131.86
   3  -3  20  705.69  133.20
  -3  -3  20  514.40  127.82
   4   3 -20   40.28   56.96
  -3   4 -20    3.23   74.84
   3  -4  20   47.10   40.45
  -4  -3  20    3.82   35.23
  -4  -3  20   -6.10   52.04
   3  -4  20   41.61   65.96
   4   2 -20  441.76   93.42
  -2   4 -20  369.24  109.77
   2  -4  20  317.52   97.59
   2  -4  20  401.28   78.80
  -4  -2  20  388.20   85.46
  -1   4 -20 -111.37   72.45
   1  -4  20  -17.64   60.63
  -4  -1  20    4.76   41.57
   1  -4  20   54.64   37.94
   0   4 -20  340.32   98.97
   0  -4  20  355.31   72.79
   0  -4  20  277.22   85.47
   1   4 -20 -145.67   66.49
  -4   1 -20   28.81   81.76
  -1  -4  20   20.92   34.94
  -1  -4  20  -17.99   54.57
   4  -1  20    8.36   46.58
   4  -1  20  -68.38   69.91
  -4   2 -20  327.56  116.71
   2   4 -20  292.48   98.19
  -2  -4  20  318.87   87.94
   4  -2  20  178.94   98.68
  -2  -4  20  454.35   81.03
   4  -2  20  471.98   80.86
  -4   3 -20  -33.93   86.13
   3   4 -20  -77.73   59.67
   4  -3  20  -77.81   66.94
  -3  -4  20   -3.97   47.79
   4  -3  20  -47.00   42.08
  -3  -4  20   -7.56   33.60
  -4   4 -20   17.01   91.61
  -4  -4  20  189.28   41.99
   4  -4  20  185.56   50.24
   4  -4  20    2.90   71.92
  -4  -4  20   78.69   51.77
  -4   5 -20   56.26   90.48
   4  -5  20    2.99   69.58
  -3   5 -20  150.44  101.24
  -3   5 -20   27.14   64.07
   3  -5  20  341.35   66.12
   3  -5  20  189.40   90.22
  -2   5 -20  356.81  111.69
  -2   5 -20  321.77   72.59
   2  -5  20  384.40   77.74
   2  -5  20  468.05   97.74
  -1   5 -20  106.43  108.17
  -1   5 -20  367.62   72.34
   1  -5  20  435.44   99.38
   1  -5  20  456.32   81.24
   0   5 -20   55.18   71.74
   0   5 -20   27.48   33.27
   0  -5  20  -21.08   36.51
   0  -5  20   12.62   61.47
   1   5 -20  425.03   70.14
  -5   1 -20  399.97  128.04
   1   5 -20  365.47  105.81
   5  -1  20   86.07  105.52
  -1  -5  20  321.56   94.50
  -1  -5  20  526.75   81.64
   2   5 -20  519.56  101.53
   2   5 -20  305.58   65.21
  -5   2 -20  206.70  119.01
   5  -2  20  256.98   99.83
  -2  -5  20  422.56   76.72
  -2  -5  20  326.99   88.60
  -5   3 -20  293.26  105.93
   3   5 -20  269.39   52.80
   3   5 -20  223.81   84.47
   5  -3  20  122.16   86.32
  -3  -5  20  440.29   61.10
  -3  -5  20  315.36   76.82
  -5   4 -20  107.58   86.94
  -4  -5  20   56.26   27.78
   5  -4  20    3.03   75.02
  -5   6 -20    3.01   42.91
   5  -6  20   17.07   44.95
  -3   6 -20   72.28   94.19
   3  -6  20   76.80   87.38
  -2   6 -20   59.18   84.30
  -2   6 -20   77.22   38.66
   2  -6  20   87.14   42.12
   2  -6  20  207.98   71.37
  -1   6 -20  116.95   39.04
  -1   6 -20   18.85   82.16
   1  -6  20   92.11   38.58
   1  -6  20  148.78   71.62
   0   6 -20   48.25   74.53
   0   6 -20   25.29   32.52
   0  -6  20  -61.37   66.69
   0  -6  20   27.81   34.36
   1   6 -20   55.80   32.34
  -6   1 -20   63.52   97.10
   1   6 -20   51.98   76.10
   6  -1  20    3.19   74.31
  -1  -6  20   71.42   35.57
  -1  -6  20  198.51   65.02
   6  -1  20   -2.98   46.98
  -6   2 -20  126.38   97.47
   2   6 -20   60.67   70.39
   2   6 -20   71.68   31.96
  -2  -6  20   42.07   30.78
   6  -2  20    6.09   71.19
  -2  -6  20  130.75   65.10
   3   6 -20  212.61   41.10
   3   6 -20  159.77   79.50
  -3  -6  20  206.92   45.92
  -3  -6  20  234.67   70.66
  -6   6 -20   48.36   94.89
   6  -6  20 -151.52   92.07
  -6   7 -20  176.44  115.07
   6  -7  20   -3.40   97.97
  -5   7 -20   69.06   99.69
  -5   7 -20   -6.05   44.46
   5  -7  20   -3.27   75.45
   5  -7  20    2.40   41.43
  -4   7 -20   -2.88   37.86
   4  -7  20   -3.15   56.75
   4  -7  20   85.47   44.17
  -2   7 -20  188.46   90.51
   2  -7  20  171.49   78.33
  -1   7 -20  -38.09   85.89
  -1   7 -20  -19.65   33.55
   1  -7  20   17.29   71.61
   0   7 -20  -18.28   77.11
   0   7 -20    4.65   34.43
   0  -7  20  -15.24   31.58
   0  -7  20 -109.94   72.48
   1   7 -20    6.52   31.61
   1   7 -20  -17.50   77.20
  -1  -7  20   -1.77   34.21
  -1  -7  20  -38.60   65.52
   2   7 -20   44.60   74.62
   2   7 -20  122.84   36.86
  -2  -7  20  106.06   38.40
  -2  -7  20  290.39   74.86
   3   7 -20   33.45   27.26
   3   7 -20  -85.24   69.19
  -3  -7  20   22.61   27.31
  -3  -7  20   43.94   67.74
   7  -3  20   -2.91   49.37
  -7   5 -20  -57.53  100.92
  -7   5 -20  -13.20   47.59
   7  -5  20    2.77   48.14
   7  -5  20    3.41   84.57
  -7   6 -20  272.58  116.49
  -7   6 -20    3.33   55.42
   7  -6  20    2.66   52.68
   7  -6  20    3.53  100.03
  -7   8 -20   -3.38   42.88
  -7   8 -20   21.76  106.58
   7  -8  20   10.00   41.20
   7  -8  20  -40.37   93.58
  -6   8 -20  103.05  106.36
   6  -8  20    3.51   88.32
  -5   8 -20   -3.08   43.39
  -5   8 -20  -43.40  108.69
   5  -8  20   -2.32   41.12
   5  -8  20    3.35   85.75
  -4   8 -20   22.55  100.76
  -4   8 -20  -14.69   41.17
   4  -8  20    3.22   79.57
   4  -8  20    2.23   40.31
  -3   8 -20  279.11   90.18
  -3   8 -20    2.80   38.86
   3  -8  20  237.31   72.47
   3  -8  20    2.14   36.22
   2  -8  20   -2.05   33.21
   0   8 -20  -55.10   85.12
   0   8 -20  134.50   35.97
   0  -8  20   20.27   73.49
   1   8 -20   58.75   84.41
   1   8 -20   15.50   30.89
   8  -1  20  140.39   57.30
  -1  -8  20  128.40   72.13
  -1  -8  20   66.24   34.56
  -8   2 -20   -4.29   76.49
   2   8 -20  -58.56   72.82
   2   8 -20    4.10   28.15
   8  -2  20  -60.16   52.66
  -2  -8  20  -13.36   26.59
   8  -2  20   -3.33   61.17
  -2  -8  20  -30.93   65.16
   3   8 -20   11.28   27.75
   3   8 -20  -63.20   72.89
  -8   3 -20  -71.78  102.04
  -3  -8  20   10.81   26.95
   8  -3  20  -13.25   76.87
   8  -3  20    3.11   51.09
  -3  -8  20   55.14   69.17
  -8   4 -20 -143.91  107.57
   8  -4  20    3.41   79.94
   8  -4  20    3.02   57.44
  -8   5 -20  -30.42  115.10
  -8   5 -20  -34.44   54.75
   8  -5  20   -3.57   93.71
   8  -5  20  -11.68   54.85
  -8   6 -20   45.01  112.81
  -8   6 -20   -3.49   53.42
   8  -6  20  -52.74   49.52
   8  -6  20   -3.68   88.19
  -8   7 -20    3.50   50.15
  -8   7 -20   55.50  110.85
   8  -7  20 -198.83  113.20
   8  -7  20   -2.70   46.34
  -8   8 -20    3.54   49.92
  -8   8 -20  -69.13  112.07
   8  -8  20    7.77   45.79
   8  -8  20  -26.91   96.98
  -8   9 -20   14.31   53.00
  -8   9 -20    4.65  111.50
   8  -9  20    3.97   97.88
   8  -9  20   23.84   45.93
  -7   9 -20  155.01  116.25
  -7   9 -20   37.68   53.71
   7  -9  20   -2.56   43.49
   7  -9  20    3.76   91.23
  -6   9 -20  -38.62  104.14
   6  -9  20   35.82   88.28
  -5   9 -20  -99.95  103.39
  -5   9 -20   -3.14   44.53
   5  -9  20   -3.40   78.22
   5  -9  20   23.81   42.21
  -4   9 -20   60.98  104.35
  -4   9 -20   -3.00   42.83
   4  -9  20   68.95   40.90
   4  -9  20   -3.24   76.19
  -3   9 -20  -79.58  102.08
  -3   9 -20   -2.86   42.68
   3  -9  20  -66.42   37.92
   3  -9  20    3.10   71.74
  -2   9 -20  442.34  100.99
  -2   9 -20    2.71   41.71
   2  -9  20   10.64   38.14
   2  -9  20  131.66   79.91
  -1   9 -20  -51.48   38.55
   1  -9  20   46.83   35.46
   9   0 -20  -49.51   45.24
   1   9 -20   -3.40   87.65
  -9   1 -20   94.22  117.01
  -1  -9  20   -2.79   73.83
   9  -1  20  -99.33   88.50
   9  -1  20  -58.36   58.92
   2   9 -20  355.28   89.45
  -9   2 -20  246.09  117.27
   2   9 -20  126.83   33.49
   9  -2  20  187.59   95.79
  -2  -9  20   38.44   73.52
   9  -2  20    6.69   64.40
  -2  -9  20   96.23   32.70
   3   9 -20  -93.20   77.48
   3   9 -20  -36.62   30.54
  -9   3 -20  -58.05  119.51
  -3  -9  20   13.12   26.91
   9  -3  20    3.27   57.69
  -3  -9  20   43.12   69.80
   9  -3  20    3.45   82.61
  -9   4 -20   58.29  105.99
   9  -4  20    7.08   87.97
   9  -4  20   53.30   57.04
  -9   5 -20  -25.19   51.91
  -9   5 -20   82.40  111.87
   9  -5  20    3.73   92.69
   9  -5  20   42.36   55.22
  -9   6 -20   43.89   56.61
  -9   6 -20  133.60  123.57
   9  -6  20   40.24   49.05
   9  -6  20    7.66   99.98
  -9   7 -20  147.73  127.81
  -9   7 -20    3.66   52.02
   9  -7  20   97.89   49.68
   9  -7  20    3.97   96.71
  -9   8 -20    3.70   54.18
  -9   8 -20   24.90  125.93
   9  -8  20  -37.43   44.15
   9  -8  20    4.03  101.03
  -9   9 -20   85.65   52.64
  -9   9 -20 -107.64  128.22
   9  -9  20    4.18  103.02
   9  -9  20  -84.95   48.04
  -9  10 -20   44.07  122.79
  -9  10 -20    3.77   54.97
   9 -10  20  -16.81   45.03
   9 -10  20    4.31  101.16
  -8  10 -20  -99.89  117.11
  -8  10 -20   -3.63   50.92
   8 -10  20    4.07   98.90
   8 -10  20    2.71   44.00
  -7  10 -20   -3.48   49.85
  -7  10 -20  134.83  118.45
   7 -10  20    2.62   45.79
   7 -10  20   -3.83   98.25
  -6  10 -20   -4.60  113.01
   6 -10  20   -3.61   86.08
  -5  10 -20    3.21   43.33
  -5  10 -20 -123.58  110.63
   5 -10  20    3.40   81.96
   5 -10  20   97.31   44.12
  -4  10 -20    3.08   41.14
  -4  10 -20  -22.85  109.33
   4 -10  20   -3.25   83.97
   4 -10  20    2.35   40.84
  -3  10 -20   27.45  118.85
  -3  10 -20    2.96   43.09
   3 -10  20  -65.77   39.56
   3 -10  20    6.22   78.27
  -2  10 -20   50.11  119.47
  -2  10 -20   -2.83   39.70
   2 -10  20   54.76   39.20
   2 -10  20   53.90   74.57
  -1  10 -20    4.46  103.90
  -1  10 -20   18.99   38.60
   1 -10  20  121.65   72.59
   1 -10  20  -71.22   35.57
   0  10 -20   64.84   42.59
  10   0 -20  266.80   54.55
   0  10 -20  136.59  118.38
   0 -10  20  197.49   75.85
   0 -10  20  116.93   46.34
   1  10 -20   64.72   31.75
 -10   1 -20    5.00  120.96
  -1 -10  20   31.02   32.01
  10  -1  20    3.62   60.76
 -10   2 -20  115.86  119.77
  10  -2  20    3.61   82.80
  10  -2  20   42.84   60.39
   3  10 -20   -3.20   84.03
 -10   3 -20   -4.71  115.61
  -3 -10  20   -2.59   64.84
  10  -3  20   58.92   61.51
  10  -3  20  -21.51   88.25
 -10   4 -20   -4.74  117.64
  10  -4  20    3.66   80.13
  10  -4  20    3.32   59.55
 -10   5 -20 -101.62  125.00
 -10   5 -20    3.75   56.46
  10  -5  20    6.32   53.12
  10  -5  20   -3.84   91.88
 -10   6 -20    3.82   56.67
 -10   6 -20   55.29  131.51
  10  -6  20   -3.98  100.18
  10  -6  20    2.98   51.48
 -10   7 -20   -5.23  128.89
 -10   7 -20    3.82   53.38
  10  -7  20   -4.16  101.92
  10  -7  20    2.87   48.71
 -10   8 -20   47.91  129.06
 -10   8 -20    3.84   52.32
  10  -8  20    2.76   45.37
  10  -8  20    4.26  104.33
 -10   9 -20   99.46  135.77
 -10   9 -20   -3.88   53.64
  10  -9  20    4.40  105.49
  10  -9  20    2.83   54.47
 -10  10 -20   23.53   55.61
 -10  10 -20   20.64  128.05
  10 -10  20   -2.87   51.09
  10 -10  20    9.14  111.67
 -10  11 -20   40.74  125.99
 -10  11 -20   57.94   58.24
  10 -11  20   99.18  113.35
  10 -11  20    8.96   49.04
  -9  11 -20   59.74  126.01
  -9  11 -20    3.99   50.58
   9 -11  20   57.87   48.90
   9 -11  20   66.34  107.14
  -8  11 -20  -94.14  124.31
  -8  11 -20   -3.84   55.44
   8 -11  20    2.80   47.01
   8 -11  20   -4.15  102.69
  -7  11 -20   -3.70   49.84
  -7  11 -20    4.99  124.21
   7 -11  20   -2.71   47.83
   7 -11  20   42.76   93.39
  -6  11 -20   81.62  128.26
  -6  11 -20   -3.56   50.17
   6 -11  20   -2.63   43.74
   6 -11  20    3.68   91.19
  -5  11 -20    3.44   47.76
  -5  11 -20   42.24  133.85
   5 -11  20   -3.50   83.94
   5 -11  20    2.55   43.30
  -4  11 -20    3.32   45.14
  -4  11 -20 -109.28  135.31
   4 -11  20    3.34   81.99
   4 -11  20   -2.48   40.41
  -3  11 -20    3.21   40.50
   3 -11  20    3.21   74.48
   3 -11  20   43.28   38.85
  -2  11 -20    3.11   45.13
   2 -11  20   52.90   78.05
   2 -11  20   46.59   38.84
  -1  11 -20    3.04   41.55
   1 -11  20  231.60   75.89
  11   0 -20  -36.66   46.53
   0  11 -20   47.66   42.65
   0 -11  20  -29.17   70.08
 -11   1 -20  387.27  117.36
  11  -1 -20   56.86   48.18
  11  -1  20   56.22   69.81
  -1 -11  20  169.16   71.50
 -11   2 -20  152.99  128.09
  -2 -11  20    5.40   63.79
  11  -2  20  -96.56   63.97
  11  -2  20    3.76   86.15
 -11   3 -20   79.45  130.28
  -3 -11  20   -2.56   54.50
  11  -3  20   -3.58   64.36
  11  -3  20   33.36   92.02
 -11   4 -20  -54.98  128.01
 -11   4 -20    3.76   58.89
  11  -4  20 -163.70   60.10
  11  -4  20   11.29   88.24
 -11   5 -20   89.74   59.04
 -11   5 -20 -132.52  121.71
  11  -5  20    3.27   56.16
  11  -5  20    3.93   95.90
 -11   6 -20 -106.82   57.53
 -11   6 -20  425.20  149.67
  11  -6  20   79.74   56.85
  11  -6  20    4.15  103.66
 -11   7 -20    3.98   54.05
 -11   7 -20 -133.22  148.15
  11  -7  20   -4.33  111.13
  11  -7  20    2.94   48.38
 -11   8 -20   11.39  142.65
 -11   8 -20    3.98   59.85
  11  -8  20   85.42  113.99
  11  -8  20    2.87   48.37
 -11   9 -20  -56.88  150.97
 -11   9 -20  -99.56   57.73
  11  -9  20    2.91   48.80
  11  -9  20    4.61  114.13
 -11  10 -20   40.64   59.06
 -11  10 -20   76.87  137.95
  11 -10  20    4.82  116.74
  11 -10  20 -103.11   52.04
 -11  11 -20    4.29   61.12
 -11  11 -20  -74.60  132.94
  11 -11  20  -25.01  121.28
  11 -11  20    3.07   54.93
 -11  12 -20   41.26  125.57
 -11  12 -20   -4.77   66.95
  11 -12  20   25.88  134.04
 -10  12 -20   20.32  131.47
 -10  12 -20    9.18   62.72
  10 -12  20    4.86  115.87
  -9  12 -20  -92.74   60.73
  -9  12 -20 -184.58  134.69
   9 -12  20   -4.54  111.25
  -8  12 -20   12.77   64.51
  -8  12 -20  -42.08  131.18
   8 -12  20    4.29   99.95
  -7  12 -20  -49.94  136.09
   7 -12  20  121.74  100.10
  -6  12 -20 -123.78   55.31
  -6  12 -20   23.70  143.56
   6 -12  20   -3.87   94.62
  -5  12 -20  -81.56   55.05
   5 -12  20  -96.82   93.08
  -4  12 -20    3.79   53.27
   4 -12  20    3.59   88.72
   3 -12  20  -31.46   84.71
   2 -12  20  210.91   87.48
  12   1 -20  -27.43   54.69
   1 -12  20  -73.65   81.83
  12   0 -20   76.12   54.25
  12  -1 -20  -51.30   50.47
  12  -1  20   73.13   67.78
 -12   2 -20   86.07  130.28
  12  -2  20   54.81   93.81
  12  -2  20   76.21   71.77
 -12   3 -20  -73.25  138.44
  12  -3  20   26.00   68.56
  12  -3  20   34.42   95.33
 -12   4 -20  -36.63  145.58
 -12   4 -20   -3.89   47.86
  12  -4  20    3.86   92.78
  12  -4  20    3.53   59.28
 -12   5 -20  -85.96  136.01
 -12   5 -20   -4.05   61.24
  12  -5  20  -28.09   95.80
  12  -5  20 -128.46   58.22
 -12   6 -20   -4.10   61.23
 -12   6 -20   -5.58  147.60
  12  -6  20    4.28  102.71
  12  -6  20    9.43   51.35
 -12   7 -20   12.33   59.15
 -12   7 -20   99.71  149.08
  12  -7  20 -100.89   53.95
  12  -7  20    4.46  107.93
 -12   8 -20  115.94  158.06
 -12   8 -20    4.12   57.36
  12  -8  20    4.72  113.40
  12  -8  20    2.92   50.85
 -12   9 -20  -12.33   59.74
 -12   9 -20  -36.86  164.12
  12  -9  20 -258.94  128.12
  12  -9  20    2.97   52.44
 -12  10 -20    5.93  148.96
 -12  10 -20   -4.20   57.81
  12 -10  20 -208.23  126.79
  12 -10  20   51.36   52.70
 -12  11 -20    5.64  142.02
 -12  11 -20    4.44   64.18
  12 -11  20   -5.28  133.29
  12 -11  20   44.22   54.69
 -12  12 -20   -4.96   67.97
 -12  12 -20    5.33  135.06
  12 -12  20    5.50  132.56
  13   1 -20   68.46   58.15
  13   1 -20   24.87   43.05
  13   0 -20  -42.08   56.59
 -13   0  20  -41.62   51.54
  13  -1 -20  -56.73   54.96
  13  -1  20    7.92   72.63
 -13   2 -20   -5.65  139.58
  13  -2  20   20.51  100.27
  13  -2  20    3.88   63.26
 -13   3 -20  120.67  138.55
  13  -3  20  -15.74   94.78
  13  -3  20   -3.71   67.70
 -13   4 -20 -119.85  142.57
 -13   4 -20    4.02   57.33
  13  -4  20    3.95   99.61
  13  -4  20  -56.26   63.69
 -13   5 -20    4.19   62.79
 -13   5 -20 -123.59  144.40
  13  -5  20  -33.09   58.11
  13  -5  20  -32.61   99.51
 -13   6 -20    4.22   61.71
 -13   6 -20   17.56  142.21
  13  -6  20   43.24  108.37
  13  -6  20  -18.96   55.52
 -13   7 -20    4.23   60.98
 -13   7 -20   37.27  166.83
  13  -7  20   -2.98   50.81
  13  -7  20    4.61  117.03
 -13   8 -20    4.21   63.47
 -13   8 -20 -143.60  178.63
  13  -8  20  175.53  134.45
  13  -8  20   94.08   56.04
 -13   9 -20   -4.22   61.70
 -13   9 -20  139.92  170.60
  13  -9  20    3.02   48.98
  13  -9  20   -5.15  128.81
 -13  10 -20  -32.75  168.71
 -13  10 -20   -4.32   60.73
  13 -10  20    5.34  133.51
  13 -10  20   -6.16   52.71
 -13  11 -20   -4.59   63.16
 -13  11 -20  -49.15  158.96
  13 -11  20 -103.29   55.62
  13 -11  20    5.59  137.19
  14   1 -20   22.27   61.68
  14   1 -20   18.11   45.45
 -14  -1  20  -29.74   42.22
 -14  -1  20  -21.56   50.53
  14   0 -20  182.68   67.79
 -14   0  20  -16.18   60.36
  14  -1 -20   27.23   56.58
  14  -1  20 -106.22   69.65
 -14   2 -20   -5.88  138.34
  14  -2  20  -84.27   66.27
 -14   3 -20  -45.54  143.10
 -14   3 -20  -19.33   56.73
  14  -3  20 -108.66  102.07
  14  -3  20    3.65   63.33
 -14   4 -20   24.95   62.24
 -14   4 -20   28.28  143.64
  14  -4  20    4.01   98.98
  14  -4  20  -45.35   63.27
 -14   5 -20 -151.65  146.32
 -14   5 -20    4.32   59.64
  14  -5  20    4.11   96.50
  14  -5  20   19.52   57.66
 -14   6 -20    4.32   68.33
 -14   6 -20  -98.38  158.05
  14  -6  20  214.40   62.51
  14  -6  20   13.02  122.25
 -14   7 -20    4.31   60.74
 -14   7 -20  -58.86  172.19
  14  -7  20  -11.82   54.65
  14  -7  20  -70.56  114.42
 -14   8 -20   -4.30   61.29
 -14   8 -20   62.64  182.64
  14  -8  20    3.00   53.06
  14  -8  20    4.99  124.04
 -14   9 -20    4.28   56.10
 -14   9 -20  101.29  186.41
  14  -9  20   -5.36  131.51
  14  -9  20  -54.77   54.52
 -14  10 -20    8.86   63.42
 -14  10 -20 -108.43  186.52
  14 -10  20    5.65  142.27
  14 -10  20   49.60   53.37
 -14  11 -20  254.84  175.84
  14 -11  20    5.88  145.20
  15   1 -20 -176.41   60.60
 -15  -1  20  -35.38   46.85
 -15  -1  20  -76.22   64.08
  15   0 -20 -139.19   74.85
 -15   0  20  -61.81   68.22
  15  -1 -20 -180.67   76.46
 -15   7 -20    4.39   68.05
 -15   8 -20   -4.34   57.14
 -15   9 -20    4.37   64.13
 -15   9 -20  309.23  203.81
  15  -9  20  131.45  140.31
 -15  10 -20  -72.64  212.42
  15 -10  20    5.92  146.05
  15 -10  20   -3.12   38.04
  16   1 -20   33.09   55.55
  16   1 -20   -3.21   70.15
 -16  -1  20  103.94   67.87
 -16  -1  20   37.61   47.41
  16   0 -20   -7.82   57.21
  16   0 -20  -53.28   69.66
 -16   0  20  -27.15   44.32
 -16   0  20  -29.38   70.46
  16  -1 -20   -3.23   72.30
  17   2 -20 -120.16   77.01
  17   1 -20  -44.86   61.45
  17   1 -20   93.05   73.55
 -17  -1  20   66.52   73.99
 -17  -1  20  111.02   49.27
  17   0 -20   20.49   72.41
  17   0 -20 -116.37   65.21
 -17   0  20    8.18   45.23
 -17   0  20   21.97   78.16
  17  -1 -20 -191.72   77.62
  18   1 -20  -63.52   67.40
 -18  -1  20   34.83   82.14
   0  -1  21  137.01   57.53
  -1   1 -21 -125.32   78.60
   1  -1  21   38.86   48.15
  -1  -1  21  -20.65   47.46
  -1   2 -21  -28.91   77.27
   1  -2  21   47.39   42.02
   1  -2  21  -16.07   62.16
  -2  -1  21   34.68   50.40
   0   2 -21    6.16   72.45
   0  -2  21  -13.01   57.90
   0  -2  21    2.46   42.30
  -2   1 -21 -115.90   86.64
   1   2 -21   35.38   68.46
   2  -1  21   32.97   48.50
  -1  -2  21   12.15   41.93
  -1  -2  21    2.56   59.91
   2   2 -21   -2.83   64.99
  -2   2 -21    3.35   76.88
  -2  -2  21  -45.58   41.84
   2  -2  21  -28.00   43.41
   2  -2  21   11.06   64.21
  -2  -2  21  -20.51   56.57
   3   2 -21  269.00   85.91
  -2   3 -21  258.19  101.16
   2  -3  21  319.86   84.31
   2  -3  21  215.30   66.82
  -3  -2  21  228.60   69.77
  -1   3 -21  -18.71   74.23
   1  -3  21   -2.57   58.62
  -3  -1  21   39.08   48.96
   1  -3  21   33.16   41.13
   0   3 -21  -74.26   74.84
   0  -3  21   93.57   61.08
   0  -3  21  135.54   44.02
  -3   1 -21   25.57   86.75
   1   3 -21  154.96   70.65
   3  -1  21   33.13   47.34
   3  -1  21  -21.89   69.36
  -1  -3  21  -23.14   40.16
  -1  -3  21   63.79   57.33
   2   3 -21  339.05   87.37
  -3   2 -21  255.40  102.97
  -2  -3  21  328.75   68.91
   3  -2  21  352.83   87.75
  -2  -3  21  391.37   76.18
   3  -2  21  204.17   67.14
   3   3 -21    2.53   62.56
  -3   3 -21   44.57   82.67
   3  -3  21  -42.43   43.87
  -3  -3  21  -17.75   55.03
   3  -3  21  -61.92   65.44
  -3  -3  21  -13.22   41.33
  -3   4 -21   79.04   98.95
  -4  -3  21  315.25   67.98
   3  -4  21    8.75   89.58
   3  -4  21  366.32   64.06
  -4  -3  21  206.81   75.65
  -2   4 -21   32.75   79.20
   2  -4  21   61.28   70.87
   2  -4  21   24.06   42.26
  -4  -2  21   60.90   42.79
  -1   4 -21  337.28  104.93
   1  -4  21  429.37   89.49
   1  -4  21  436.79   74.85
  -4  -1  21  346.12   82.67
   0   4 -21 -122.06   72.53
   0  -4  21   40.90   40.79
   0  -4  21  -52.76   61.31
  -4   1 -21  171.44  109.98
   1   4 -21  305.88   97.62
   4  -1  21    3.20   95.62
  -1  -4  21  363.31   85.54
  -1  -4  21  252.62   72.75
   4  -1  21  467.61   77.92
   2   4 -21   88.34   71.74
  -4   2 -21   51.27   88.29
  -2  -4  21   38.35   38.51
  -2  -4  21   40.37   54.29
   4  -2  21    2.99   65.50
   4  -2  21  149.15   49.19
   3   4 -21  460.14   87.52
  -4   3 -21  194.52  105.14
   4  -3  21    2.95   84.07
  -3  -4  21  291.93   75.63
  -3  -4  21  406.81   65.77
  -4   4 -21   -3.61   86.92
   4  -4  21   -3.05   73.25
  -3   5 -21   -3.55   98.09
   3  -5  21    6.08   71.40
  -2   5 -21  108.50   96.60
  -2   5 -21  194.07   52.51
   2  -5  21  183.84   56.69
   2  -5  21  305.81   84.42
  -1   5 -21    3.24   84.10
  -1   5 -21   86.64   41.71
   1  -5  21  184.15   44.16
   1  -5  21   44.72   69.91
   0   5 -21  179.38   94.00
   0   5 -21  160.84   49.36
   0  -5  21  379.55   79.13
   0  -5  21  182.10   55.29
  -5   1 -21    3.99   91.57
   1   5 -21   -2.95   73.75
   1   5 -21   25.46   37.15
  -1  -5  21    6.43   37.66
  -1  -5  21  112.12   62.14
   5  -1  21    3.31   68.16
   2   5 -21  293.02   84.26
  -5   2 -21  242.62   95.76
   2   5 -21  161.63   46.08
  -2  -5  21  310.09   53.09
   5  -2  21   -3.11   84.64
  -2  -5  21  233.92   74.63
   3   5 -21  105.34   33.09
   3   5 -21   31.35   69.98
  -3  -5  21  128.91   37.39
  -3  -5  21   99.30   59.88
  -5   5 -21   -3.21   44.25
  -5   5 -21   -3.92   79.96
   5  -5  21   -3.32   71.79
   5  -5  21    2.62   42.30
  -5   6 -21   28.49  106.79
  -5   6 -21   -3.21   43.53
   5  -6  21   20.53   83.21
   5  -6  21   41.30   47.71
  -4   6 -21    9.15   52.10
  -4   6 -21   -3.87   74.41
   4  -6  21   -3.29   80.02
  -2   6 -21   60.18  102.69
   2  -6  21   85.64   81.34
  -1   6 -21   57.63   89.50
  -1   6 -21   72.94   40.68
   1  -6  21   32.57   71.40
   1  -6  21  129.90   41.70
   0   6 -21   94.26   80.59
   0   6 -21   -9.84   35.68
   0  -6  21  -88.84   73.23
   0  -6  21   -8.54   34.38
   1   6 -21   62.21   81.10
   1   6 -21  -23.05   32.35
  -1  -6  21   33.14   67.59
  -1  -6  21   42.53   34.93
   2   6 -21  459.80   89.74
   2   6 -21  134.42   44.36
  -2  -6  21  215.01   50.91
  -2  -6  21  292.57   76.52
   3   6 -21   99.97   33.08
   3   6 -21  128.77   74.34
  -3  -6  21  160.93   66.60
  -3  -6  21   74.28   34.97
  -6   4 -21  481.75  108.09
   6  -4  21  196.01   87.16
  -6   5 -21    8.25  103.09
   6  -5  21  -10.42   86.91
  -6   6 -21  192.40  120.39
   6  -6  21    3.57   88.06
  -6   7 -21   35.24  113.31
   6  -7  21    3.60   95.58
  -5   7 -21   45.98  117.94
  -5   7 -21  -57.94   48.50
   5  -7  21   -5.10   48.88
   5  -7  21    3.45   84.32
  -4   7 -21   -3.06   43.76
  -4   7 -21  202.51  111.64
   4  -7  21    2.46   50.56
   4  -7  21    3.31   83.82
  -3   7 -21    2.91   43.24
   3  -7  21  125.57   46.68
   3  -7  21  156.75   77.25
  -1   7 -21   -3.44   84.24
   0   7 -21   73.84   35.81
   0   7 -21   -3.30   84.77
   0  -7  21  222.06   43.31
   0  -7  21   32.72   77.31
   1   7 -21   44.37   79.01
   1   7 -21  -13.84   33.67
  -1  -7  21    1.92   32.69
   7  -1  21    3.29   55.12
  -1  -7  21    8.73   72.73
  -7   2 -21  372.77  102.92
   2   7 -21  185.29   79.70
   7  -2  21   -3.12   56.68
  -2  -7  21  -22.58   71.70
  -7   3 -21  -75.95  102.02
   3   7 -21   -5.90   27.85
   3   7 -21  169.79   76.58
  -3  -7  21   30.82   30.60
   7  -3  21   48.59   51.89
   7  -3  21    3.37   76.44
  -3  -7  21   43.32   67.38
  -7   4 -21  -29.74  106.32
   7  -4  21   -3.46   87.52
   7  -4  21    2.97   51.12
  -7   5 -21  -39.05  121.51
  -7   5 -21    3.50   52.51
   7  -5  21    5.81   51.47
   7  -5  21    3.63   91.16
  -7   6 -21   -7.08   51.31
  -7   6 -21   94.90  112.48
   7  -6  21   81.83   99.31
   7  -6  21    2.82   48.45
  -7   7 -21  125.74  118.78
  -7   7 -21   28.42   55.25
   7  -7  21  -91.21   49.54
   7  -7  21   -7.58   99.72
  -7   8 -21   -3.59   53.33
  -7   8 -21    4.68  118.28
   7  -8  21   61.25   96.75
   7  -8  21   42.68   46.06
  -6   8 -21   22.14  111.69
   6  -8  21   -3.67   82.87
  -5   8 -21  -63.28  109.67
  -5   8 -21    3.26   46.51
   5  -8  21    2.47   43.43
   5  -8  21  -21.14   87.94
  -4   8 -21   -3.11   45.78
  -4   8 -21   52.24  108.10
   4  -8  21   14.27   43.32
   4  -8  21   37.29   83.57
  -3   8 -21   15.45  102.49
  -3   8 -21    2.96   42.34
   3  -8  21 -125.64   40.75
   3  -8  21 -267.19   84.56
  -2   8 -21   14.87   92.60
  -2   8 -21    2.81   38.98
   2  -8  21    8.74   38.77
   2  -8  21 -170.11   80.13
  -1   8 -21  -13.25   41.53
   1  -8  21  -39.60   36.98
  -8   1 -21   46.58  114.19
   1   8 -21 -104.81   87.72
   8  -1  21 -168.35   60.52
  -1  -8  21  -76.43   79.88
   2   8 -21  -23.85   30.87
  -8   2 -21  -27.20  119.58
   2   8 -21 -254.82   86.39
   8  -2  21   16.53   58.13
   8  -2  21 -265.70   84.78
  -2  -8  21   26.61   31.14
  -2  -8  21   42.06   79.26
   3   8 -21   20.50   82.92
  -8   3 -21  -35.66  110.99
   3   8 -21   25.73   30.26
  -3  -8  21  -79.09   75.23
   8  -3  21    3.24   54.70
  -3  -8  21   22.96   28.91
   8  -3  21    3.52   84.66
  -8   4 -21   76.28  109.71
   8  -4  21    3.61   83.24
   8  -4  21    3.16   55.43
  -8   5 -21    3.65   53.63
  -8   5 -21  -50.41  118.22
   8  -5  21  -79.97   60.09
   8  -5  21    3.79   92.53
  -8   6 -21  -59.36   54.61
  -8   6 -21    4.75  116.33
   8  -6  21    2.95   49.98
   8  -6  21   46.49  101.45
  -8   7 -21  -19.71  123.78
  -8   7 -21    3.73   53.03
   8  -7  21   -2.88   49.74
   8  -7  21  -31.98   97.21
  -8   8 -21    3.76   54.08
  -8   8 -21  -55.05  124.49
   8  -8  21 -110.67   49.13
   8  -8  21   96.55  100.03
  -8   9 -21    3.79   55.64
  -8   9 -21   69.85  124.51
   8  -9  21  -20.72  100.68
   8  -9  21    2.76   49.56
  -7   9 -21   23.70  119.74
  -7   9 -21   10.87   53.64
   7  -9  21    2.66   43.86
   7  -9  21  122.49   93.29
  -6   9 -21    3.46   52.08
  -6   9 -21  -13.69  112.20
   6  -9  21    3.76   91.50
  -5   9 -21   56.90  109.93
  -5   9 -21    3.30   46.65
   5  -9  21    3.60   83.96
   5  -9  21    2.47   43.14
  -4   9 -21   85.12  111.46
  -4   9 -21    3.16   45.54
   4  -9  21   48.46   89.29
   4  -9  21   -2.43   42.41
  -3   9 -21    4.14  102.70
  -3   9 -21   -6.02   40.19
   3  -9  21   53.80   40.06
   3  -9  21    3.34   77.29
  -2   9 -21   -2.87   41.54
  -2   9 -21    4.01  102.00
   2  -9  21  122.90   81.59
   2  -9  21    2.25   37.42
  -1   9 -21    3.87   98.11
  -1   9 -21  -18.88   35.17
   1  -9  21    3.16   81.18
   1  -9  21    8.61   33.70
   0  -9  21  707.19   81.46
  -9   1 -21   73.95  114.89
   9  -1  21    3.59   59.68
  -1  -9  21   -1.92   30.04
  -9   2 -21   38.37  116.15
   9  -2  21   20.91   61.98
   9  -2  21   -3.69   80.66
  -9   3 -21  108.09  121.62
  -3  -9  21   47.37   71.52
   9  -3  21    3.67   88.78
   9  -3  21   -3.41   60.58
  -9   4 -21  -52.18  124.11
   9  -4  21   -7.49   87.17
   9  -4  21    3.29   59.50
  -9   5 -21   -9.69  120.92
  -9   5 -21   60.74   54.94
   9  -5  21    3.92   95.39
   9  -5  21   61.75   63.90
  -9   6 -21  -35.17  133.37
  -9   6 -21    3.88   54.50
   9  -6  21    4.05   91.10
   9  -6  21   58.55   52.30
  -9   7 -21  -15.61  137.55
  -9   7 -21   54.61   59.79
   9  -7  21   23.93   53.86
   9  -7  21    4.19   97.43
  -9   8 -21    3.94   60.21
  -9   8 -21   69.30  138.60
   9  -8  21   63.74  107.61
   9  -8  21   42.94   50.82
  -9   9 -21   -3.96   55.96
  -9   9 -21  -94.93  134.66
   9  -9  21   -2.91   51.19
   9  -9  21    4.36  106.16
  -9  10 -21    4.00   58.68
  -9  10 -21  -15.77  129.32
   9 -10  21    8.89   53.40
   9 -10  21  -31.52  107.38
  -8  10 -21   11.53   56.33
  -8  10 -21  -60.86  130.22
   8 -10  21    5.73   49.48
   8 -10  21  -81.00  108.16
  -7  10 -21 -122.64  130.21
   7 -10  21   16.61   49.17
   7 -10  21  -56.73  102.14
  -6  10 -21   86.85  117.57
  -6  10 -21    3.53   51.00
   6 -10  21   -2.67   45.58
   6 -10  21   -3.83   92.74
  -5  10 -21   71.31  114.55
  -5  10 -21    3.38   49.37
   5 -10  21    3.65   82.50
   5 -10  21  -25.82   44.86
  -4  10 -21  -33.00  118.65
  -4  10 -21    3.22   46.23
   4 -10  21   39.88   41.23
   4 -10  21   45.23   85.32
  -3  10 -21 -116.63  114.76
  -3  10 -21    3.08   46.04
   3 -10  21 -102.50   43.56
   3 -10  21 -153.40   81.67
  -2  10 -21   -4.57  109.39
  -2  10 -21   -2.94   43.14
   2 -10  21   -3.22   72.70
   2 -10  21   52.79   38.30
  -1  10 -21  -48.84  114.32
  -1  10 -21    2.81   39.32
   1 -10  21   74.98   40.26
   1 -10  21    3.14   76.44
   0  10 -21  -16.02   36.78
   0  10 -21   67.68  109.60
   0 -10  21    4.19   33.28
   0 -10  21   52.06   79.47
   1  10 -21   12.71   33.17
   1  10 -21   11.81  101.58
 -10   1 -21    5.23  114.81
  10  -1  21    3.77   63.30
  -1 -10  21   38.94   73.90
  -1 -10  21   62.22   33.12
 -10   2 -21  -20.27  122.56
   2  10 -21   53.45   36.78
   2  10 -21   -3.58   71.53
  10  -2  21   38.40   90.66
  10  -2  21  189.63   69.87
  -2 -10  21    5.74   33.10
  -2 -10  21   -2.93   67.87
 -10   3 -21  -79.46  133.35
  10  -3  21    3.81   88.75
  10  -3  21 -181.69   65.35
 -10   4 -21   -5.01  120.29
  10  -4  21    3.87   91.54
  10  -4  21    3.49   58.90
 -10   5 -21    5.11  125.68
 -10   5 -21   27.63   60.42
  10  -5  21   67.24   59.10
  10  -5  21    4.03   97.12
 -10   6 -21    4.05   59.97
 -10   6 -21    5.31  138.67
  10  -6  21 -124.29   56.54
  10  -6  21  -29.69  104.02
 -10   7 -21  -16.59  144.47
 -10   7 -21    4.07   61.25
  10  -7  21   -4.38  107.03
  10  -7  21    3.09   53.99
 -10   8 -21  -79.40  150.23
 -10   8 -21    4.11   59.63
  10  -8  21    2.95   52.12
  10  -8  21 -126.33  106.94
 -10   9 -21  -51.04  137.29
 -10   9 -21    4.12   58.74
  10  -9  21    4.58  106.47
  10  -9  21    3.00   55.41
 -10  10 -21   -4.14   56.82
 -10  10 -21 -166.17  141.96
  10 -10  21    3.06   49.02
  10 -10  21   95.01  115.15
 -10  11 -21 -136.61  147.39
 -10  11 -21   -4.34   66.04
  10 -11  21 -162.12  131.07
  10 -11  21  -75.14   58.11
  -9  11 -21   10.57  131.88
  -9  11 -21   -4.17   61.11
   9 -11  21    4.66  111.48
   9 -11  21   97.06   52.20
  -8  11 -21  112.25   58.55
  -8  11 -21 -157.22  131.59
   8 -11  21  152.66   55.97
   8 -11  21    4.39  109.22
  -7  11 -21   94.20  132.88
   7 -11  21  -74.59  100.27
  -6  11 -21   -7.40   52.87
  -6  11 -21  196.05  131.70
   6 -11  21   -3.91   94.92
   6 -11  21   38.47   48.73
  -5  11 -21   -3.56   51.36
  -5  11 -21  -16.17  139.56
   5 -11  21    3.72   91.50
   5 -11  21   29.28   44.94
  -4  11 -21    3.42   45.99
  -4  11 -21    5.52  130.20
   4 -11  21  -60.40   89.05
   4 -11  21   -2.58   45.05
  -3  11 -21    6.59   43.52
  -3  11 -21  -28.18  142.16
   3 -11  21    2.50   45.78
   3 -11  21   -3.41   84.69
  -2  11 -21  -45.52  145.31
  -2  11 -21    3.18   46.80
   2 -11  21  194.29   88.87
   2 -11  21   53.24   39.54
  -1  11 -21 -117.31  137.95
  -1  11 -21    3.06   42.99
   1 -11  21   -7.01   42.22
   1 -11  21  -44.60   77.24
   0  11 -21  119.46   48.94
   0  11 -21  100.65  139.07
   0 -11  21  287.66   85.00
  11  -1 -21   35.21   42.09
   1  11 -21  -38.58  121.87
  11  -1  21 -136.31   70.94
  -1 -11  21   38.89   75.49
 -11   2 -21  182.14  138.14
   2  11 -21  -67.44  110.82
  11  -2  21    7.75   72.15
  11  -2  21   -4.00   96.17
  -2 -11  21  140.91   72.66
 -11   3 -21  194.24  127.86
  11  -3  21 -165.62   70.83
  11  -3  21    3.94   91.62
 -11   4 -21    3.88   59.89
 -11   4 -21 -110.64  138.71
  11  -4  21    3.99   98.25
  11  -4  21  -90.41   63.15
 -11   5 -21  -24.57   57.53
 -11   5 -21 -102.65  148.10
  11  -5  21   -4.15  101.33
  11  -5  21   -3.50   58.49
 -11   6 -21    4.22   63.03
 -11   6 -21   44.73  135.69
  11  -6  21 -135.16   60.15
  11  -6  21    4.40  102.70
 -11   7 -21   52.53  142.51
 -11   7 -21  -38.13   63.39
  11  -7  21 -120.50   57.29
  11  -7  21    4.54  112.00
 -11   8 -21    4.25   65.09
 -11   8 -21  -78.52  158.78
  11  -8  21    3.03   54.54
  11  -8  21    4.75  115.22
 -11   9 -21   12.16  143.45
 -11   9 -21   42.77   58.31
  11  -9  21    4.85  120.15
  11  -9  21   -3.10   56.85
 -11  10 -21 -353.89  171.13
 -11  10 -21    4.30   59.23
  11 -10  21 -194.99   57.27
  11 -10  21    5.01  138.18
 -11  11 -21  -39.87  136.15
 -11  11 -21    4.50   58.16
  11 -11  21    5.19  129.33
  11 -11  21    3.23   54.26
 -11  12 -21  -88.06  144.03
 -11  12 -21   29.52   65.27
  11 -12  21    5.40  126.03
 -10  12 -21    4.72   66.42
 -10  12 -21   21.72  136.11
  10 -12  21   -5.10  123.23
  10 -12  21   76.45   59.39
  -9  12 -21 -135.79  149.23
  -9  12 -21  -31.67   60.93
   9 -12  21    3.22   53.88
   9 -12  21   43.19  117.28
  -8  12 -21   -5.56  137.27
  -8  12 -21    4.35   63.20
   8 -12  21    4.53  108.91
   8 -12  21   46.84   52.84
  -7  12 -21  -80.66  145.58
   7 -12  21   -4.29  104.76
  -6  12 -21 -158.61  147.92
  -6  12 -21    4.07   58.48
   6 -12  21    4.09   98.30
   6 -12  21    2.93   46.78
  -5  12 -21    3.94   55.49
  -5  12 -21   39.39  160.64
   5 -12  21    3.91   93.43
  -4  12 -21 -120.47  176.94
  -4  12 -21    3.83   52.71
   4 -12  21  -45.08   94.69
  -3  12 -21    3.74   52.77
   3 -12  21  -10.91   90.65
   2 -12  21    3.53   84.36
   1 -12  21   30.70   87.24
   0 -12  21   13.16   86.07
  12  -1 -21    2.16   45.63
  -1 -12  21  195.04   80.55
  12  -1  21   -8.00   76.07
 -12   2 -21  226.07  149.03
  -2 -12  21   44.47   76.84
  12  -2  21 -179.56   77.77
  12  -2  21    4.19   97.73
 -12   3 -21  -66.34  135.00
  12  -3  21    3.93   67.27
  12  -3  21   -8.14   97.51
 -12   4 -21    4.01   60.15
 -12   4 -21  -55.14  133.30
  12  -4  21  -56.46   71.44
  12  -4  21   86.27   93.25
 -12   5 -21    4.25   61.01
 -12   5 -21   96.47  139.86
  12  -5  21    4.25   98.79
  12  -5  21 -152.64   65.65
 -12   6 -21  111.69  146.39
 -12   6 -21    4.35   63.57
  12  -6  21   94.31  110.63
  12  -6  21   13.50   61.30
 -12   7 -21 -127.55   65.78
 -12   7 -21  -80.40  159.13
  12  -7  21  -25.72   56.60
  12  -7  21   -4.74  111.06
 -12   8 -21  -70.50   62.81
 -12   8 -21  -77.21  169.25
  12  -8  21    3.14   51.73
  12  -8  21 -222.97  124.78
 -12   9 -21    4.43   65.92
 -12   9 -21  -13.06  164.86
  12  -9  21   -5.16  132.48
  12  -9  21  -98.21   58.67
 -12  10 -21  -48.96   60.57
 -12  10 -21  160.32  155.61
  12 -10  21    3.20   55.34
  12 -10  21   -5.29  133.46
 -12  11 -21  -18.22  157.28
 -12  11 -21    4.67   66.84
  12 -11  21    3.32   55.43
  12 -11  21  -21.99  136.39
  13   0 -21  -28.39   56.07
  13  -1 -21    9.55   49.50
  13  -1  21    4.13   68.29
 -13   2 -21  248.37  152.13
  13  -2  21   20.49   69.65
 -13   3 -21  -63.53  150.12
  13  -3  21    4.18   97.22
  13  -3  21    3.95   68.93
 -13   4 -21 -143.81  139.76
 -13   4 -21 -173.95   63.04
  13  -4  21    4.19   98.32
  13  -4  21    7.57   64.69
 -13   5 -21  -59.30  145.15
 -13   5 -21 -202.24   63.38
  13  -5  21  -28.69   63.98
  13  -5  21    4.31  106.28
 -13   6 -21  -93.04  147.44
 -13   6 -21    8.98   62.23
  13  -6  21    3.43   58.30
  13  -6  21   63.72  105.93
 -13   7 -21   -4.53   67.05
 -13   7 -21  449.90  187.35
  13  -7  21  484.33  151.30
  13  -7  21  271.16   69.04
 -13   8 -21   -4.54   69.12
 -13   8 -21   -6.84  169.58
  13  -8  21 -129.87   56.60
  13  -8  21    5.12  126.50
 -13   9 -21   63.05  179.54
 -13   9 -21   -4.52   61.51
  13  -9  21    6.43   56.37
  13  -9  21   10.85  134.17
 -13  10 -21   18.37   65.31
 -13  10 -21   55.70  174.12
  13 -10  21   19.56   59.31
  13 -10  21   61.80  138.59
 -13  11 -21  -86.56  166.38
  13 -11  21   11.59  149.21
  14   0 -21    2.76   61.19
  14  -1 -21  131.82   60.98
  14  -1  21   45.40   80.08
  14  -2  21    4.06   70.50
 -14   3 -21  -17.99  150.19
 -14   3 -21   46.62   56.07
  14  -3  21   27.40   70.16
  14  -3  21   29.98   97.96
 -14   4 -21 -179.70  154.18
 -14   4 -21   -4.29   61.76
  14  -4  21   -8.54  111.72
  14  -4  21  -45.34   69.41
 -14   5 -21 -197.34  163.48
 -14   5 -21   -4.54   63.04
  14  -5  21  -17.70   65.52
  14  -5  21 -157.59  118.67
 -14   6 -21  116.90  168.22
 -14   6 -21  -18.43   64.55
  14  -6  21   27.17   60.14
  14  -6  21   32.21  116.21
 -14   7 -21   -6.87  171.99
 -14   7 -21   -4.65   67.41
  14  -7  21 -134.84   60.66
  14  -7  21    4.94  127.52
 -14   8 -21    4.63   65.52
 -14   8 -21  -87.73  182.10
  14  -8  21  -47.56   55.29
  14  -8  21   -5.30  129.97
 -14   9 -21   -4.62   64.27
 -14   9 -21   -7.60  196.97
  14  -9  21  -68.24   55.99
  14  -9  21   -5.62  137.53
 -14  10 -21  -68.57  193.17
  14 -10  21    5.96  158.53
  15   0 -21   -2.91   62.42
  15  -1 -21    2.92   61.95
 -15   5 -21    4.64   61.04
 -15   6 -21 -108.01  173.91
 -15   6 -21   -4.72   73.14
 -15   7 -21  -50.86  185.07
 -15   7 -21   -4.73   68.20
  15  -7  21  -69.47   55.57
  15  -7  21   -4.94  112.89
 -15   8 -21    4.71   68.57
 -15   8 -21 -132.53  200.86
  15  -8  21   86.39  131.67
  15  -8  21    3.21   54.59
 -15   9 -21  131.96  218.97
  15  -9  21  -17.32  148.08
  15  -9  21 -133.26   60.03
  16   0 -21 -101.43   68.33
 -16   0  21   36.93   70.32
 -16   0  21   -3.82   40.58
  16  -1 -21    9.38   63.46
  17   0 -21  -20.04   73.92
 -17   0  21   -8.04   44.21
 -17   0  21   35.48   83.86
  17  -1 -21 -102.85   73.87
   0  -1  22   33.75   57.99
  -1  -1  22   23.43   57.84
   1  -1  22  -57.33   57.13
  -1   2 -22    3.40   78.02
  -2  -1  22  -16.34   54.03
   1  -2  22   13.53   48.27
   1  -2  22  -40.03   64.52
   0   2 -22 -136.76   76.29
   0  -2  22  -27.91   66.52
   0  -2  22    8.02   47.53
   1   2 -22   65.59   73.72
  -2   1 -22    3.70   77.72
  -1  -2  22   16.56   63.69
   2  -1  22   -3.36   56.48
  -1  -2  22   -2.65   47.39
   2   2 -22  169.68   74.86
  -2  -2  22  109.79   51.39
   2  -2  22  103.29   68.36
   2  -2  22  107.32   50.58
  -2   3 -22    3.47   87.02
   2  -3  22 -149.13   64.77
   2  -3  22   -7.70   45.82
  -3  -2  22   10.27   42.71
  -1   3 -22  128.85   88.61
   1  -3  22  170.20   73.30
   1  -3  22  156.28   51.55
  -3  -1  22  209.41   67.21
   0   3 -22   34.62   74.98
   0  -3  22  139.37   62.75
   0  -3  22  -27.44   43.04
   1   3 -22  167.68   78.70
  -3   1 -22  199.81   96.67
   3  -1  22   -3.33   62.68
  -1  -3  22  184.44   69.04
  -1  -3  22  203.11   51.98
   2   3 -22  102.41   69.99
  -3   2 -22  -81.62   90.35
  -2  -3  22   56.16   59.42
   3  -2  22   -2.81   44.24
  -2  -3  22   48.40   43.78
   3  -2  22    3.06   67.23
   3   3 -22  134.29   69.17
  -3   3 -22  105.53   94.86
  -3  -3  22   88.24   55.45
   3  -3  22   -3.00   71.63
  -3  -3  22   87.81   44.70
  -2   4 -22  297.58  109.09
   2  -4  22  202.70   88.08
  -1   4 -22  -83.53   85.86
  -4  -1  22   44.09   52.91
   1  -4  22  -70.00   66.05
   1  -4  22   69.52   46.20
   0   4 -22   79.48   96.78
   0  -4  22  248.27   60.19
   0  -4  22  268.69   76.99
   1   4 -22  -57.36   75.68
  -4   1 -22   -4.01   94.44
  -1  -4  22    7.15   37.86
  -1  -4  22   17.64   56.82
   2   4 -22  194.05   86.63
  -2  -4  22  242.84   63.88
  -2  -4  22  340.14   76.84
   3   4 -22   69.38   70.06
  -3  -4  22   30.85   39.87
  -3  -4  22   -6.76   55.03
   4  -4  22  123.74   52.27
  -4   5 -22  264.35  101.81
   4  -5  22  372.58   88.75
   3  -5  22   -2.59   46.31
  -1   5 -22 -161.74   91.48
  -1   5 -22  136.20   42.31
   1  -5  22  279.68   45.91
   1  -5  22   71.79   77.99
   0   5 -22  -42.72   81.28
   0   5 -22    2.68   38.52
   0  -5  22   -2.39   41.39
   0  -5  22   -5.72   68.12
   1   5 -22   37.52   38.87
   1   5 -22 -172.00   79.41
  -1  -5  22   70.56   68.75
  -1  -5  22   83.81   46.39
   2   5 -22   39.52   34.62
   2   5 -22  150.96   78.13
  -2  -5  22   59.33   41.77
   5  -2  22   63.25   54.34
  -2  -5  22   55.87   64.09
   3   5 -22 -110.86   72.62
   3   5 -22   68.54   34.35
  -3  -5  22   77.79   59.26
  -3  -5  22   77.10   38.60
   5  -3  22  103.29   51.13
  -5   4 -22  109.38  100.03
   5  -4  22   56.18   50.79
   5  -4  22    3.36   82.42
  -5   5 -22   -6.87   52.46
  -5   5 -22  -20.71  107.78
   5  -5  22   -2.79   46.73
   5  -5  22  -60.10   89.18
  -5   6 -22  -34.21   51.81
  -5   6 -22 -108.12  122.29
   5  -6  22    3.62   88.41
   5  -6  22    5.51   52.30
  -4   6 -22 -189.61  122.95
  -4   6 -22    3.26   48.73
   4  -6  22   -3.48   87.43
   4  -6  22  -37.13   50.72
  -3   6 -22  413.70  103.70
  -3   6 -22    3.10   47.70
   3  -6  22    3.36   78.87
   3  -6  22  134.19   49.00
   2  -6  22   -2.46   42.76
   0   6 -22  136.92   46.54
   0   6 -22  -55.55   95.28
   0  -6  22   39.52   80.41
   0  -6  22  319.70   53.07
  -6   1 -22  316.45   98.75
   1   6 -22   54.35   37.23
   1   6 -22  -16.61   86.97
   6  -1  22   -3.42   56.30
  -1  -6  22   71.97   38.28
  -1  -6  22    5.84   73.43
  -6   2 -22   34.30   96.86
   2   6 -22  123.37   84.44
   2   6 -22   32.02   34.27
  -2  -6  22   42.97   35.37
  -2  -6  22  105.16   67.90
   6  -2  22    3.45   74.02
   3   6 -22  130.81   81.47
  -6   3 -22   38.02  107.72
   3   6 -22   14.70   31.67
  -3  -6  22   41.48   64.24
   6  -3  22  -48.03   78.22
  -3  -6  22   67.69   34.44
  -6   4 -22   17.04  111.95
   6  -4  22   59.71   82.37
  -6   5 -22    4.36  111.46
   6  -5  22   -3.69   92.96
  -6   6 -22  -45.42  117.24
   6  -6  22  112.65   92.93
  -6   7 -22  -14.42   56.96
  -6   7 -22   51.79  117.43
   6  -7  22 -100.04  101.36
  -5   7 -22    3.43   45.39
  -5   7 -22  -85.14  128.76
   5  -7  22    3.68   93.75
   5  -7  22  -91.23   52.48
  -4   7 -22    3.26   74.03
   4  -7  22    3.53  115.95
  -3   7 -22  -44.95  106.83
  -3   7 -22   58.87   42.40
   3  -7  22   -3.41   84.17
   3  -7  22    5.02   44.98
  -2   7 -22   85.21   42.63
  -2   7 -22  337.11  106.40
   2  -7  22  212.94   78.34
   1  -7  22  -39.73   39.00
  -7   1 -22 -124.86  113.76
   1   7 -22  164.60   36.78
   1   7 -22 -180.63   93.47
  -1  -7  22   -3.10   76.58
   7  -1  22  -52.64   59.12
   2   7 -22   11.40   35.52
   2   7 -22  -89.67   87.54
  -7   2 -22   45.19  114.56
   7  -2  22  -43.25   83.69
  -2  -7  22   11.44   33.64
  -2  -7  22    6.02   74.64
   7  -2  22    3.28   57.93
  -7   3 -22   26.67  116.63
   3   7 -22   33.40   32.77
   7  -3  22   64.54   89.97
  -3  -7  22  -89.44   79.17
   7  -3  22  -53.86   58.41
  -3  -7  22    1.72   29.82
  -7   4 -22 -116.89  111.97
   7  -4  22  105.13   52.07
   7  -4  22  -14.65   88.05
  -7   5 -22   50.54  118.96
  -7   5 -22   -7.43   59.53
   7  -5  22    3.82   93.37
   7  -5  22    3.04   52.98
  -7   6 -22   -3.76   56.66
  -7   6 -22  -52.40  117.33
   7  -6  22    3.92  100.84
   7  -6  22  -95.01   51.97
  -7   7 -22  -69.38  122.60
  -7   7 -22   -3.78   53.17
   7  -7  22  -29.21   53.17
   7  -7  22    4.03   99.42
  -7   8 -22   -5.07  123.31
   7  -8  22   19.79   51.47
   7  -8  22   56.58  102.87
  -6   8 -22  174.29   52.64
  -6   8 -22   33.66  126.99
   6  -8  22  179.83   53.63
   6  -8  22    3.84   99.92
  -5   8 -22  -18.14  113.89
  -5   8 -22   13.83   48.00
   5  -8  22   68.24   50.44
   5  -8  22  173.19   97.51
  -4   8 -22   36.20   50.99
  -4   8 -22  -30.26  111.55
   4  -8  22  -89.31   93.49
   4  -8  22   60.65   47.27
  -3   8 -22    3.13   46.85
  -3   8 -22  128.51  113.96
   3  -8  22    3.47   86.38
   3  -8  22 -114.51   43.13
  -2   8 -22   11.89   41.87
  -2   8 -22   51.75  103.30
   2  -8  22    2.34   41.96
   2  -8  22  156.36   84.81
  -1   8 -22   57.38   98.88
  -1   8 -22  -30.98   40.61
   1  -8  22    2.23   36.60
   1  -8  22 -163.37   85.61
   0   8 -22   34.39   38.88
   0  -8  22   17.15   38.98
  -8   1 -22  -24.44  112.99
   8  -1  22    3.63   63.83
  -8   2 -22  -28.61  114.86
   2   8 -22  -33.35   88.62
   8  -2  22  -18.79   89.93
   8  -2  22 -124.55   56.98
  -2  -8  22  -44.49   83.03
  -8   3 -22  -37.55  115.17
  -3  -8  22   39.79   29.32
  -3  -8  22  -83.14   78.56
   8  -3  22  130.83   91.57
   8  -3  22 -148.92   58.16
  -8   4 -22   90.22  112.26
   8  -4  22    3.30   57.67
   8  -4  22    3.81   88.32
  -8   5 -22    3.86   58.84
  -8   5 -22  -43.52  127.72
   8  -5  22   87.00   61.18
   8  -5  22    3.97   93.21
  -8   6 -22  -30.17  120.60
  -8   6 -22   11.80   62.77
   8  -6  22   12.47   57.31
   8  -6  22   12.34  105.11
  -8   7 -22    3.96   60.11
  -8   7 -22  -99.11  125.82
   8  -7  22  117.96  103.84
   8  -7  22 -143.53   52.20
  -8   8 -22   26.82  136.58
  -8   8 -22    4.00   55.44
   8  -8  22  -17.03  109.79
   8  -8  22    2.94   52.35
  -8   9 -22    4.05   58.26
  -8   9 -22 -128.64  133.90
   8  -9  22 -161.14   54.97
   8  -9  22  -94.77   99.56
  -7   9 -22  182.96  127.81
   7  -9  22  300.25  111.86
  -6   9 -22    3.68   53.34
  -6   9 -22  -87.16  120.99
   6  -9  22    3.93   97.24
   6  -9  22    2.72   48.38
  -5   9 -22   21.08   50.21
  -5   9 -22   88.77  112.22
   5  -9  22  -71.86   89.72
   5  -9  22   20.99   46.34
  -4   9 -22    3.35   46.82
  -4   9 -22  -27.11  107.83
   4  -9  22    2.53   42.80
   4  -9  22   47.37   88.91
  -3   9 -22   26.22  112.54
  -3   9 -22    3.17   44.85
   3  -9  22  233.34   92.79
   3  -9  22    7.30   43.77
  -2   9 -22    6.03   42.10
  -2   9 -22    4.18  102.89
   2  -9  22   38.10   42.18
   2  -9  22   51.76   80.98
  -1   9 -22   31.37   40.97
  -1   9 -22   76.48  102.76
   1  -9  22   -3.39   80.64
   1  -9  22  -79.77   42.63
   0   9 -22    2.67   35.65
   0   9 -22  -84.54  100.88
   0  -9  22  -33.40   83.00
   0  -9  22   -2.16   34.09
   1   9 -22    9.99   34.59
  -9   1 -22   10.33  116.85
  -1  -9  22  -14.29   35.29
   9  -1  22    3.77   64.45
  -1  -9  22  237.74   80.25
   2   9 -22   -2.31   31.94
  -9   2 -22  161.21  114.89
   9  -2  22 -152.56   63.22
   9  -2  22  125.53   91.63
  -2  -9  22   20.79   33.27
  -9   3 -22   14.89  119.86
   9  -3  22   78.35   61.11
   9  -3  22 -109.10   89.28
  -9   4 -22   80.11  122.58
   9  -4  22   55.41   89.90
   9  -4  22   48.16   59.53
  -9   5 -22  -11.96   61.05
  -9   5 -22  -66.52  132.77
   9  -5  22  106.94  101.07
   9  -5  22   44.46   60.48
  -9   6 -22  -74.09  135.49
  -9   6 -22    4.11   60.76
   9  -6  22   25.87   99.74
   9  -6  22   45.74   55.80
  -9   7 -22  231.94  150.31
  -9   7 -22    4.15   63.59
   9  -7  22 -117.97   57.84
   9  -7  22  136.79  113.84
  -9   8 -22  -37.68   63.08
  -9   8 -22   56.74  142.48
   9  -8  22  -36.69   53.39
   9  -8  22   -4.52  112.93
  -9   9 -22   -4.23   59.48
  -9   9 -22 -177.67  140.63
   9  -9  22    4.55  109.73
   9  -9  22  -36.43   52.22
  -9  10 -22  107.26  136.88
  -9  10 -22    4.25   57.12
   9 -10  22 -168.38  112.43
   9 -10  22   53.27   54.92
  -8  10 -22  -26.97  136.00
  -8  10 -22    4.07   61.96
   8 -10  22    3.02   48.03
   8 -10  22    4.43  114.31
  -7  10 -22 -125.69  132.51
   7 -10  22   -4.23  106.83
  -6  10 -22    3.73   53.59
  -6  10 -22    5.07  125.33
   6 -10  22    4.03   95.24
   6 -10  22    2.82   47.60
  -5  10 -22   -3.56   52.11
  -5  10 -22  -94.61  125.95
   5 -10  22   10.88   45.26
   5 -10  22  -61.92   94.79
  -4  10 -22  -93.12  124.23
  -4  10 -22  -13.58   46.34
   4 -10  22    2.63   45.50
   4 -10  22  -22.26   89.15
  -3  10 -22   -3.24   43.68
  -3  10 -22    4.80  123.55
   3 -10  22 -132.39   91.88
   3 -10  22    2.53   45.14
  -2  10 -22  -67.52   45.51
  -2  10 -22   28.06  117.19
   2 -10  22    3.47   81.85
   2 -10  22   50.72   42.42
  -1  10 -22  139.79  113.93
  -1  10 -22   55.46   40.82
   1 -10  22 -112.02   83.90
   1 -10  22    2.31   39.38
   0  10 -22   55.33   35.07
   0  10 -22   72.72  112.65
   0 -10  22 -179.43   83.81
   0 -10  22   55.20   38.20
   1  10 -22   31.82  100.75
   1  10 -22    7.85   36.51
  -1 -10  22   29.19   35.68
  -1 -10  22   32.63   79.21
  10  -1  22    3.89   60.90
   2  10 -22 -116.03   96.75
 -10   2 -22  -10.65  132.88
   2  10 -22   27.23   34.97
  -2 -10  22   -9.90   34.17
  -2 -10  22   57.63   78.55
  10  -2  22   23.21   69.31
  10  -2  22    4.09   93.70
 -10   3 -22  -73.47  131.96
  10  -3  22   36.42   93.86
  10  -3  22 -125.04   65.62
 -10   4 -22  -15.84  132.68
  10  -4  22   44.01   65.84
  10  -4  22   12.31   98.24
 -10   5 -22   20.65   62.71
 -10   5 -22 -113.71  139.73
  10  -5  22    3.56   64.08
  10  -5  22    4.26  105.12
 -10   6 -22   16.77  143.98
 -10   6 -22   -4.28   64.23
  10  -6  22   53.88  110.20
  10  -6  22  -54.65   59.86
 -10   7 -22   17.44  152.13
 -10   7 -22    4.33   64.23
  10  -7  22   68.98  114.83
  10  -7  22  -16.55   54.92
 -10   8 -22   -4.38   63.70
 -10   8 -22 -114.25  143.99
  10  -8  22   23.80  113.84
  10  -8  22    3.16   55.62
 -10   9 -22    4.39   61.91
 -10   9 -22   -6.08  152.66
  10  -9  22   -3.14   53.48
  10  -9  22   14.46  116.85
 -10  10 -22    4.43   64.52
 -10  10 -22 -149.12  153.07
  10 -10  22 -108.26  124.58
  10 -10  22   -3.24   56.02
 -10  11 -22    4.56   61.22
 -10  11 -22    5.84  144.50
  10 -11  22   10.20  125.17
  10 -11  22    3.32   54.41
  -9  11 -22    4.38   66.99
  -9  11 -22  335.18  160.11
   9 -11  22  247.01   69.04
   9 -11  22  145.33  141.62
  -8  11 -22   -4.20   56.53
  -8  11 -22 -105.24  139.91
   8 -11  22    4.59  109.78
   8 -11  22   -3.10   50.89
  -7  11 -22 -171.08  141.85
   7 -11  22    4.37  109.82
  -6  11 -22   -3.86   56.15
  -6  11 -22   49.72  137.50
   6 -11  22    2.90   48.18
   6 -11  22  116.08  102.91
  -5  11 -22    3.70   50.77
  -5  11 -22   50.17  140.93
   5 -11  22   11.21   46.09
   5 -11  22   63.36   99.98
  -4  11 -22 -163.53  144.17
  -4  11 -22    3.55   51.84
   4 -11  22   30.24   88.42
   4 -11  22   29.65   44.13
  -3  11 -22  118.83  144.18
  -3  11 -22    3.41   43.47
   3 -11  22   57.35   45.78
   3 -11  22   25.44   91.57
  -2  11 -22   -3.27   47.66
  -2  11 -22 -196.20  152.63
   2 -11  22    3.52   86.62
   2 -11  22   12.60   45.08
  -1  11 -22 -146.82  146.07
  -1  11 -22    3.13   45.76
   1 -11  22  225.61   88.44
   1 -11  22   92.29   42.85
   0  11 -22   10.23  129.12
   0  11 -22  -18.09   46.81
   0 -11  22   -4.66   41.62
   0 -11  22   -3.32   80.71
   1  11 -22   79.00  117.13
   1  11 -22   17.58   45.01
  11  -1  22    4.04   74.94
  -1 -11  22  312.33   83.97
 -11   2 -22   84.46  146.55
   2  11 -22  101.85  103.00
  11  -2  22  -52.45   77.51
  -2 -11  22   52.74   80.24
  11  -2  22   -8.56  105.27
 -11   3 -22   44.33  141.30
  11  -3  22  133.98   71.91
  11  -3  22    4.20  101.04
 -11   4 -22   -3.99   54.42
 -11   4 -22   61.14  136.20
  11  -4  22   -3.88   68.78
  11  -4  22    4.24   99.70
 -11   5 -22   22.81  141.91
 -11   5 -22    4.27   62.17
  11  -5  22    3.72   69.36
  11  -5  22   96.53  108.50
 -11   6 -22   13.36   64.82
 -11   6 -22  -70.62  138.54
  11  -6  22 -222.16   63.43
  11  -6  22   -4.61  113.55
 -11   7 -22 -135.46  158.59
 -11   7 -22   18.00   67.72
  11  -7  22   -4.82  121.13
  11  -7  22    3.41   58.57
 -11   8 -22   -4.56   63.80
 -11   8 -22  -19.14  165.46
  11  -8  22   44.91  125.31
  11  -8  22  -38.99   56.42
 -11   9 -22   22.81   83.49
 -11   9 -22  601.99  199.22
  11  -9  22  346.09   75.43
  11  -9  22  334.28  154.86
 -11  10 -22   12.82  151.48
 -11  10 -22    4.60   62.93
  11 -10  22   43.44   60.79
  11 -10  22    5.22  131.74
 -11  11 -22   98.33  149.03
 -11  11 -22    4.75   66.01
  11 -11  22    5.40  130.15
  11 -11  22   -3.40   63.57
 -10  12 -22    5.84  148.47
 -10  12 -22  -34.21   75.69
  10 -12  22   66.27   62.72
  10 -12  22    5.32  125.19
  -9  12 -22    5.79  141.94
  -9  12 -22   -4.69   65.70
   9 -12  22    5.05  131.79
   9 -12  22  -70.90   60.56
  -8  12 -22  -45.03   68.40
  -8  12 -22   46.94  159.06
   8 -12  22   22.86   59.14
   8 -12  22  -95.55  134.03
  -7  12 -22  -18.15  149.77
   7 -12  22   31.75  112.24
  -6  12 -22   12.50   56.18
  -6  12 -22  113.74  167.38
   6 -12  22    3.06   49.46
   6 -12  22   -4.31  100.80
  -5  12 -22    4.02   54.69
  -5  12 -22  -39.87  165.01
   5 -12  22 -222.90  100.19
   5 -12  22    5.93   49.14
  -4  12 -22   70.50  166.19
  -4  12 -22    3.90   54.34
   4 -12  22   -3.97   96.35
   4 -12  22    5.75   48.28
  -3  12 -22    3.79   53.31
  -3  12 -22  -96.84  179.26
   3 -12  22    3.83   89.53
  -2  12 -22 -337.00  185.76
  -2  12 -22    3.69   51.46
   2 -12  22  -14.79   95.74
  -1  12 -22   82.98  193.70
   1 -12  22 -207.04   89.45
   0  12 -22    7.00  178.13
   0 -12  22  340.84  112.21
   1  12 -22   12.19  146.38
  12  -1  22   -4.15   79.21
  -1 -12  22    3.29   85.45
 -12   2 -22 -301.76  220.48
   2  12 -22 -447.07  133.82
  -2 -12  22  -62.10   79.15
 -12   3 -22   69.84  145.74
  12  -3  22   -4.32  100.24
  12  -3  22    8.28   69.37
 -12   4 -22  157.05  149.67
 -12   4 -22   -4.11   57.18
  12  -4  22  -61.05  110.14
  12  -4  22    3.99   67.74
 -12   5 -22    4.42   65.20
 -12   5 -22 -131.71  150.70
  12  -5  22   -3.80   62.95
  12  -5  22  -17.97  114.38
 -12   6 -22  -62.22  156.92
 -12   6 -22 -101.44   71.75
  12  -6  22   10.87   67.31
  12  -6  22    4.72  109.40
 -12   7 -22   25.97  172.81
 -12   7 -22  -70.13   67.79
  12  -7  22    5.02  119.37
  12  -7  22    3.48   67.54
 -12   8 -22   -4.71   72.84
 -12   8 -22  -81.06  192.59
  12  -8  22 -457.00  150.56
  12  -8  22 -212.64   61.81
 -12   9 -22 -137.73  172.07
 -12   9 -22   -4.73   66.57
  12  -9  22    3.39   60.32
  12  -9  22    5.43  139.52
 -12  10 -22    4.74   74.16
 -12  10 -22   13.71  174.31
  12 -10  22   -6.86   59.99
  12 -10  22  -27.81  136.67
 -12  11 -22    6.61  165.16
  12 -11  22    5.69  132.44
  -9  13 -22   -6.06  157.29
   9 -13  22    5.31  126.72
   8 -13  22    5.04  129.86
  13  -1  22   72.83   76.50
 -13   2 -22   -6.20  148.49
  13  -2  22   -4.29   83.98
 -13   3 -22  -85.08  157.94
  13  -3  22   -8.89  112.99
  13  -3  22 -255.18   77.13
 -13   4 -22    4.22   63.31
 -13   4 -22  146.16  155.96
  13  -4  22    4.46  107.80
  13  -4  22   -4.11   71.10
 -13   5 -22   22.84   68.08
 -13   5 -22   25.05  161.02
  13  -5  22   61.83   67.97
  13  -5  22    4.58  110.00
 -13   6 -22  -85.14  177.11
 -13   6 -22    4.74   70.01
  13  -6  22   57.80  124.28
  13  -6  22  122.19   69.60
 -13   7 -22  -43.41   74.04
 -13   7 -22 -192.42  175.31
  13  -7  22    5.13  129.13
  13  -7  22    3.50   63.82
 -13   8 -22  -43.18  185.64
 -13   8 -22    4.86   71.94
  13  -8  22   21.70  141.16
  13  -8  22   10.26   58.17
 -13   9 -22   59.23  187.94
 -13   9 -22    4.84   70.84
  13  -9  22    6.90   61.04
  13  -9  22  159.10  134.85
 -13  10 -22    4.90   57.82
 -13  10 -22  -44.28  189.50
  13 -10  22   17.80  153.00
  14  -2  22 -132.71   84.02
 -14   3 -22    3.86   53.39
 -14   3 -22 -139.18  160.47
  14  -3  22   13.73  117.88
  14  -3  22   38.23   80.08
 -14   4 -22  -38.06  156.71
 -14   4 -22   -4.36   63.32
  14  -4  22   18.20  103.50
  14  -4  22   69.21   77.96
 -14   5 -22    4.71   66.23
 -14   5 -22   77.98  164.48
  14  -5  22 -153.45   69.61
  14  -5  22    4.66  108.07
 -14   6 -22    4.87   68.81
 -14   6 -22  137.29  178.65
  14  -6  22    3.69   62.45
  14  -6  22   34.12  117.46
 -14   7 -22 -152.40  187.64
 -14   7 -22   24.82   68.82
  14  -7  22 -321.85  131.18
  14  -7  22    3.49   60.52
 -14   8 -22  -99.93   67.69
 -14   8 -22   84.15  203.73
  14  -8  22    3.42   57.21
  14  -8  22   95.37  138.67
 -14   9 -22  -31.78  207.59
  14  -9  22   -5.90  149.49
  14  -9  22  132.12   67.70
 -15   3 -22    4.02   58.09
 -15   4 -22   -4.51   66.75
 -15   4 -22  -32.69  167.57
 -15   5 -22   -4.85   64.32
 -15   5 -22 -154.83  184.44
  15  -5  22    7.53   63.87
  15  -5  22    4.70  114.99
 -15   6 -22  -42.79  181.29
 -15   6 -22    5.00   72.30
  15  -6  22   -4.90  124.59
  15  -6  22  -61.35   64.20
 -15   7 -22  -22.96  204.19
 -15   7 -22   40.64   68.64
  15  -7  22  -36.60  124.06
  15  -7  22  -78.84   58.35
 -15   8 -22    5.07   67.78
 -15   8 -22   -8.16  204.91
  15  -8  22  -11.32  136.43
  15  -8  22    3.46   63.38
   0  -1  23  205.43   73.28
  -1  -1  23  -53.59   69.93
   1  -1  23   53.98   68.07
  -1   2 -23   -7.18   84.21
  -2  -1  23   89.35   66.00
   1  -2  23  -82.67   73.48
   1  -2  23   -5.91   52.98
   0   2 -23   24.10   84.80
   0  -2  23  -75.15   68.43
   0  -2  23    2.93   50.29
   1   2 -23  -95.31   77.08
  -1  -2  23   11.60   51.78
  -2   2 -23 -232.35   91.17
   2   2 -23  -25.02   71.75
   2  -2  23   -3.15   71.00
  -2  -2  23   42.90   49.11
  -3  -2  23   66.35   54.76
  -1   3 -23   17.52   87.24
   1  -3  23    5.85   70.19
  -3  -1  23   24.77   62.93
   0   3 -23    3.35   79.73
   0  -3  23   88.13   49.43
   0  -3  23   78.54   66.58
   1   3 -23   25.47   80.91
  -1  -3  23   53.17   43.79
  -1  -3  23  -43.23   62.14
   2   3 -23  202.01   75.67
  -2  -3  23   80.60   52.30
  -2  -3  23  125.41   60.98
   3   3 -23  -79.30   68.11
  -3  -3  23   -7.66   45.57
  -3  -3  23  -23.08   63.12
   3  -4  23   13.66   54.27
  -1   4 -23  106.51   92.36
   1  -4  23  133.32   74.79
   0   4 -23   87.97   84.86
   0  -4  23  -56.31   68.18
   0  -4  23   10.24   46.82
   1   4 -23   83.30   82.76
  -1  -4  23  139.55   51.21
   4  -1  23    3.71   66.89
  -1  -4  23  165.37   70.15
   2   4 -23  -12.08   73.98
  -2  -4  23   14.99   45.21
  -2  -4  23   50.67   58.04
   4  -2  23    3.12   55.13
   3   4 -23  138.04   78.79
  -3  -4  23   87.60   52.04
  -3  -4  23   74.65   65.21
   4  -3  23  191.02   58.71
  -4   4 -23  -65.38  102.81
   4  -4  23   -3.40   80.55
   4  -4  23   -2.82   47.82
  -4   5 -23  167.55  115.58
   4  -5  23  106.33   54.52
   4  -5  23  128.58   97.82
  -3   5 -23  -12.00  105.83
   3  -5  23   24.43   49.92
   3  -5  23    3.44   81.34
   2  -5  23   42.49   47.61
   0   5 -23   -3.50   89.14
   0   5 -23   -2.90   35.85
   0  -5  23  -81.07   69.98
   1   5 -23    8.14   39.56
  -5   1 -23  -30.83  102.97
   1   5 -23    3.32   80.71
   5  -1  23 -155.62   66.77
  -1  -5  23   31.19   68.74
  -1  -5  23   42.26   44.03
   2   5 -23  -12.56   78.44
  -5   2 -23  -64.46  103.32
   2   5 -23   30.14   37.96
   5  -2  23   21.15   81.20
  -2  -5  23   -2.36   41.22
  -2  -5  23   37.21   65.14
   5  -2  23    3.22   53.71
   3   5 -23   -4.61   33.28
  -5   3 -23   33.87   99.47
   5  -3  23   60.40   53.12
   5  -3  23    3.49   73.22
  -3  -5  23  -27.28   61.98
  -3  -5  23   73.37   39.07
  -5   4 -23  141.60  112.94
   5  -4  23  124.42   92.10
   5  -4  23  111.76   58.00
  -5   5 -23   -4.39  117.05
   5  -5  23    2.91   49.17
   5  -5  23    3.71   86.24
  -5   6 -23  -73.05   57.37
  -5   6 -23  -95.91  125.57
   5  -6  23 -124.08   54.68
   5  -6  23 -152.98   94.23
  -4   6 -23  -47.98  121.16
  -4   6 -23    6.97   49.25
   4  -6  23    3.68   91.20
   4  -6  23    2.78   52.99
  -3   6 -23   -6.65   50.48
  -3   6 -23  -16.71  112.63
   3  -6  23  -43.25   48.32
   3  -6  23   17.75   90.96
  -2   6 -23   -3.16   48.63
  -2   6 -23   76.14  103.97
   2  -6  23  470.75   94.38
   2  -6  23  122.06   53.22
  -1   6 -23  -50.92   46.34
   1  -6  23    2.53   43.28
  -6   1 -23  -78.50  106.31
   1   6 -23   -2.65   34.97
   1   6 -23 -172.59   95.85
  -1  -6  23  -64.72   82.46
   2   6 -23   51.73   36.60
  -6   2 -23   31.60  114.49
   2   6 -23  281.20   94.67
   6  -2  23   95.51   92.57
  -2  -6  23   59.53   43.03
  -6   3 -23   -8.90  111.14
   6  -3  23  -65.56   89.78
  -3  -6  23  -33.00   72.90
  -3  -6  23   -2.04   35.86
  -6   4 -23   31.60  113.31
   6  -4  23   -3.71   83.27
  -6   5 -23    3.81   53.25
  -6   5 -23  -73.66  109.51
   6  -5  23  -19.31   95.03
  -6   6 -23  -57.54  120.51
  -6   6 -23    3.82   57.99
   6  -6  23   39.92   98.90
   6  -6  23    3.01   54.71
  -6   7 -23   -3.85   55.17
  -6   7 -23   29.94  127.99
   6  -7  23    2.93   50.12
   6  -7  23    4.07   96.83
  -5   7 -23   -3.67   51.98
  -5   7 -23   90.65  139.63
   5  -7  23  -78.32   97.59
   5  -7  23   -2.82   51.03
  -4   7 -23 -488.51  191.07
  -4   7 -23    3.49   64.94
   4  -7  23 -152.63   78.31
  -3   7 -23   -3.31   49.22
  -3   7 -23   70.01  118.79
   3  -7  23 -154.05   88.34
   3  -7  23    2.64   46.46
  -2   7 -23 -147.13  116.16
  -2   7 -23 -122.43   47.07
   2  -7  23  -41.20   47.23
   2  -7  23   53.59   87.74
  -1   7 -23  202.17  111.32
  -1   7 -23  -23.74   42.47
   1  -7  23  124.61   45.04
   1  -7  23  -66.38   87.38
   0   7 -23  -41.91   42.05
   0  -7  23  -61.93   44.04
  -7   1 -23  -33.98  112.83
   7  -1  23  128.16   65.54
   2   7 -23 -156.50   96.73
  -7   2 -23 -114.05  116.05
   7  -2  23    3.46   61.18
   7  -2  23   11.50   92.65
  -2  -7  23   44.95   81.21
  -7   3 -23   46.93  114.60
   7  -3  23   72.85   57.77
   7  -3  23    3.81   90.69
  -7   4 -23   28.50  118.70
   7  -4  23    3.22   54.70
   7  -4  23   85.08   92.27
  -7   5 -23    3.94   60.52
  -7   5 -23    4.86  117.60
   7  -5  23    4.01   98.50
   7  -5  23    3.17   57.39
  -7   6 -23   -3.99   57.00
  -7   6 -23   25.22  127.23
   7  -6  23   -4.18  104.03
   7  -6  23    3.11   55.02
  -7   7 -23 -131.28  135.48
   7  -7  23    4.24   97.14
  -7   8 -23   32.53  147.20
   7  -8  23    4.30  110.47
  -6   8 -23    3.86   52.57
  -6   8 -23   41.31  135.32
   6  -8  23   24.49   98.95
   6  -8  23    2.89   48.56
  -5   8 -23  -66.21   53.71
  -5   8 -23    9.86  123.11
   5  -8  23   -3.91   90.08
   5  -8  23    2.78   49.15
  -4   8 -23 -113.08  117.32
  -4   8 -23    3.50   48.23
   4  -8  23    3.77   92.24
   4  -8  23    2.68   47.42
  -3   8 -23   -3.32   49.17
  -3   8 -23  -72.24  114.93
   3  -8  23   25.62   92.81
   3  -8  23   -2.59   47.25
  -2   8 -23    3.15   39.11
  -2   8 -23   -4.34  109.63
   2  -8  23   32.23   88.08
   2  -8  23    9.97   41.22
  -1   8 -23  222.66  111.84
  -1   8 -23   35.84   44.48
   1  -8  23    3.52   91.15
   1  -8  23   28.60   41.18
   0   8 -23   -2.81   38.57
   0   8 -23   71.22  101.49
   0  -8  23   11.28   37.03
   0  -8  23  -45.18   83.67
   1   8 -23    5.25   40.02
   1   8 -23   -3.82   88.30
   8  -1  23    3.85   67.73
  -8   2 -23   35.09  122.46
   8  -2  23   12.00   99.62
   8  -2  23  -69.00   62.09
  -8   3 -23  109.12  122.02
   8  -3  23   -3.53   60.71
   8  -3  23    3.97   92.61
  -8   4 -23   20.04  125.75
   8  -4  23    4.03   94.18
   8  -4  23   -3.43   59.63
  -8   5 -23  -25.65  123.14
  -8   5 -23   -4.06   58.41
   8  -5  23   25.03  107.37
   8  -5  23    3.36   59.57
  -8   6 -23  -37.07  126.71
  -8   6 -23    4.16   61.65
   8  -6  23    3.27   57.45
   8  -6  23   61.17  112.89
  -8   7 -23   -5.53  151.51
  -8   7 -23    4.21   59.25
   8  -7  23    4.43  115.32
   8  -7  23  179.70   59.91
  -8   8 -23    5.71  138.53
  -8   8 -23   -4.25   61.37
   8  -8  23 -165.60   57.10
   8  -8  23  -18.12  117.00
  -8   9 -23    4.29   63.05
  -8   9 -23  -23.28  147.77
   8  -9  23    3.11   54.02
   8  -9  23    4.53  110.50
  -7   9 -23   99.66  146.56
   7  -9  23    4.29   99.96
  -6   9 -23  -41.85  138.59
  -6   9 -23   -7.79   55.34
   6  -9  23   -2.88   51.82
   6  -9  23   -4.10  101.90
  -5   9 -23   -3.71   52.56
  -5   9 -23 -100.28  123.45
   5  -9  23   -2.78   46.79
   5  -9  23    3.95   93.11
  -4   9 -23    3.54   51.38
  -4   9 -23  -33.78  127.55
   4  -9  23    3.83   89.56
   4  -9  23    2.68   48.43
  -3   9 -23   -3.37   47.20
  -3   9 -23    4.63  120.70
   3  -9  23    2.58   45.02
   3  -9  23    3.73   92.29
  -2   9 -23    3.18   44.52
  -2   9 -23    4.46  112.94
   2  -9  23  -22.31   43.14
   2  -9  23   -3.65   89.78
  -1   9 -23   15.05   39.46
  -1   9 -23 -111.22  116.58
   1  -9  23  -53.15   39.75
   1  -9  23 -129.87   95.15
   0   9 -23  110.22  104.84
   0   9 -23  -22.65   38.82
   0  -9  23  -75.87   42.75
   0  -9  23   17.83   94.03
   1   9 -23 -119.62   98.80
   1   9 -23   42.08   36.22
   9  -1  23   -3.97   69.10
  -1  -9  23   10.59   87.10
  -1  -9  23    4.32   37.12
   2   9 -23   19.37   36.54
   2   9 -23  137.39   95.23
  -9   2 -23  -10.59  125.42
  -2  -9  23   27.68   84.05
   9  -2  23   -4.18   91.15
   9  -2  23   11.38   63.41
  -2  -9  23   -2.01   33.59
  -9   3 -23   20.97  122.41
   9  -3  23    4.14   97.98
   9  -3  23   -3.71   61.60
  -9   4 -23  -42.28  131.99
   9  -4  23  -41.96  104.49
   9  -4  23   -3.67   68.22
  -9   5 -23   -4.19   63.90
  -9   5 -23  -32.49  130.83
   9  -5  23    3.58   62.45
   9  -5  23    4.34  101.61
  -9   6 -23    4.33   67.32
  -9   6 -23  -78.26  142.41
   9  -6  23   -4.55  115.81
   9  -6  23  -82.75   59.80
  -9   7 -23  -74.79   62.82
  -9   7 -23   63.91  151.38
   9  -7  23   10.13   59.16
   9  -7  23   -4.64  112.60
  -9   8 -23    4.45   62.94
  -9   8 -23 -156.10  150.23
   9  -8  23    4.76  115.90
   9  -8  23    3.25   54.12
  -9   9 -23   61.32  152.50
  -9   9 -23    4.49   60.10
   9  -9  23   41.95   55.15
   9  -9  23  -19.20  116.32
  -9  10 -23 -139.96  166.02
  -9  10 -23   -4.51   66.27
   9 -10  23   -3.30   58.38
   9 -10  23    4.85  131.30
  -8  10 -23   -4.31   61.16
  -8  10 -23 -139.73  150.43
   8 -10  23   41.62  118.46
   8 -10  23   -3.19   55.61
  -7  10 -23  179.41  144.26
   7 -10  23   -4.41  108.58
  -6  10 -23   32.49  136.84
  -6  10 -23    3.93   54.76
   6 -10  23   65.31   52.27
   6 -10  23    8.45  110.61
  -5  10 -23   33.76   51.84
  -5  10 -23  -58.15  123.10
   5 -10  23    4.05  103.73
   5 -10  23   28.58   49.60
  -4  10 -23   56.80  126.78
  -4  10 -23  -42.89   53.00
   4 -10  23    7.82  101.27
   4 -10  23  102.17   46.95
  -3  10 -23    3.40   44.79
  -3  10 -23  -79.83  131.82
   3 -10  23    3.80   91.21
   3 -10  23   24.03   47.11
  -2  10 -23 -197.18   47.55
  -2  10 -23   48.40  125.72
   2 -10  23    3.72   91.15
   2 -10  23    2.57   43.22
  -1  10 -23 -106.80  119.74
  -1  10 -23    3.05   42.36
   1 -10  23    2.44   42.84
   1 -10  23   65.58   93.74
   0  10 -23   70.23  113.86
   0  10 -23  -25.95   37.27
   0 -10  23   48.71   38.04
   0 -10  23 -111.11   88.59
   1  10 -23   -8.16  102.23
   1  10 -23  108.51   38.40
  -1 -10  23  -17.45   37.40
  -1 -10  23  -74.11   86.24
 -10   2 -23  -50.42  136.67
   2  10 -23 -204.96  101.23
   2  10 -23  -25.52   38.26
  10  -2  23   43.82  102.48
  10  -2  23   20.13   69.77
  -2 -10  23  -58.84   89.54
  -2 -10  23  -30.86   38.48
 -10   3 -23   -5.54  140.30
  10  -3  23   34.44   99.84
  10  -3  23    3.95   72.57
 -10   4 -23    5.56  142.22
  10  -4  23   34.88  110.11
  10  -4  23    3.83   70.97
 -10   5 -23  108.60  143.82
 -10   5 -23    4.30   60.84
  10  -5  23  -63.61   64.61
  10  -5  23   -4.50  105.27
 -10   6 -23    4.50   66.08
 -10   6 -23  -35.33  144.75
  10  -6  23   18.11   58.14
  10  -6  23   -4.70  114.42
 -10   7 -23 -141.27  156.81
 -10   7 -23    4.58   66.43
  10  -7  23    3.52   59.96
  10  -7  23    4.89  114.49
 -10   8 -23  -69.97  151.64
 -10   8 -23    4.65   67.11
  10  -8  23    5.00  119.53
  10  -8  23   10.13   59.23
 -10   9 -23 -239.77  174.70
 -10   9 -23    4.70   69.94
  10  -9  23   -5.11  130.72
  10  -9  23 -100.26   59.93
 -10  10 -23  -58.27  156.78
 -10  10 -23  -51.79   66.45
  10 -10  23    5.16  126.73
  10 -10  23   10.27   58.87
 -10  11 -23   31.63  158.20
 -10  11 -23    4.82   66.41
  10 -11  23    5.30  129.84
  10 -11  23  -38.46   60.46
  -9  11 -23  -61.16  155.46
  -9  11 -23   -4.62   60.08
   9 -11  23    6.75   57.97
   9 -11  23   -5.04  117.32
  -8  11 -23    4.42   57.12
  -8  11 -23 -136.88  156.12
   8 -11  23    4.79  125.18
   8 -11  23    3.26   56.63
  -7  11 -23  -47.05  141.98
   7 -11  23    4.56  110.18
  -6  11 -23    4.05   57.77
  -6  11 -23 -121.83  148.96
   6 -11  23    3.04   53.03
   6 -11  23    4.38  103.79
  -5  11 -23   65.82   57.70
  -5  11 -23   34.88  151.99
   5 -11  23    2.94   51.66
   5 -11  23    4.18  100.06
  -4  11 -23    3.70   52.30
  -4  11 -23 -302.34  143.91
   4 -11  23    4.02   99.51
   4 -11  23   14.21   48.86
  -3  11 -23  -11.51  145.70
  -3  11 -23    3.54   48.69
   3 -11  23   -3.88   92.01
   3 -11  23    2.73   46.86
  -2  11 -23   -3.39   48.15
  -2  11 -23  -95.94  154.43
   2 -11  23  -60.35   95.15
   2 -11  23   42.13   47.65
  -1  11 -23   27.09  138.63
  -1  11 -23    3.23   46.41
   1 -11  23   -2.53   41.45
   1 -11  23   77.04   95.32
   0  11 -23  -45.53  123.04
   0  11 -23   15.43   46.24
   0 -11  23    3.57   89.72
   0 -11  23   53.38   43.28
   1  11 -23   32.66   42.07
   1  11 -23 -151.14  125.05
  -1 -11  23  125.13   92.37
 -11   2 -23   94.42  145.84
   2  11 -23  -17.21   39.88
   2  11 -23  100.80  104.23
  11  -2  23    4.19   79.13
  -2 -11  23   -3.36   86.86
  11  -2  23   32.21  108.80
 -11   3 -23  -52.51  138.64
  11  -3  23    4.11   74.55
  11  -3  23   -4.45  100.09
 -11   4 -23   -5.85  151.20
  11  -4  23  105.89   75.81
  11  -4  23   36.04  106.43
 -11   5 -23   88.59   66.83
 -11   5 -23  -72.32  151.68
  11  -5  23   19.68   68.99
  11  -5  23   -9.27  114.71
 -11   6 -23    4.67   70.68
 -11   6 -23  143.30  159.40
  11  -6  23 -198.53  123.87
  11  -6  23   74.97   67.38
 -11   7 -23  -57.19   68.61
 -11   7 -23  116.47  167.78
  11  -7  23  -10.22  129.34
  11  -7  23    3.65   58.38
 -11   8 -23    4.85   74.79
 -11   8 -23  221.35  181.18
  11  -8  23   13.92   60.54
  11  -8  23  -83.65  134.39
 -11   9 -23    4.86   70.71
 -11   9 -23  -13.68  178.40
  11  -9  23   21.65  136.45
  11  -9  23  -65.58   56.21
 -11  10 -23   27.42  178.33
 -11  10 -23   -4.90   70.76
  11 -10  23   10.99  140.67
  11 -10  23    3.55   57.52
 -11  11 -23 -107.48  165.32
  11 -11  23    3.62   47.57
  11 -11  23    5.60  141.61
 -10  12 -23  119.20  157.88
  -9  12 -23  -37.38  153.31
  -9  12 -23    4.90   72.15
   9 -12  23   14.14   62.69
   9 -12  23   -5.25  147.46
  -8  12 -23   37.38  160.73
  -8  12 -23    4.69   64.03
   8 -12  23   10.25   58.79
   8 -12  23   -5.02  126.86
  -7  12 -23 -204.00  172.57
   7 -12  23   -4.77  129.55
  -6  12 -23   98.47  174.58
  -6  12 -23    4.31   65.52
   6 -12  23  -81.95  113.88
   6 -12  23 -194.77   56.90
  -5  12 -23  -61.46  167.00
  -5  12 -23    4.15   57.92
   5 -12  23    3.10   54.50
   5 -12  23   -4.36  108.11
  -4  12 -23  -28.40  183.39
  -4  12 -23    3.99   51.44
   4 -12  23   16.77  105.36
   4 -12  23   78.00   50.90
  -3  12 -23    7.71   53.68
  -3  12 -23  -80.22  188.27
   3 -12  23    4.03   94.32
   3 -12  23    2.90   48.43
  -2  12 -23    3.74   52.16
  -2  12 -23   36.57  181.67
   2 -12  23    3.91   93.38
  -1  12 -23   14.55   52.94
  -1  12 -23   63.57  182.41
   1 -12  23  109.84   96.24
   0  12 -23  181.45  170.57
   0 -12  23    3.65   91.05
   1  12 -23   50.73  137.24
  -1 -12  23  192.18   90.55
 -12   2 -23 -192.09  205.76
  12  -2  23   -4.39   86.87
 -12   3 -23  -79.57  150.09
  12  -3  23  -86.52   78.10
  12  -3  23   -4.60  106.32
 -12   4 -23  -73.81  151.22
 -12   4 -23   -4.17   61.75
  12  -4  23  -50.49   75.04
  12  -4  23   13.92  109.93
 -12   5 -23  -56.87  156.52
 -12   5 -23  -13.68   67.92
  12  -5  23   -9.53  113.21
  12  -5  23    4.10   76.07
 -12   6 -23   -4.83   74.17
 -12   6 -23  -85.46  169.01
  12  -6  23 -244.25  137.58
  12  -6  23   -3.88   69.45
 -12   7 -23   -4.94   83.36
 -12   7 -23 -178.06  189.45
  12  -7  23 -235.82   75.33
  12  -7  23 -352.98  149.86
 -12   8 -23   -5.03   70.13
 -12   8 -23  -78.31  179.90
  12  -8  23  -89.10   58.86
  12  -8  23    5.50  142.56
 -12   9 -23   14.59  173.15
 -12   9 -23   65.63   69.78
  12  -9  23    5.69  143.77
  12  -9  23   25.28   58.92
 -12  10 -23   -7.29  190.97
  12 -10  23   10.96   65.61
  12 -10  23   58.79  146.01
  -8  13 -23  136.05  168.42
   8 -13  23    5.30  126.89
  -7  13 -23   -5.05   71.67
  -7  13 -23  153.16  189.68
   7 -13  23  162.55  126.00
  -6  13 -23 -150.96   70.12
  -6  13 -23  -71.81  203.63
   6 -13  23   -4.87  116.66
  -5  13 -23 -424.92  249.21
   5 -13  23 -216.08  120.75
  -4  13 -23 -189.15  268.52
   4 -13  23    4.54  114.73
  13  -2  23    4.48   77.42
 -13   3 -23  -64.00  165.89
  13  -3  23    4.40   76.76
  13  -3  23    4.74  112.11
 -13   4 -23  264.22  177.28
 -13   4 -23 -123.79   69.20
  13  -4  23   21.84   86.89
  13  -4  23    4.75  120.90
 -13   5 -23  -70.52   74.72
 -13   5 -23  118.71  167.99
  13  -5  23   -4.88  117.30
  13  -5  23 -128.52   73.34
 -13   6 -23    4.96   71.37
 -13   6 -23 -159.08  177.88
  13  -6  23    5.09  129.04
  13  -6  23  -79.32   74.69
 -13   7 -23    5.12   77.20
 -13   7 -23  -79.57  185.06
  13  -7  23   -3.79   65.52
  13  -7  23   16.16  136.01
 -13   8 -23   22.63  198.33
 -13   8 -23  -51.82   73.40
  13  -8  23 -145.02   67.14
 -13   9 -23  356.89  208.56
 -13   9 -23 -109.60   71.70
  13  -9  23    5.95  144.45
  13  -9  23  -84.88   66.36
  14  -2  23   22.39   80.66
 -14   3 -23  -26.63  164.03
  14  -3  23    4.49   79.98
  14  -3  23  -24.60  111.84
 -14   4 -23   93.78  162.86
 -14   4 -23  -52.69   61.01
  14  -4  23   17.41   72.44
  14  -4  23    4.84  111.78
 -14   5 -23 -164.73   74.59
 -14   5 -23  144.28  176.96
  14  -5  23 -178.93   77.93
  14  -5  23    4.95  123.86
 -14   6 -23  -43.40  186.95
 -14   6 -23   25.49   80.54
  14  -6  23   52.02   68.64
  14  -6  23    5.16  125.99
 -14   7 -23 -114.77  193.40
 -14   7 -23    5.26   72.26
  14  -7  23  -33.99   65.46
  14  -7  23 -131.57  130.25
 -14   8 -23  209.12  210.52
  14  -8  23  -23.51  150.74
  14  -8  23    3.70   63.46
 -15   3 -23   -3.96   59.96
 -15   3 -23  171.45  165.40
  15  -3  23    4.42   75.54
 -15   4 -23   13.61   63.59
 -15   4 -23  -96.66  171.14
  15  -4  23    4.32   76.63
  15  -4  23    4.91  111.53
 -15   5 -23  -39.90   69.45
 -15   5 -23   57.07  177.48
  15  -5  23 -185.31  116.49
  15  -5  23  -61.24   72.81
 -15   6 -23    5.23   70.96
 -15   6 -23 -195.77  191.21
  15  -6  23    5.22  123.90
  15  -6  23    3.93   66.07
 -15   7 -23 -169.44  207.49
  15  -7  23   11.06  134.66
   0  -1  24   90.27   86.93
  -1  -1  24  393.22  109.54
  -2  -1  24  -64.67   76.43
   0   2 -24  -28.96   90.19
   0  -2  24  254.99   61.91
   1   2 -24   17.25   80.44
  -1  -2  24    6.39   59.03
  -2  -2  24    6.29   55.94
  -3  -2  24   -3.02   53.89
   2  -3  24   17.55   52.20
  -3  -1  24  -16.15   70.91
   0   3 -24   78.05   89.93
   0  -3  24   11.98   69.66
   1   3 -24  -97.66   81.61
  -1  -3  24  -40.07   50.77
  -1  -3  24   48.96   70.26
   2   3 -24    6.35   78.20
  -2  -3  24   27.95   51.70
  -2  -3  24  -61.51   68.12
   3  -2  24    3.32   55.93
   3  -2  24  299.68   82.44
   3   3 -24   26.88   73.76
  -3   3 -24  -73.38  102.14
   3  -3  24   35.81   50.72
  -3  -3  24    2.77   69.99
  -3  -3  24   19.22   48.41
   3  -3  24  -33.94   80.33
  -3   4 -24    4.13  111.65
   3  -4  24  103.20   83.99
   3  -4  24   69.02   54.22
  -2   4 -24  512.41   92.99
   2  -4  24  568.54   80.27
   1   4 -24   10.17   83.61
  -1  -4  24  102.67   45.37
  -1  -4  24 -105.07   72.08
   2   4 -24 -168.77   91.35
  -4   2 -24  -56.15  100.21
  -2  -4  24  -32.02   48.01
   4  -2  24  -81.08   61.05
   4  -2  24    3.61   91.81
  -2  -4  24  -96.98   70.37
  -4   3 -24  136.60  113.90
   4  -3  24   -3.07   52.33
   4  -3  24  209.20   96.71
  -3  -4  24  310.44   76.80
  -3  -4  24   -2.54   47.76
  -4   4 -24   -8.65  105.03
   4  -4  24    2.96   51.02
   4  -4  24  -21.57   80.85
  -4   5 -24   17.75  115.39
   4  -5  24   55.58   51.29
   4  -5  24    3.75   86.92
  -3   5 -24   21.21  102.29
   3  -5  24    3.60   82.19
   3  -5  24  -34.15   51.09
  -2   5 -24  -81.21   99.88
   2  -5  24   27.91   47.75
   2  -5  24  -24.21   88.00
  -1   5 -24   83.64   52.34
   1  -5  24  -16.24   52.32
   1   5 -24  558.52  103.23
  -1  -5  24  -44.74   77.97
   2   5 -24  -38.03   41.96
  -5   2 -24   -9.05  111.11
   5  -2  24    6.92   59.56
  -2  -5  24   70.87   48.38
  -2  -5  24  -30.81   74.39
   5  -2  24    3.76   98.13
  -5   3 -24   67.24  107.12
   5  -3  24   -9.57   54.68
   5  -3  24   11.11   87.38
  -5   4 -24   18.15  110.22
   5  -4  24    3.75   88.86
   5  -4  24    9.23   50.49
  -5   5 -24    4.65  116.33
   5  -5  24    9.11   57.09
   5  -5  24   -3.90   98.67
  -5   6 -24    3.91   58.98
  -5   6 -24   14.48  126.83
   5  -6  24    4.08  101.28
   5  -6  24 -147.88   52.92
  -4   6 -24  -18.52  124.10
  -4   6 -24   -3.75   53.31
   4  -6  24  176.82   96.09
   4  -6  24   -2.92   51.23
  -3   6 -24   13.31  117.65
  -3   6 -24    7.15   54.72
   3  -6  24 -104.99   50.80
   3  -6  24    3.80   90.19
  -2   6 -24   -8.52  109.49
  -2   6 -24    3.40   50.85
   2  -6  24   13.88   50.25
   2  -6  24  -58.78   92.58
  -1   6 -24  -73.59  112.83
  -1   6 -24   -3.22   49.67
   1  -6  24 -145.81   90.76
   1  -6  24 -144.73   53.41
   0   6 -24    3.04   45.72
   0  -6  24   -2.61   45.75
  -6   2 -24  -76.01  116.93
   2   6 -24  -81.29   88.47
  -2  -6  24   12.40   81.14
   6  -2  24  -35.27   87.54
  -6   3 -24  254.41  118.23
   6  -3  24    3.87   90.62
  -6   4 -24  -85.82  122.86
   6  -4  24    3.92   89.53
   6  -4  24    3.17   60.01
  -6   5 -24    4.07   59.82
  -6   5 -24  -73.34  126.36
   6  -5  24  -19.07   56.16
   6  -5  24  -77.14  100.36
  -6   6 -24  146.62  124.97
  -6   6 -24    4.07   61.61
   6  -6  24  -16.98  108.83
   6  -6  24    6.29   55.66
  -6   7 -24   65.55   61.82
  -6   7 -24  158.95  137.02
   6  -7  24  -52.34   55.45
   6  -7  24    4.29  103.79
  -5   7 -24  -55.72  125.65
  -5   7 -24    3.91   56.89
   5  -7  24   91.07  101.56
   5  -7  24    2.96   54.88
  -4   7 -24  -67.87  122.08
  -4   7 -24   -3.73   50.75
   4  -7  24   -2.87   55.91
   4  -7  24    4.00  104.03
  -3   7 -24   13.96  112.90
  -3   7 -24   14.18   51.94
   3  -7  24  -30.63   52.47
   3  -7  24 -155.66  102.49
  -2   7 -24  254.93  113.98
  -2   7 -24    3.36   47.05
   2  -7  24    2.71   48.10
   2  -7  24    3.80   94.12
  -1   7 -24  -12.70   47.12
  -1   7 -24  -25.82  114.33
   1  -7  24  -68.85   44.83
   1  -7  24  -59.45   95.56
   0   7 -24  -41.38  104.54
   0   7 -24  -35.82   45.12
   0  -7  24  -87.08   88.90
   0  -7  24   -7.65   47.33
   1   7 -24  -16.75   40.76
   1   7 -24   -3.96   82.59
  -1  -7  24   -3.52   76.96
  -1  -7  24   -4.82   41.23
  -7   2 -24   24.99  121.19
   7  -2  24    4.09   91.77
   7  -2  24    3.66   62.51
  -7   3 -24  -39.70  114.72
   7  -3  24    4.04   90.38
   7  -3  24    6.94   59.35
  -7   4 -24  -10.03  125.91
   7  -4  24  -81.89   93.11
   7  -4  24   63.77   59.21
  -7   5 -24  -30.86  133.93
   7  -5  24    4.23  105.47
  -7   6 -24   85.02  128.51
   7  -6  24  -39.79  112.05
  -7   7 -24  298.91  149.12
   7  -7  24    4.47  113.29
  -7   8 -24   69.19  145.31
   7  -8  24    4.55  106.64
  -6   8 -24    4.10   58.56
  -6   8 -24   71.58  147.93
   6  -8  24   -4.36  107.69
   6  -8  24   -3.05   55.45
  -5   8 -24 -100.12  135.79
  -5   8 -24    3.90   54.70
   5  -8  24  -87.80  111.76
   5  -8  24    2.94   49.64
  -4   8 -24   26.03   50.99
  -4   8 -24    5.05  137.74
   4  -8  24   28.41   51.90
   4  -8  24  -12.10  102.99
  -3   8 -24   -3.54   49.99
  -3   8 -24 -121.30  125.10
   3  -8  24  403.37  103.18
   3  -8  24   -2.75   50.61
  -2   8 -24 -107.35  121.27
  -2   8 -24    3.35   48.71
   2  -8  24    3.83   92.42
   2  -8  24    2.65   45.34
  -1   8 -24  -31.44  113.39
  -1   8 -24   47.57   46.29
   1  -8  24  101.94   99.41
   1  -8  24   35.65   47.35
   0   8 -24    4.31  107.93
   0   8 -24   83.61   47.32
   0  -8  24   38.67   45.23
   0  -8  24    3.73   93.41
   1   8 -24  -25.05   42.08
   1   8 -24  -16.49  109.10
  -1  -8  24  -55.23   96.70
  -1  -8  24  -47.58   39.37
   2   8 -24  -36.12   39.09
  -8   2 -24 -110.85  130.97
  -2  -8  24   27.56   40.79
   8  -2  24   -3.82   64.77
   8  -2  24   42.78  100.48
  -8   3 -24  -47.18  127.15
   8  -3  24 -106.85   64.83
   8  -3  24    4.22   98.78
  -8   4 -24  -42.28  133.02
   8  -4  24   -3.57   63.23
   8  -4  24  -64.15   99.99
  -8   5 -24   -5.42  142.49
  -8   5 -24  -64.16   63.06
   8  -5  24    3.50   62.47
   8  -5  24   -4.40   98.88
  -8   6 -24   16.79  139.70
  -8   6 -24   -8.79   66.84
   8  -6  24  151.25  114.75
   8  -6  24  -82.33   58.83
  -8   7 -24    4.46   61.77
  -8   7 -24 -104.84  143.08
   8  -7  24    9.39  118.08
   8  -7  24 -117.96   58.55
  -8   8 -24    4.51   66.74
  -8   8 -24  -42.31  146.96
   8  -8  24   -3.31   57.06
   8  -8  24    4.76  118.83
  -8   9 -24  -18.20   64.81
  -8   9 -24  192.86  154.74
   8  -9  24   -3.29   54.90
   8  -9  24  -19.20  112.34
  -7   9 -24   11.88  156.55
   7  -9  24  -31.78  112.71
  -6   9 -24  -68.16  138.29
  -6   9 -24   -4.13   58.93
   6  -9  24   63.93   50.11
   6  -9  24  -12.99  107.86
  -5   9 -24 -179.63  139.42
  -5   9 -24  -15.73   58.00
   5  -9  24   -4.15   99.89
   5  -9  24   -2.94   49.85
  -4   9 -24    3.74   56.05
  -4   9 -24   41.48  129.13
   4  -9  24   90.78   50.78
   4  -9  24    4.01   98.46
  -3   9 -24    3.56   52.55
  -3   9 -24  -94.71  125.41
   3  -9  24    3.92   98.92
   3  -9  24   87.57   49.01
  -2   9 -24    3.38   49.04
  -2   9 -24    9.59  115.11
   2  -9  24  -92.54   95.16
   2  -9  24  -26.32   44.32
  -1   9 -24   19.08   45.94
  -1   9 -24   55.03  118.33
   1  -9  24  -10.07   41.17
   1  -9  24    3.81  101.35
   0   9 -24   38.87   42.36
   0   9 -24    4.37  109.14
   0  -9  24   11.32  100.04
   0  -9  24  -41.43   44.50
   1   9 -24   49.89   42.00
   1   9 -24  -99.26  106.20
  -1  -9  24   14.93   95.25
  -1  -9  24    2.30   41.02
   2   9 -24  120.89  101.36
   2   9 -24   23.09   37.94
  -9   2 -24  155.98  124.78
   9  -2  24 -197.45   98.25
   9  -2  24  142.98   69.70
  -2  -9  24    4.26   34.39
  -2  -9  24  -14.64   90.39
  -9   3 -24  -44.24  135.12
   9  -3  24    3.86   65.05
   9  -3  24    4.40   97.44
  -9   4 -24  150.03  140.34
   9  -4  24   19.07   67.74
   9  -4  24  -22.28  105.97
  -9   5 -24   80.08  143.29
  -9   5 -24   -4.38   61.94
   9  -5  24    3.74   65.90
   9  -5  24   73.24  107.81
  -9   6 -24   29.45  145.07
  -9   6 -24  -77.49   71.11
   9  -6  24  -57.05  118.36
   9  -6  24   54.29   65.74
  -9   7 -24  -36.84  155.40
  -9   7 -24   27.94   67.15
   9  -7  24   53.30   61.35
   9  -7  24    4.93  118.68
  -9   8 -24    4.73   68.08
  -9   8 -24    6.37  160.76
   9  -8  24   10.33   57.35
   9  -8  24   -4.99  116.91
  -9   9 -24    4.77   68.74
  -9   9 -24    6.53  165.59
   9  -9  24   40.76  124.55
   9  -9  24    3.42   61.23
  -9  10 -24    6.62  159.52
  -9  10 -24   38.28   67.15
   9 -10  24  -30.70  120.43
   9 -10  24 -188.76   61.85
  -8  10 -24  -46.01   65.72
  -8  10 -24   95.11  163.78
   8 -10  24 -181.58   60.93
   8 -10  24    4.82  128.05
  -7  10 -24  102.64  154.65
   7 -10  24   64.19  118.47
  -6  10 -24   -4.18   59.46
  -6  10 -24  -52.36  149.89
   6 -10  24   -3.12   53.02
   6 -10  24   57.18  105.94
  -5  10 -24    3.99   59.25
  -5  10 -24   11.29  141.12
   5 -10  24   -4.24  101.27
   5 -10  24    3.02   50.61
  -4  10 -24    7.54   51.83
  -4  10 -24 -141.65  144.80
   4 -10  24   -4.10   98.96
   4 -10  24    2.91   49.08
  -3  10 -24   -5.29  131.97
  -3  10 -24    3.59   52.25
   3 -10  24  -52.07  103.79
   3 -10  24   14.03   51.65
  -2  10 -24   -3.40   50.36
  -2  10 -24   35.70  133.82
   2 -10  24 -172.61   96.96
   2 -10  24    2.71   47.96
  -1  10 -24  146.07  126.63
  -1  10 -24    3.22   47.07
   1 -10  24   51.91   43.11
   1 -10  24 -177.57   97.67
   0  10 -24  111.57   43.95
   0  10 -24   13.78  114.81
   0 -10  24  -48.88   42.27
   0 -10  24    3.81   95.07
   1  10 -24   65.17   41.36
   1  10 -24  396.80  111.57
  -1 -10  24  -32.27   40.90
  -1 -10  24   75.12   97.06
 -10   2 -24  111.50  138.24
  -2 -10  24   -7.37   95.25
  -2 -10  24   -6.43   36.11
  10  -2  24    4.20   71.19
 -10   3 -24  -34.99  135.91
  10  -3  24    4.11   75.30
  10  -3  24   -4.57  105.07
 -10   4 -24  128.87  142.48
  10  -4  24  -27.74  110.63
  10  -4  24  -55.88   72.67
 -10   5 -24   58.04   65.95
 -10   5 -24  -90.37  140.43
  10  -5  24 -251.37  113.81
  10  -5  24    3.98   71.08
 -10   6 -24   87.29  151.88
 -10   6 -24  -94.38   70.57
  10  -6  24  -49.56   69.59
  10  -6  24 -261.25  123.96
 -10   7 -24    4.84   71.22
 -10   7 -24 -122.67  157.80
  10  -7  24    5.17  131.87
  10  -7  24  -48.50   64.08
 -10   8 -24   -6.69  181.05
 -10   8 -24    4.93   73.96
  10  -8  24  -15.73  134.24
  10  -8  24   14.32   61.85
 -10   9 -24 -191.98  181.02
 -10   9 -24   -4.99   72.88
  10  -9  24    3.55   63.59
  10  -9  24    5.38  132.37
 -10  10 -24   27.76  181.85
 -10  10 -24    5.00   72.90
  10 -10  24   18.17   65.77
  10 -10  24   -5.44  135.77
 -10  11 -24   83.03  175.51
  10 -11  24   -5.52  134.64
  -9  11 -24  -52.79  165.91
  -9  11 -24    4.88   68.85
   9 -11  24  -26.17  134.40
   9 -11  24    3.55   60.46
  -8  11 -24    4.66   69.94
  -8  11 -24  -51.23  167.59
   8 -11  24   -9.95  128.63
   8 -11  24 -208.90   64.19
  -7  11 -24   18.75  166.48
  -7  11 -24  137.91   67.57
   7 -11  24   -3.30   58.69
   7 -11  24    4.74  129.47
  -6  11 -24  -74.23  158.19
  -6  11 -24    4.24   59.60
   6 -11  24   44.63   54.50
   6 -11  24    4.55  119.80
  -5  11 -24   -6.14  152.09
  -5  11 -24    4.05   56.67
   5 -11  24  153.12  106.82
   5 -11  24  -98.58   54.04
  -4  11 -24   -3.88   56.17
  -4  11 -24   -6.02  157.59
   4 -11  24    4.23  104.28
   4 -11  24    2.98   52.11
  -3  11 -24   14.78   55.66
  -3  11 -24  106.65  144.66
   3 -11  24   20.16   47.83
   3 -11  24   20.61   99.92
  -2  11 -24 -138.25  146.95
  -2  11 -24   -3.52   47.71
   2 -11  24   11.04   47.24
   2 -11  24   -4.01   98.14
  -1  11 -24    3.36   47.50
  -1  11 -24   54.84  139.15
   1 -11  24   -3.92   97.62
   1 -11  24  -13.24   45.18
   0  11 -24  -47.83   44.34
   0  11 -24   20.37  126.17
   0 -11  24  -72.78   92.95
   0 -11  24   -2.53   42.75
   1  11 -24    3.03   41.02
   1  11 -24 -317.86  125.54
  -1 -11  24   24.02   41.43
  -1 -11  24   41.09   96.76
 -11   2 -24   80.31  165.15
  11  -2  24   17.40   77.44
 -11   3 -24  -55.21  152.62
  11  -3  24    4.27   70.67
  11  -3  24    4.74  108.62
 -11   4 -24  185.34  155.51
  11  -4  24    4.79  111.85
  11  -4  24  -68.02   77.66
 -11   5 -24   95.16  155.23
 -11   5 -24   22.83   67.22
  11  -5  24  103.47   69.54
  11  -5  24   -4.91  114.32
 -11   6 -24   87.74   69.05
 -11   6 -24  -46.06  169.95
  11  -6  24   15.33  123.88
  11  -6  24 -111.95   68.22
 -11   7 -24  286.72  191.95
 -11   7 -24    5.03   83.02
  11  -7  24    5.35  167.13
  11  -7  24   23.34   73.18
 -11   8 -24 -325.56  178.83
 -11   8 -24   30.84   78.69
  11  -8  24    3.72   70.10
  11  -8  24   -5.54  143.56
 -11   9 -24   -7.26  187.93
 -11   9 -24    5.21   77.02
  11  -9  24    5.67  135.45
  11  -9  24    3.68   64.28
 -11  10 -24 -109.57  181.60
  11 -10  24   -3.76   65.10
  11 -10  24 -383.95  149.30
  -9  12 -24 -160.29  171.11
  -8  12 -24    6.71  171.46
   8 -12  24   46.89  139.98
   8 -12  24    3.57   58.98
  -7  12 -24    6.73  171.66
  -7  12 -24   14.09   70.73
   7 -12  24    4.98  123.40
   7 -12  24   -3.45   58.61
  -6  12 -24  116.82   65.05
  -6  12 -24   13.75  173.10
   6 -12  24    4.79  117.22
   6 -12  24   60.07   58.43
  -5  12 -24 -155.53  191.33
  -5  12 -24   -4.31   60.39
   5 -12  24  -50.58  115.13
   5 -12  24    3.24   57.83
  -4  12 -24    4.13   57.58
  -4  12 -24 -108.20  184.77
   4 -12  24   -4.43  104.87
   4 -12  24  -46.98   55.77
  -3  12 -24    7.93   56.96
  -3  12 -24   21.85  173.79
   3 -12  24  -29.96  105.17
   3 -12  24    3.03   49.80
  -2  12 -24 -187.31   57.21
   2 -12  24    4.16  105.29
   2 -12  24   17.53   50.79
  -1  12 -24   25.93   53.20
  -1  12 -24   -6.82  167.91
   1 -12  24   44.22  103.60
   0  12 -24    3.58   49.73
   0  12 -24 -117.80  164.54
   0 -12  24  338.14  102.33
   1  12 -24 -166.96  140.41
  -1 -12  24 -316.36   99.74
  12  -2  24  177.71   84.72
 -12   3 -24 -167.45  161.48
  12  -3  24 -121.79   81.84
  12  -3  24    4.91  112.08
 -12   4 -24   -4.22   62.03
 -12   4 -24  -25.99  163.23
  12  -4  24    4.94  122.93
  12  -4  24   48.53   81.55
 -12   5 -24   42.07   69.11
 -12   5 -24 -106.61  172.47
  12  -5  24    4.34   74.24
  12  -5  24    5.06  122.81
 -12   6 -24   -5.02   72.17
 -12   6 -24 -249.81  172.02
  12  -6  24    5.26  124.94
  12  -6  24  -70.18   69.51
 -12   7 -24   15.61   76.18
 -12   7 -24   57.69  184.84
  12  -7  24   40.08   74.55
  12  -7  24   22.08  133.60
 -12   8 -24    5.33   73.13
 -12   8 -24    7.48  184.54
  12  -8  24    3.82   67.67
  12  -8  24  133.91  141.07
 -12   9 -24   -5.37   76.13
 -12   9 -24  -68.98  195.88
  12  -9  24  113.21  147.47
  12  -9  24 -189.44   74.44
  -7  13 -24   38.44  198.17
   7 -13  24  197.07  135.28
  -6  13 -24    8.26  210.88
  -6  13 -24    5.00   67.34
   6 -13  24  -81.87  125.89
  -5  13 -24   -9.64   68.61
  -5  13 -24 -107.91  222.22
   5 -13  24   -4.94  122.27
  -4  13 -24  -14.01   64.84
  -4  13 -24    9.80  245.52
   4 -13  24   23.82  115.33
   3 -13  24   -4.60  117.23
  -2  13 -24 1114.76  307.74
  -1  13 -24-1000.00  281.01
   0  13 -24 -373.51  245.50
   0 -13  24 -404.63  129.05
  13  -2  24  130.14   88.06
 -13   3 -24   26.98  160.95
  13  -3  24 -371.95  122.43
  13  -3  24 -128.67   82.76
 -13   4 -24    4.29   67.39
 -13   4 -24   -6.80  165.30
  13  -4  24    5.06  119.33
  13  -4  24 -174.95   83.56
 -13   5 -24   41.77  173.27
 -13   5 -24    9.59   69.14
  13  -5  24   30.90   74.09
  13  -5  24   -5.18  125.45
 -13   6 -24 -109.30  189.66
 -13   6 -24    5.15   76.70
  13  -6  24 -169.64   78.21
  13  -6  24   48.46  134.11
 -13   7 -24   -5.37   82.78
 -13   7 -24  -91.64  188.65
  13  -7  24  -97.78   77.34
  13  -7  24   79.47  134.38
 -13   8 -24   -5.49   81.48
 -13   8 -24   -7.94  203.49
  13  -8  24 -229.90   75.07
  13  -8  24   -6.02  149.80
  14  -2  24    4.67   84.03
 -14   3 -24  111.92  166.00
  14  -3  24   -9.44   81.99
 -14   4 -24   26.30   64.99
 -14   4 -24  204.89  174.66
  14  -4  24  -23.13   79.01
  14  -4  24   -5.16  116.18
 -14   5 -24   -4.93   71.40
 -14   5 -24   29.09  174.71
  14  -5  24    4.47   80.44
  14  -5  24   10.55  131.26
 -14   6 -24 -205.99  189.43
 -14   6 -24   -5.29   71.13
  14  -6  24    5.49  131.97
  14  -6  24  -99.24   73.62
 -14   7 -24 -500.25  209.59
  14  -7  24    5.79  150.09
  14  -7  24 -167.57   76.54
  15  -2  24   -4.71   83.56
 -15   3 -24   -3.87   53.17
  15  -3  24    4.68   75.80
 -15   4 -24   14.59  177.86
 -15   4 -24    4.51   63.07
  15  -4  24 -136.69  128.37
  15  -4  24 -156.98   82.07
 -15   5 -24    5.06   72.13
 -15   5 -24   60.46  191.08
  15  -5  24  -58.80  131.48
  15  -5  24    4.40   74.94
 -15   6 -24   -7.93  203.84
  15  -6  24    5.55  134.26
  -2  -1  25   60.90   90.93
   1  -2  25  -32.54   69.46
  -2   2 -25  162.47  108.61
  -2  -2  25  141.02   76.95
   2  -2  25   83.50   80.27
  -2   3 -25    4.13   99.14
  -3  -2  25    3.32   60.30
   2  -3  25   34.64   56.71
   2  -3  25 -211.31   85.66
  -1   3 -25   -3.94   84.14
   1  -3  25   -3.32   68.96
   1  -3  25  -62.37   56.81
  -3  -1  25   51.18   81.38
   1   3 -25  173.59   95.21
  -1  -3  25  -98.34   81.70
   2   3 -25 -187.33   88.70
  -3   2 -25  -26.13  108.60
  -2  -3  25  -48.13   73.99
  -2  -3  25  108.69   55.06
   3  -2  25   43.89   65.90
  -3   3 -25   99.30  108.68
   3  -3  25 -137.34   88.70
  -3  -3  25    2.95   54.27
   3  -3  25   19.20   55.03
  -3   4 -25 -183.43  111.30
   3  -4  25  -58.48   91.90
   3  -4  25    3.04   50.48
  -2   4 -25    4.17   99.89
   2  -4  25  125.48   55.44
   2  -4  25  101.26   82.78
  -1   4 -25    3.98   96.05
   1  -4  25   16.67   79.90
   1  -4  25   82.80   50.79
   0  -4  25   78.12   51.90
   2   4 -25 -181.81   89.26
  -4   2 -25   18.22  109.72
   4  -2  25  -31.03   88.58
  -2  -4  25  103.17   70.68
   4  -2  25   62.84   64.26
  -4   3 -25 -131.18  114.47
   4  -3  25   -3.28   55.72
   4  -3  25    7.54   88.48
  -4   4 -25   50.30  111.01
   4  -4  25    3.12   53.92
   4  -4  25  -64.89   86.06
  -4   5 -25  -18.84  116.58
   4  -5  25   -3.06   55.92
   4  -5  25  -19.79   93.44
  -3   5 -25   31.54  110.93
   3  -5  25    2.98   54.28
   3  -5  25   49.45   93.68
  -2   5 -25    4.31  109.32
   2  -5  25  140.96   53.64
   2  -5  25  -76.67   84.79
  -1   5 -25   66.05  104.88
   1  -5  25   -3.49   81.22
   1  -5  25    2.91   49.99
   0   5 -25  701.20  114.49
   0  -5  25  668.22   87.44
  -1  -5  25    2.81   51.26
  -5   2 -25  -62.03  115.80
   5  -2  25    3.72   66.20
   5  -2  25  -20.15   91.06
  -5   3 -25   14.23  121.43
   5  -3  25    6.79   57.27
   5  -3  25   63.04   88.96
  -5   4 -25  129.43  119.55
   5  -4  25    3.99   92.83
   5  -4  25    3.23   51.95
  -5   5 -25   39.45  127.82
   5  -5  25  -74.13   93.51
   5  -5  25    9.51   55.58
  -5   6 -25    4.20   65.25
  -5   6 -25 -127.77  124.83
   5  -6  25    4.30  108.73
   5  -6  25    3.15   59.95
  -4   6 -25   73.36  120.41
  -4   6 -25    8.07   59.97
   4  -6  25    4.17   99.48
   4  -6  25   -3.05   56.76
  -3   6 -25    3.86   57.36
  -3   6 -25 -145.40  114.83
   3  -6  25    2.97   51.02
   3  -6  25   -4.03   94.25
  -2   6 -25   29.41   56.32
  -2   6 -25   13.51  116.17
   2  -6  25   85.85   99.07
   2  -6  25   32.14   50.84
  -1   6 -25   13.91   52.18
  -1   6 -25  -47.56  113.30
   1  -6  25   -3.77   95.06
   1  -6  25  -34.48   54.96
   0   6 -25   -3.28   49.45
   0   6 -25   37.28  103.43
   0  -6  25  -30.57   50.27
   0  -6  25  -75.76   91.23
   1   6 -25  794.08  105.30
  -1  -6  25  432.33   82.28
  -6   2 -25   70.12  113.20
  -2  -6  25   -2.54   45.16
   6  -2  25   -3.80   61.89
   6  -2  25  117.66   99.21
  -6   3 -25   94.67  125.65
   6  -3  25    4.12  104.92
  -6   4 -25   40.25  125.54
   6  -4  25  189.25   58.76
   6  -4  25  -79.14   96.63
  -6   5 -25   51.74  125.11
   6  -5  25 -221.88   60.79
   6  -5  25   -4.29  107.36
  -6   6 -25   37.47  138.69
  -6   6 -25   34.82   64.52
   6  -6  25   19.67   56.56
   6  -6  25    4.45  105.65
  -6   7 -25   -4.37   62.54
  -6   7 -25   -5.59  146.19
   6  -7  25    3.22   55.24
   6  -7  25  -18.22  121.61
  -5   7 -25   -4.18   56.61
  -5   7 -25  149.64  137.58
   5  -7  25  108.67   57.14
   5  -7  25   13.13  113.85
  -4   7 -25   -5.13  132.42
  -4   7 -25   27.95   58.53
   4  -7  25   36.08   56.65
   4  -7  25 -190.37  105.97
  -3   7 -25    3.80   52.86
  -3   7 -25  -64.08  128.41
   3  -7  25  178.62   54.66
   3  -7  25    4.11  102.53
  -2   7 -25    4.74  127.10
  -2   7 -25    3.61   53.33
   2  -7  25    2.86   52.10
   2  -7  25    4.02  102.30
  -1   7 -25  -17.01   46.87
  -1   7 -25  -95.85  117.76
   1  -7  25    3.93   93.36
   1  -7  25  -41.91   46.00
   0   7 -25  -39.46  109.75
   0   7 -25   38.37   47.04
   0  -7  25   -8.15   51.87
   0  -7  25  130.31   99.58
   1   7 -25  159.38  107.69
   1   7 -25  -26.88   43.10
  -1  -7  25  -20.70   42.62
  -1  -7  25  -37.18   94.89
   2   7 -25   -5.53   41.72
  -7   2 -25   31.59  122.97
  -2  -7  25   43.20   46.21
   7  -2  25  105.43  105.91
   7  -2  25    3.91   68.94
  -7   3 -25  -20.97  125.72
   7  -3  25   -3.65   65.53
   7  -3  25    4.30  100.52
  -7   4 -25  -58.06  130.45
   7  -4  25   -8.70  107.44
  -7   5 -25  -92.47  133.88
   7  -5  25  -84.80  113.52
  -7   6 -25 -117.76  143.29
   7  -6  25    4.62  119.00
  -7   7 -25 -134.75  149.63
   7  -7  25   14.28  122.61
  -7   8 -25 -116.14  157.48
   7  -8  25    4.79  117.41
  -6   8 -25  -21.79   64.53
  -6   8 -25  -46.70  146.39
   6  -8  25    3.21   58.77
   6  -8  25    4.60  112.07
  -5   8 -25   41.55   66.74
  -5   8 -25  -11.19  135.91
   5  -8  25   80.64   55.45
   5  -8  25  133.11  111.82
  -4   8 -25   15.83   56.61
  -4   8 -25 -140.12  139.56
   4  -8  25    3.00   55.70
   4  -8  25    4.30  108.75
  -3   8 -25   15.06   55.69
  -3   8 -25  119.23  136.04
   3  -8  25   37.82   55.31
   3  -8  25  113.41  104.42
  -2   8 -25    3.58   53.31
  -2   8 -25   -4.99  126.56
   2  -8  25 -144.61  103.56
   2  -8  25   14.07   45.53
  -1   8 -25   -9.60  122.16
  -1   8 -25   97.95   51.60
   1  -8  25  124.49   49.22
   1  -8  25   -4.07   99.40
   0   8 -25  -19.08   42.76
   0   8 -25   23.05  116.89
   0  -8  25  -10.34   44.27
   0  -8  25 -116.44  100.68
   1   8 -25    2.97   45.44
   1   8 -25 -123.34  118.45
  -1  -8  25   31.51   43.37
  -1  -8  25  -23.68   99.89
   2   8 -25 -170.90  111.19
  -8   2 -25 -121.92  126.73
   2   8 -25   19.15   41.17
  -2  -8  25  -40.92   40.20
   8  -2  25    4.01   71.07
  -2  -8  25   99.65   96.92
   8  -2  25   32.23  106.08
  -8   3 -25  154.63  132.27
   8  -3  25   49.27  103.06
   8  -3  25    3.86   68.13
  -8   4 -25  -33.36  142.01
   8  -4  25  -68.03  106.95
   8  -4  25    3.72   64.47
  -8   5 -25  -40.12  148.38
  -8   5 -25   13.51   68.80
   8  -5  25   13.94  105.86
   8  -5  25    3.64   62.86
  -8   6 -25   -4.64   63.49
  -8   6 -25  -82.72  147.84
   8  -6  25 -152.46   65.98
   8  -6  25  148.91  122.15
  -8   7 -25    4.75   69.80
  -8   7 -25    6.13  157.23
   8  -7  25  -59.99   58.96
   8  -7  25    4.98  120.14
  -8   8 -25    6.38  150.11
  -8   8 -25    4.78   71.33
   8  -8  25    3.49   64.35
   8  -8  25   55.03  128.60
  -8   9 -25 -192.05  172.84
  -8   9 -25   -9.66   70.80
   8  -9  25 -136.59   59.26
   8  -9  25    5.08  129.93
  -7   9 -25    4.60   63.99
  -7   9 -25  -69.75  169.68
   7  -9  25   48.35  119.42
  -6   9 -25 -206.89  160.01
  -6   9 -25   17.54   66.27
   6  -9  25   18.42  114.79
   6  -9  25 -198.85   59.01
  -5   9 -25 -105.19  152.27
  -5   9 -25    4.18   61.21
   5  -9  25  -22.08  106.92
   5  -9  25    3.05   51.65
  -4   9 -25   61.93  142.77
  -4   9 -25    3.97   58.59
   4  -9  25   72.57  109.33
   4  -9  25  114.92   53.09
  -3   9 -25    3.78   57.02
  -3   9 -25   97.49  131.21
   3  -9  25   37.54  106.43
   3  -9  25  -63.72   49.67
  -2   9 -25   78.07  137.16
  -2   9 -25   -3.58   52.37
   2  -9  25 -147.48  110.02
   2  -9  25  195.53   52.78
  -1   9 -25  278.97  127.30
   1  -9  25  238.93  102.65
   0   9 -25   28.48   45.92
   0   9 -25  -61.72  125.60
   0  -9  25   49.21   48.09
   0  -9  25  216.91  106.16
   1   9 -25   -2.95   40.16
   1   9 -25   94.50  120.08
  -1  -9  25  171.18  105.99
  -1  -9  25  -21.94   43.99
  -9   2 -25  110.85  143.26
  -2  -9  25   27.11   38.06
   9  -2  25   12.55   75.06
  -9   3 -25   17.46  140.19
   9  -3  25  -80.54   69.65
   9  -3  25    4.67  106.49
  -9   4 -25  205.13  152.38
   9  -4  25   35.72   70.20
   9  -4  25  -47.22  112.86
  -9   5 -25    4.57   75.12
  -9   5 -25   -6.03  153.47
   9  -5  25  -86.94  113.45
   9  -5  25    3.89   67.93
  -9   6 -25   18.72  148.31
  -9   6 -25   -4.78   72.80
   9  -6  25 -109.77   71.90
   9  -6  25    5.00  122.42
  -9   7 -25 -129.21  162.03
  -9   7 -25    4.92   73.52
   9  -7  25   98.95  129.66
   9  -7  25   29.73   68.17
  -9   8 -25    5.01   70.81
  -9   8 -25  120.70  167.59
   9  -8  25 -127.49   65.37
   9  -8  25   63.15  132.70
  -9   9 -25 -297.66  197.53
  -9   9 -25   -5.06   79.91
   9  -9  25 -253.12   73.55
   9  -9  25    5.35  146.40
  -9  10 -25   66.47   73.20
  -9  10 -25   -7.09  182.62
   9 -10  25    5.41  131.90
   9 -10  25    3.69   64.91
  -8  10 -25  -74.87  177.98
   8 -10  25   -5.09  125.73
   8 -10  25   17.70   63.43
  -7  10 -25 -459.17  188.01
  -7  10 -25 -125.61   73.67
   7 -10  25  -62.74  129.89
   7 -10  25 -245.18   71.20
  -6  10 -25   37.91  158.64
  -6  10 -25  -53.18   63.40
   6 -10  25   19.70   57.58
   6 -10  25   -4.60  118.70
  -5  10 -25    4.22   56.26
  -5  10 -25 -241.95  153.27
   5 -10  25   47.54   58.38
   5 -10  25   22.14  107.66
  -4  10 -25  216.52  154.83
  -4  10 -25   24.09   59.16
   4 -10  25    3.07   52.61
   4 -10  25    4.30  108.22
  -3  10 -25   62.08  138.35
  -3  10 -25   -3.79   53.54
   3 -10  25    5.94   49.71
   3 -10  25   -4.20  105.69
  -2  10 -25   -3.59   50.08
  -2  10 -25   81.15  139.85
   2 -10  25   45.38  101.04
   2 -10  25   -2.86   51.11
  -1  10 -25   20.64  127.46
  -1  10 -25    3.40   50.90
   1 -10  25  -10.97   47.16
   1 -10  25    4.08  100.96
   0  10 -25   44.35   42.77
   0  10 -25  -33.95  125.15
   0 -10  25   44.33   99.83
   0 -10  25  -20.82   43.93
   1  10 -25   41.52   42.43
   1  10 -25 -162.49  121.69
  -1 -10  25   14.57   36.67
  -1 -10  25 -262.69  100.65
 -10   2 -25 -110.81  146.29
  10  -2  25  -61.43   75.04
 -10   3 -25   98.06  145.21
  10  -3  25    4.27   76.61
  10  -3  25   -4.86  109.47
 -10   4 -25   24.75  147.46
  10  -4  25   -4.15   75.71
  10  -4  25  -29.46  109.13
 -10   5 -25   19.06  156.49
 -10   5 -25  -87.81   69.04
  10  -5  25    5.02  115.17
  10  -5  25    4.15   75.07
 -10   6 -25   32.90  169.55
 -10   6 -25  -93.58   76.05
  10  -6  25  -55.98   73.31
  10  -6  25 -129.99  120.75
 -10   7 -25    5.10   74.85
 -10   7 -25 -292.30  178.55
  10  -7  25  -62.89   75.40
  10  -7  25    5.40  141.49
 -10   8 -25 -125.44   75.63
 -10   8 -25 -120.20  191.34
  10  -8  25 -174.75   71.56
  10  -8  25    5.56  136.48
 -10   9 -25    5.29   77.39
 -10   9 -25  -80.08  186.71
  10  -9  25   71.58   65.41
  10  -9  25  -33.76  132.27
 -10  10 -25  162.75  186.23
  10 -10  25  -74.72  142.58
  10 -10  25 -122.82   69.11
  -9  11 -25   50.44  179.99
   9 -11  25  -70.99  140.27
  -8  11 -25 -138.25  176.18
   8 -11  25    5.16  131.79
  -7  11 -25 -337.02  183.86
  -7  11 -25    4.69   67.25
   7 -11  25  -39.54  122.46
   7 -11  25    3.50   57.86
  -6  11 -25  111.85   69.58
   6 -11  25  374.30  122.53
  -5  11 -25  -51.84  162.63
  -5  11 -25    4.27   60.82
   5 -11  25   22.65   58.05
   5 -11  25    4.57  115.92
  -4  11 -25   -4.07   57.81
  -4  11 -25   19.11  166.86
   4 -11  25    3.13   55.65
   4 -11  25    4.44  111.32
  -3  11 -25 -298.44  149.37
  -3  11 -25    3.87   57.75
   3 -11  25   48.36   50.99
   3 -11  25  -25.91  104.82
  -2  11 -25   17.96  152.27
  -2  11 -25    3.69   52.22
   2 -11  25  -42.23  104.04
   2 -11  25    2.92   48.05
  -1  11 -25    3.50   51.42
  -1  11 -25   96.22  150.15
   1 -11  25    8.34   45.64
   1 -11  25   66.22  103.80
   0  11 -25   -5.24  132.95
   0  11 -25  -23.20   44.77
   0 -11  25 -219.06  100.86
   0 -11  25   29.15   46.58
   1  11 -25   31.31   43.63
   1  11 -25 -274.57  121.22
  -1 -11  25   47.53   97.77
  -1 -11  25   25.08   41.04
  11  -2  25   67.93   84.59
 -11   3 -25  -70.99  149.30
  11  -3  25    4.44   74.77
  11  -3  25    5.05  116.86
 -11   4 -25   32.63  164.98
  11  -4  25   -4.43   76.98
  11  -4  25  -45.81  118.71
 -11   5 -25  -86.77  158.34
 -11   5 -25   -4.69   63.82
  11  -5  25    4.33   75.40
  11  -5  25   15.64  120.40
 -11   6 -25  161.91   84.06
 -11   6 -25   -6.95  180.23
  11  -6  25  382.61  147.32
  11  -6  25    4.21   75.05
 -11   7 -25    5.28   78.26
 -11   7 -25  244.53  175.14
  11  -7  25   12.35   75.87
  11  -7  25   -5.61  136.63
 -11   8 -25    5.43   83.62
 -11   8 -25  -44.63  198.63
  11  -8  25    3.95   72.46
  11  -8  25    5.86  151.58
 -11   9 -25  -91.69  191.13
 -11   9 -25   -5.52   82.91
  11  -9  25   17.82  137.51
  11  -9  25    3.91   65.23
  -7  12 -25   -4.92   69.98
  -7  12 -25 -267.21  194.01
   7 -12  25  -62.30  125.55
   7 -12  25   39.71   61.21
  -6  12 -25  -43.87  190.96
  -6  12 -25    4.70   63.42
   6 -12  25  -19.91  129.26
   6 -12  25    3.49   62.56
  -5  12 -25    4.49   57.03
  -5  12 -25    7.42  187.90
   5 -12  25  -84.44   58.46
   5 -12  25   -4.79  114.71
  -4  12 -25 -227.95   64.58
  -4  12 -25   14.83  206.65
   4 -12  25    4.64  120.71
   4 -12  25   -3.27   60.84
  -3  12 -25    4.12   59.65
  -3  12 -25 -702.21  202.57
   3 -12  25    3.17   51.64
   3 -12  25   27.14  125.46
  -2  12 -25 -143.63  192.74
  -2  12 -25    3.94   55.73
   2 -12  25   -4.39  115.83
   2 -12  25 -122.28   54.67
  -1  12 -25    6.74  175.91
  -1  12 -25  -49.40   57.64
   1 -12  25    4.26  105.57
   1 -12  25    2.93   50.15
   0  12 -25   -3.66   51.96
   0  12 -25 -115.47  159.53
   0 -12  25  -99.04  104.77
   1  12 -25 -110.87  139.74
  -1 -12  25    3.96   94.37
  12  -2  25 -217.45   88.14
 -12   3 -25  237.58  189.69
  12  -3  25    5.26  134.85
  12  -3  25   70.28   81.83
 -12   4 -25 -102.89  168.00
 -12   4 -25   -4.25   61.75
  12  -4  25 -335.68  137.31
  12  -4  25    4.60   78.63
 -12   5 -25  -14.02  177.87
 -12   5 -25   -4.77   68.75
  12  -5  25    5.37  131.15
  12  -5  25  -63.82   85.02
 -12   6 -25   -7.31  186.77
 -12   6 -25   -5.19   77.50
  12  -6  25  -16.66  131.41
  12  -6  25   87.41   76.40
 -12   7 -25    5.44   74.84
 -12   7 -25   30.51  188.41
  12  -7  25   34.20   75.77
  12  -7  25   46.47  135.24
 -12   8 -25   -5.63   77.44
 -12   8 -25  165.49  200.12
  12  -8  25    4.09   70.50
  12  -8  25   -6.10  145.40
  -6  13 -25  120.72  212.04
   6 -13  25   -5.36  129.85
  -5  13 -25   73.75  251.30
  -5  13 -25    4.96   68.88
   5 -13  25   10.34  129.90
  -4  13 -25  146.46  252.81
  -4  13 -25    4.79   65.06
   4 -13  25   39.99  125.20
  -3  13 -25  -70.91  250.34
  -3  13 -25   -9.26   64.05
   3 -13  25   -4.84  123.18
  -2  13 -25  -10.06  243.68
   2 -13  25    4.69  110.65
  -1  13 -25    9.35  228.07
   1 -13  25   40.54  113.76
   0  13 -25 -137.26  208.69
   0 -13  25 -128.66  109.03
   1  13 -25 -177.04  170.06
  13  -2  25   28.90   85.46
 -13   3 -25  120.43  171.63
  13  -3  25    9.56   86.89
 -13   4 -25 -136.19  173.59
 -13   4 -25    4.29   59.53
  13  -4  25  -10.78  120.70
  13  -4  25   14.47   87.92
 -13   5 -25    4.86   72.50
 -13   5 -25   36.82  185.11
  13  -5  25 -149.35   77.92
  13  -5  25    5.51  136.03
 -13   6 -25    5.32   73.79
 -13   6 -25  -92.20  188.93
  13  -6  25    4.51   71.91
  13  -6  25    5.72  141.18
 -13   7 -25   -8.05  207.36
  13  -7  25 -336.65   89.51
  13  -7  25    5.99  146.30
 -14   3 -25 -139.97  170.29
  14  -3  25    4.93   85.88
 -14   4 -25   -4.35   59.72
 -14   4 -25  -74.58  190.82
  14  -4  25    9.76   87.28
  14  -4  25    5.51  134.88
 -14   5 -25 -200.31  195.43
 -14   5 -25    4.96   69.73
  14  -5  25   14.26   80.38
  14  -5  25    5.63  131.82
 -14   6 -25  -64.24  211.31
  14  -6  25    5.84  141.93
 -15   3 -25 -184.65   60.27
  15  -3  25   24.54   96.14
 -15   4 -25  100.35  192.13
  15  -4  25    5.66  134.07
  -1   2 -26 -133.58   91.19
   1  -2  26   12.21   70.79
   0  -2  26  101.09   75.13
  -2   2 -26 -174.66  106.40
   2  -2  26    4.07   70.09
  -2   3 -26 -117.43  103.57
   2  -3  26  -27.33   60.32
   2  -3  26    3.68   81.15
  -1   3 -26   24.86  100.69
   1  -3  26  204.79   87.05
   1  -3  26  -23.73   59.08
   0   3 -26 -149.55   92.60
   0  -3  26    3.40   77.93
   0  -3  26   50.63   55.98
  -1  -3  26  -19.86   58.59
  -3   2 -26  114.24  105.96
   3  -2  26    4.08   71.77
  -3   3 -26   -4.56  108.58
   3  -3  26   58.80   64.18
   3  -3  26  -92.12   88.00
  -3   4 -26  119.69  120.18
   3  -4  26   -3.22   55.33
   3  -4  26 -108.54   92.13
  -2   4 -26   39.58  113.87
   2  -4  26 -151.96   90.16
   2  -4  26   69.94   56.06
  -1   4 -26    4.20  101.17
   1  -4  26  145.07   54.20
   1  -4  26 -212.13   83.90
   0   4 -26    3.99   97.06
   0  -4  26   33.68   83.94
   0  -4  26   -9.27   53.98
   1   4 -26   -3.78   73.89
  -1  -4  26   -3.20   62.44
  -1  -4  26   -3.08   52.85
  -4   2 -26   33.47  110.68
   4  -2  26   -4.04   70.13
  -4   3 -26  157.54  122.14
   4  -3  26  116.41   61.32
   4  -3  26   80.10   89.74
  -4   4 -26  -77.11  121.85
   4  -4  26  145.83   95.12
   4  -4  26   -3.30   56.09
  -4   5 -26  114.79  124.17
   4  -5  26   73.76   56.90
   4  -5  26    4.18  106.18
  -3   5 -26   23.89  117.90
   3  -5  26  -65.86   56.20
   3  -5  26   28.12   97.16
  -2   5 -26   45.73  109.44
   2  -5  26    9.28   52.70
   2  -5  26   61.65   95.34
  -1   5 -26  -70.04  110.56
   1  -5  26   89.14   59.16
   1  -5  26    3.68   87.25
   0   5 -26  -64.03   54.39
   0   5 -26 -241.47  106.41
   0  -5  26   39.08   54.65
   0  -5  26 -119.02   83.47
   1   5 -26  -20.92   50.77
   1   5 -26  -74.97   96.07
  -1  -5  26  -86.14   78.32
  -1  -5  26    2.99   51.81
  -5   2 -26   10.02  123.87
   2   5 -26   28.69   47.56
  -2  -5  26  -29.26   51.85
   5  -2  26    4.07   67.07
  -5   3 -26   -5.00  117.49
   5  -3  26   -4.18   85.58
   5  -3  26   -3.58   61.66
  -5   4 -26   55.54  126.15
   5  -4  26    4.23   96.45
   5  -4  26  132.80   59.12
  -5   5 -26   26.11  121.13
   5  -5  26    3.31   59.16
   5  -5  26  -13.04   98.24
  -5   6 -26   -4.52   64.01
  -5   6 -26   43.23  135.81
   5  -6  26   -4.51  109.94
   5  -6  26   65.65   57.97
  -4   6 -26   -8.71   64.29
  -4   6 -26 -165.45  129.49
   4  -6  26    3.19   58.98
   4  -6  26   -8.72  112.58
  -3   6 -26    4.18   63.53
  -3   6 -26    4.96  130.17
   3  -6  26    4.22  106.55
  -2   6 -26   -3.99   59.33
  -2   6 -26  114.38  127.17
   2  -6  26   16.34  101.29
   2  -6  26  -36.85   53.16
  -1   6 -26   15.07   53.37
  -1   6 -26  146.49  116.83
   1  -6  26    3.03   51.48
   1  -6  26  153.57   96.73
   0   6 -26   52.60  111.71
   0   6 -26   17.71   53.23
   0  -6  26   37.75   99.64
   0  -6  26  -50.08   53.33
   1   6 -26   13.21   45.36
   1   6 -26   33.45  104.69
  -1  -6  26 -111.09   88.65
  -1  -6  26    8.60   48.64
  -6   2 -26   63.02  124.96
   2   6 -26   45.76   45.85
  -2  -6  26    2.72   48.64
  -2  -6  26  -63.95   80.63
   6  -2  26   33.02   73.69
  -6   3 -26   31.51  129.36
   6  -3  26    3.70   68.88
   6  -3  26  170.39  102.72
  -6   4 -26  -42.38  130.24
   6  -4  26  -44.15  108.93
   6  -4  26    3.49   58.47
  -6   5 -26  125.92  136.29
   6  -5  26  -67.81  116.46
   6  -5  26   -3.45   60.43
  -6   6 -26  -90.53  143.03
  -6   6 -26   -4.66   68.91
   6  -6  26  -98.15  109.44
   6  -6  26   34.16   62.52
  -6   7 -26    4.67   66.97
  -6   7 -26  -47.15  150.53
   6  -7  26  -67.82  120.07
   6  -7  26    3.36   65.06
  -5   7 -26 -186.26  149.31
  -5   7 -26   -4.48   65.06
   5  -7  26    4.67  114.86
   5  -7  26    3.25   55.15
  -4   7 -26   59.79  135.32
  -4   7 -26    4.28   64.52
   4  -7  26  190.17  113.38
   4  -7  26    3.15   57.94
  -3   7 -26   -4.09   61.06
  -3   7 -26 -182.99  132.75
   3  -7  26 -127.79  111.81
   3  -7  26    3.08   55.37
  -2   7 -26    3.88   57.73
  -2   7 -26   20.14  128.82
   2  -7  26   51.23   52.66
   2  -7  26   51.61  101.38
  -1   7 -26   43.60  131.65
  -1   7 -26  -18.27   50.74
   1  -7  26   71.49  105.03
   1  -7  26    2.95   50.46
   0   7 -26  -30.89   50.80
   0   7 -26   -9.30  123.27
   0  -7  26   34.66   49.51
   0  -7  26   36.87  102.57
   1   7 -26 -106.27  115.26
   1   7 -26   35.19   45.29
  -1  -7  26  110.70   50.76
  -1  -7  26  -35.60  103.06
  -7   2 -26  110.34  130.98
  -2  -7  26  -82.71   95.33
  -2  -7  26   43.84   48.67
  -7   3 -26  -82.79  134.12
   7  -3  26  -13.68  106.41
  -7   4 -26  139.26  150.16
   7  -4  26  207.37  113.94
  -7   5 -26  206.59  142.14
   7  -5  26    4.71  127.07
  -7   6 -26   23.79  149.13
   7  -6  26    4.86  109.03
  -7   7 -26    4.85   66.48
  -7   7 -26   43.21  157.04
   7  -7  26    5.04  116.45
  -7   8 -26  -57.99  164.08
  -7   8 -26    4.86   68.01
   7  -8  26   45.48  117.84
   7  -8  26   31.59   60.06
  -6   8 -26    4.64   69.50
  -6   8 -26   24.69  153.45
   6  -8  26    3.38   55.97
   6  -8  26  -58.08  122.09
  -5   8 -26   -4.43   64.67
  -5   8 -26   11.90  145.03
   5  -8  26   22.85   59.47
   5  -8  26   -4.68  108.71
  -4   8 -26   -4.22   64.05
  -4   8 -26   91.54  149.57
   4  -8  26    6.32   55.62
   4  -8  26   50.17  113.58
  -3   8 -26   88.14  141.95
  -3   8 -26  -16.07   60.99
   3  -8  26 -249.70  110.76
   3  -8  26  -46.09   60.01
  -2   8 -26   21.21  143.12
  -2   8 -26    3.82   58.29
   2  -8  26  -43.88  110.39
   2  -8  26   83.53   52.69
  -1   8 -26   39.72   54.83
  -1   8 -26  234.67  135.75
   1  -8  26   37.43   54.58
   1  -8  26  147.17  115.64
   0   8 -26   40.65   56.45
   0   8 -26  235.03  134.87
   0  -8  26  294.36  118.48
   0  -8  26  215.07   57.19
   1   8 -26   82.17   50.78
   1   8 -26   74.80  128.69
  -1  -8  26   95.94   51.68
  -1  -8  26  533.33  118.48
  -8   2 -26   17.41  135.15
   8  -2  26    4.28   72.10
  -8   3 -26 -104.56  135.27
   8  -3  26  137.98   75.13
   8  -3  26  -57.18  108.90
  -8   4 -26  -52.83  142.15
   8  -4  26    3.88   66.54
   8  -4  26    4.81  111.64
  -8   5 -26    4.75   70.33
  -8   5 -26   78.49  154.43
   8  -5  26  -90.93   66.76
   8  -5  26   -4.91  108.98
  -8   6 -26  131.27  155.60
  -8   6 -26   -4.90   66.84
   8  -6  26   11.33   66.34
   8  -6  26   20.24  124.98
  -8   7 -26   45.38  157.32
  -8   7 -26   -5.03   70.66
   8  -7  26    3.69   63.13
   8  -7  26 -141.09  129.24
  -8   8 -26   67.52  171.99
  -8   8 -26   -5.07   76.95
   8  -8  26   -5.31  130.96
   8  -8  26 -186.87   67.17
  -8   9 -26 -189.62  192.49
   8  -9  26  -37.39  145.62
  -7   9 -26   -4.91   69.95
  -7   9 -26  114.28  168.80
   7  -9  26    3.44   57.21
   7  -9  26 -102.04  127.49
  -6   9 -26  -51.49   66.30
  -6   9 -26    6.48  166.99
   6  -9  26    4.89  115.02
   6  -9  26   49.71   55.18
  -5   9 -26  -56.11  148.15
  -5   9 -26    4.46   65.83
   5  -9  26   -4.72  114.03
   5  -9  26   76.87   55.69
  -4   9 -26  -66.08  154.71
  -4   9 -26    4.24   63.10
   4  -9  26  -83.77   54.84
   4  -9  26  -64.11  116.22
  -3   9 -26   72.24   57.56
  -3   9 -26   23.16  146.20
   3  -9  26   63.20   54.47
   3  -9  26    4.48  112.99
  -2   9 -26   -3.81   56.46
  -2   9 -26  144.75  140.82
   2  -9  26    4.41  102.81
   2  -9  26    2.96   51.59
  -1   9 -26   28.75   54.71
  -1   9 -26   10.66  138.80
   1  -9  26  183.33  112.75
   1  -9  26   88.12   52.71
   0   9 -26  -10.07   47.93
   0   9 -26  269.41  135.91
   0  -9  26   51.35   47.72
   0  -9  26  -13.00  110.03
   1   9 -26    6.26   46.05
   1   9 -26  105.86  129.43
  -1  -9  26   12.86  105.24
  -1  -9  26  108.72   48.35
  -9   2 -26  -36.73  142.39
   9  -2  26   13.28   75.12
  -9   3 -26    6.12  147.09
   9  -3  26   16.85   72.63
   9  -3  26  -54.66  119.70
  -9   4 -26  105.30  148.89
   9  -4  26    5.01  119.08
   9  -4  26  115.68   72.62
  -9   5 -26    4.77   66.09
  -9   5 -26   63.58  157.85
   9  -5  26    4.04   70.31
   9  -5  26    5.12  114.22
  -9   6 -26   13.17  166.96
  -9   6 -26    5.02   72.88
   9  -6  26  221.32  133.87
   9  -6  26    3.95   71.80
  -9   7 -26 -224.67  174.39
  -9   7 -26    5.20   75.83
   9  -7  26  -48.95  143.45
   9  -7  26   23.31   70.30
  -9   8 -26 -105.98  177.73
  -9   8 -26    5.29   70.40
   9  -8  26    7.66   69.41
   9  -8  26  -16.75  146.74
  -9   9 -26    5.36   80.94
  -9   9 -26  132.17  183.26
   9  -9  26  106.52  137.33
   9  -9  26 -164.98   67.87
  -9  10 -26    7.55  185.04
   9 -10  26  131.22  143.65
  -8  10 -26   43.62  188.83
   8 -10  26    5.40  136.55
  -7  10 -26  -98.31  183.38
  -7  10 -26    4.93   67.68
   7 -10  26 -281.46  132.78
   7 -10  26  -75.04   65.87
  -6  10 -26   -4.70   70.77
  -6  10 -26 -101.68  186.98
   6 -10  26   43.85  133.66
   6 -10  26   17.22   67.47
  -5  10 -26   22.35   63.64
  -5  10 -26  -52.55  165.47
   5 -10  26   14.08  114.69
   5 -10  26   83.17   59.92
  -4  10 -26  -82.36  161.69
  -4  10 -26    4.25   57.71
   4 -10  26    6.45   53.96
   4 -10  26   -4.54  111.29
  -3  10 -26   -4.04   55.22
  -3  10 -26   12.22  154.19
   3 -10  26  -15.63   57.33
   3 -10  26 -177.21  112.87
  -2  10 -26  -46.86  152.36
  -2  10 -26   -3.80   53.09
   2 -10  26    4.35  102.55
   2 -10  26    3.02   48.53
  -1  10 -26 -300.13  151.46
  -1  10 -26    3.58   47.03
   1 -10  26  142.07  111.33
   1 -10  26   -2.90   48.47
   0  10 -26   83.63  137.93
   0  10 -26    3.36   47.74
   0 -10  26    8.27   44.05
   0 -10  26   63.97  108.86
   1  10 -26   34.30   44.37
   1  10 -26 -150.90  131.99
  -1 -10  26  -10.26   44.60
  -1 -10  26  159.99  108.80
  10  -2  26    9.09   78.12
 -10   3 -26   96.74  150.05
  10  -3  26   40.02   77.35
  10  -3  26   98.57  116.90
 -10   4 -26   71.91  161.57
  10  -4  26    5.22  122.59
  10  -4  26  -51.76   73.13
 -10   5 -26    4.78   68.93
 -10   5 -26  -26.72  162.61
  10  -5  26   -4.32   74.75
  10  -5  26    5.33  132.82
 -10   6 -26  292.02  185.39
 -10   6 -26   82.08   90.54
  10  -6  26   79.44   81.05
  10  -6  26    5.48  152.21
 -10   7 -26   50.36  182.19
 -10   7 -26   48.17   73.63
  10  -7  26    8.22   74.30
  10  -7  26    5.66  135.73
 -10   8 -26    5.51   79.44
 -10   8 -26   14.88  195.24
  10  -8  26    5.88  139.57
  10  -8  26    4.01   74.43
 -10   9 -26  130.42  191.09
 -10   9 -26    5.60   81.86
  10  -9  26   11.85  151.13
  10  -9  26    3.98   69.58
  -8  11 -26   90.40  205.85
   8 -11  26   32.66  140.46
  -7  11 -26   -7.34  183.52
  -7  11 -26  -74.89   70.85
   7 -11  26    5.16  133.29
   7 -11  26    3.67   64.60
  -6  11 -26   -4.72   69.89
  -6  11 -26   71.14  182.51
   6 -11  26    3.54   59.88
   6 -11  26  128.27  125.67
  -5  11 -26  -26.98   66.78
  -5  11 -26 -139.04  193.62
   5 -11  26  -47.76  116.77
   5 -11  26  -10.27   56.67
  -4  11 -26   29.98   63.92
  -4  11 -26  203.48  183.12
   4 -11  26  351.87  137.69
   4 -11  26   88.78   63.70
  -3  11 -26 -131.38  172.83
  -3  11 -26  -12.23   60.13
   3 -11  26  -81.40  125.03
   3 -11  26   -3.18   55.29
  -2  11 -26    6.28  155.74
  -2  11 -26    3.87   51.24
   2 -11  26   39.88  112.35
   2 -11  26   21.46   52.22
  -1  11 -26  -41.42  152.81
  -1  11 -26    3.66   51.92
   1 -11  26  -58.82   53.03
   1 -11  26    4.36  104.64
   0  11 -26   48.74  136.17
   0  11 -26  -72.64   51.49
   0 -11  26 -136.91  107.65
   0 -11  26   63.95   47.58
   1  11 -26  -26.04   47.03
   1  11 -26   49.34  126.15
  -1 -11  26  288.64  113.23
  -1 -11  26  -26.26   45.68
  11  -2  26   -4.72   90.54
 -11   3 -26 -142.78  182.50
  11  -3  26 -113.94  138.10
  11  -3  26 -156.88   87.75
 -11   4 -26  413.11  194.00
  11  -4  26   36.79   86.45
  11  -4  26   21.62  152.10
 -11   5 -26    4.81   71.50
 -11   5 -26  -77.38  177.38
  11  -5  26 -158.15   82.54
  11  -5  26   -5.53  132.28
 -11   6 -26   80.49  185.11
 -11   6 -26    5.23   72.02
  11  -6  26    4.42   79.71
  11  -6  26   -5.68  139.16
 -11   7 -26  -98.83  191.66
 -11   7 -26    5.51   83.49
  11  -7  26    4.34   76.60
  11  -7  26   47.19  145.25
 -11   8 -26   -5.71   82.34
 -11   8 -26  141.38  193.56
  11  -8  26    6.13  154.82
  11  -8  26   -4.18   78.46
  -6  12 -26  -23.40  198.64
  -6  12 -26    4.93   70.06
   6 -12  26   15.53  129.26
   6 -12  26  -58.38   61.52
  -5  12 -26   -4.70   67.03
  -5  12 -26   31.13  197.67
   5 -12  26  -60.03   60.88
   5 -12  26  134.72  125.29
  -4  12 -26 -233.38  198.88
  -4  12 -26    4.49   60.32
   4 -12  26   82.48  122.54
   4 -12  26   54.73   57.54
  -3  12 -26    4.29   60.03
  -3  12 -26   -7.64  184.84
   3 -12  26  -80.16  124.75
   3 -12  26   -3.31   59.60
  -2  12 -26  -58.62  191.35
  -2  12 -26    4.10   59.07
   2 -12  26   12.79   52.66
   2 -12  26    4.59  113.63
  -1  12 -26 -183.87   59.67
  -1  12 -26 -421.96  199.17
   1 -12  26    3.07   59.47
   1 -12  26    8.94  113.27
   0  12 -26 -531.47  170.56
   0  12 -26  -18.79   56.51
   0 -12  26  -78.06  115.35
   1  12 -26 -249.43  149.44
  -1 -12  26 -208.10  112.64
 -12   3 -26  -35.64  172.19
  12  -3  26 -106.96   89.16
 -12   4 -26   21.68  184.65
 -12   4 -26  -59.83   64.07
  12  -4  26    4.79   82.18
  12  -4  26 -111.74  136.30
 -12   5 -26   96.36  188.73
 -12   5 -26    4.85   73.58
  12  -5  26    5.71  137.54
  12  -5  26 -109.64   82.64
 -12   6 -26 -131.01  189.18
 -12   6 -26  149.44   83.04
  12  -6  26 -156.53   77.04
  12  -6  26   23.55  136.54
 -12   7 -26   16.07  200.61
 -12   7 -26   -5.66   84.80
  12  -7  26    6.12  146.07
  -5  13 -26  -57.53  237.40
   5 -13  26    5.37  129.36
  -4  13 -26    4.93   68.47
  -4  13 -26  -29.64  251.90
   4 -13  26  -10.42  122.40
  -3  13 -26  110.15  241.10
  -3  13 -26  -14.28   62.12
   3 -13  26  -91.28  121.35
  -2  13 -26    4.60   65.14
  -2  13 -26  135.86  249.53
   2 -13  26    9.81  119.89
  -1  13 -26  -53.13  222.58
   1 -13  26   18.87  117.59
   0  13 -26   98.76  200.94
   0 -13  26  157.49  117.88
 -13   3 -26   89.46  174.57
  13  -3  26  139.02   88.72
 -13   4 -26   81.31   61.29
 -13   4 -26  241.85  185.46
  13  -4  26   -5.04   91.26
  13  -4  26   92.02  131.91
 -13   5 -26   -4.90   68.00
 -13   5 -26  116.90  191.71
  13  -5  26    4.91   84.31
  13  -5  26   -5.87  134.03
 -13   6 -26  161.60  201.63
  13  -6  26   -6.07  142.27
  14  -3  26 -102.60   92.90
 -14   4 -26   -4.30   48.38
 -14   4 -26   47.32  188.63
  14  -4  26   -5.93  144.41
   1  -2  27  422.89   97.10
   0  -2  27   -9.13   80.26
  -1  -2  27  170.22   93.42
  -2  -2  27   30.17   71.46
   2  -2  27   13.91   77.50
  -2   3 -27 -119.03  110.02
   2  -3  27  -63.53   65.27
   2  -3  27   86.28   92.62
  -1   3 -27   13.08  115.43
   1  -3  27 -170.88   64.03
   1  -3  27   94.36   89.78
   0   3 -27   33.16  106.51
   0  -3  27   73.15   91.48
   0  -3  27  156.92   67.43
   1   3 -27 -214.82   98.59
  -1  -3  27  -50.62   70.07
  -3   2 -27   -9.59  101.88
   3  -2  27   54.72   81.11
  -2  -3  27  -14.22   65.31
  -3   3 -27    4.80  115.12
   3  -3  27    4.08   92.68
   3  -3  27   -3.77   68.49
  -3   4 -27  -63.33  122.92
   3  -4  27    4.11   95.31
   3  -4  27   65.37   57.95
  -2   4 -27   79.12  121.77
   2  -4  27   11.81   93.17
   2  -4  27   -3.39   58.35
  -1   4 -27  -71.06  108.18
   1  -4  27    3.76   93.89
   1  -4  27  -23.61   59.99
   0   4 -27    4.22  101.36
   0  -4  27    3.31   57.76
   0  -4  27   57.30   85.85
   1   4 -27 -175.38  107.93
  -1  -4  27  -33.99   80.32
  -1  -4  27  -59.45   59.36
   2   4 -27  -67.13   93.65
  -4   2 -27  -35.15  117.95
  -2  -4  27  -16.17   76.15
  -2  -4  27  -26.10   56.87
   4  -2  27   18.15   75.56
  -4   3 -27  -35.17  115.53
   4  -3  27    4.26   97.12
   4  -3  27   -3.78   71.93
  -4   4 -27  183.43  125.03
   4  -4  27    4.30  103.50
   4  -4  27   59.55   59.73
  -4   5 -27   68.51  124.31
   4  -5  27   26.50  109.53
   4  -5  27   64.05   62.71
  -3   5 -27   80.76  128.92
   3  -5  27  228.08   62.93
   3  -5  27   -4.24  106.04
  -2   5 -27   -4.83  116.96
   2  -5  27  -28.51   97.51
   2  -5  27  -13.07   55.46
  -1   5 -27 -129.23  118.08
   1  -5  27 -214.17   93.82
   1  -5  27   55.34   58.29
   0   5 -27   -4.39  102.78
   0   5 -27  -49.80   62.01
   0  -5  27   35.09   56.16
   0  -5  27 -159.38   93.20
   1   5 -27  -37.30  103.98
   1   5 -27   34.34   58.39
  -1  -5  27  -59.65   85.05
  -1  -5  27   76.16   52.56
  -5   2 -27  -26.30  116.70
  -2  -5  27   49.83   51.94
  -2  -5  27  -69.12   79.79
   5  -2  27    4.52   73.98
  -5   3 -27  142.13  129.66
   5  -3  27  -17.79  106.52
   5  -3  27   61.75   74.56
  -5   4 -27   -5.34  130.42
   5  -4  27 -129.64   63.48
   5  -4  27   -4.49  106.12
  -5   5 -27   71.62  144.42
   5  -5  27   -3.47   63.31
   5  -5  27 -101.14  106.65
  -5   6 -27    4.89   73.70
  -5   6 -27  -74.49  141.77
   5  -6  27    4.76  112.25
   5  -6  27   -3.43   59.39
  -4   6 -27  -37.88   70.69
  -4   6 -27  -71.46  139.68
   4  -6  27    3.34   62.93
   4  -6  27  -78.15  114.19
  -3   6 -27   15.83  135.59
  -3   6 -27    4.55   70.44
   3  -6  27   -3.27   61.18
   3  -6  27  306.77  115.23
  -2   6 -27    4.34   66.23
  -2   6 -27 -491.71  133.48
   2  -6  27   64.55   59.48
   2  -6  27   -4.30  105.65
  -1   6 -27    8.20   61.58
  -1   6 -27 -121.46  129.26
   1  -6  27    4.15  101.53
   1  -6  27  -28.79   57.23
   0   6 -27  103.75   58.72
   0   6 -27    4.65  113.82
   0  -6  27  -83.43   96.13
   0  -6  27    9.36   57.07
   1   6 -27   66.26  121.50
   1   6 -27  -35.68   53.16
  -1  -6  27    3.77   86.43
  -1  -6  27  -24.39   51.25
  -6   2 -27  -88.27  124.25
   6  -2  27    4.53   78.73
  -2  -6  27    5.84   49.31
  -6   3 -27  -22.09  127.45
   6  -3  27    3.97   66.93
   6  -3  27   -4.65  103.27
  -6   4 -27   11.21  132.79
   6  -4  27   -4.68  113.84
   6  -4  27 -213.58   68.04
  -6   5 -27  -63.46  140.04
   6  -5  27 -157.99  121.94
   6  -5  27   -3.61   63.78
  -6   6 -27  -29.96  149.54
  -6   6 -27  -30.05   73.00
   6  -6  27    3.56   65.88
   6  -6  27  -29.59  115.64
  -6   7 -27   34.97   72.36
  -6   7 -27  -12.48  149.32
   6  -7  27   45.59   60.97
   6  -7  27 -147.48  117.83
  -5   7 -27   53.79  153.14
  -5   7 -27    9.62   72.74
   5  -7  27   19.69  113.64
   5  -7  27    3.39   60.79
  -4   7 -27   97.58  145.71
  -4   7 -27   -4.61   65.52
   4  -7  27   19.21  118.29
   4  -7  27   88.94   57.84
  -3   7 -27   33.14  138.71
  -3   7 -27    4.41   66.02
   3  -7  27   83.93   62.35
   3  -7  27   56.17  116.00
  -2   7 -27 -436.07  145.49
  -2   7 -27   -4.19   60.55
   2  -7  27    6.34   55.71
   2  -7  27    4.57  110.00
  -1   7 -27   -5.12  131.31
  -1   7 -27    3.95   60.55
   1  -7  27    4.46  111.98
   1  -7  27   15.58   59.13
   0   7 -27  118.09   57.50
   0   7 -27  387.74  131.71
   0  -7  27    8.62  107.25
   0  -7  27   48.94   57.68
   1   7 -27    6.86   52.10
   1   7 -27  191.95  127.92
  -1  -7  27  -67.79   52.07
  -7   2 -27   81.12  127.23
  -7   3 -27   58.06  145.07
  -7   4 -27   35.34  135.29
   7  -4  27    4.89  116.67
  -7   5 -27    5.06   72.21
  -7   5 -27 -115.05  154.61
   7  -5  27 -124.85  111.32
  -7   6 -27   50.28  167.32
  -7   6 -27   -5.11   75.46
   7  -6  27   -5.12  121.93
   7  -6  27  -48.46   64.06
  -7   7 -27   19.53  162.21
  -7   7 -27   -5.17   68.51
   7  -7  27   -5.27  124.76
   7  -7  27   18.29   68.74
  -7   8 -27   -5.17   73.61
  -7   8 -27  -68.24  176.13
   7  -8  27    3.67   68.13
   7  -8  27 -128.99  144.95
  -6   8 -27  117.67  165.67
  -6   8 -27   -4.95   72.35
   6  -8  27    5.16  124.78
   6  -8  27    3.54   62.85
  -5   8 -27   31.39  159.28
  -5   8 -27   -4.74   71.73
   5  -8  27  201.73   57.68
   5  -8  27    4.97  128.31
  -4   8 -27   84.54  153.45
  -4   8 -27   -4.52   67.12
   4  -8  27  -72.50  116.40
   4  -8  27    3.32   58.34
  -3   8 -27   55.95   62.81
  -3   8 -27    5.82  143.15
   3  -8  27    4.73  120.98
   3  -8  27    3.23   54.53
  -2   8 -27    5.61  139.59
  -2   8 -27    4.08   59.14
   2  -8  27   18.90   54.48
   2  -8  27    4.66  109.73
  -1   8 -27  -10.78  146.03
  -1   8 -27    3.86   58.14
   1  -8  27  134.29   54.47
   1  -8  27  238.79  121.55
   0   8 -27  101.32   55.44
   0   8 -27  175.74  132.94
   0  -8  27  144.81  108.00
   0  -8  27   -8.79   52.37
   1   8 -27    4.93  129.53
   1   8 -27    6.74   51.85
  -1  -8  27    4.43  114.46
  -1  -8  27   24.95   50.13
   8  -2  27   -4.61   84.19
  -8   3 -27  152.82  147.72
   8  -3  27   77.26   71.99
   8  -3  27    5.08  120.69
  -8   4 -27 -148.90  154.61
   8  -4  27    4.07   68.24
   8  -4  27  127.76  123.31
  -8   5 -27    5.02   75.42
  -8   5 -27  -44.46  158.13
   8  -5  27    3.95   71.64
   8  -5  27    5.21  124.39
  -8   6 -27   -5.19   74.82
  -8   6 -27   13.21  167.15
   8  -6  27  112.00  129.16
   8  -6  27    3.93   66.72
  -8   7 -27 -396.91  187.58
   8  -7  27 -103.97  146.40
  -8   8 -27 -213.47  192.94
   8  -8  27    5.62  149.26
  -8   9 -27   88.95  198.99
   8  -9  27  -50.49  143.38
  -7   9 -27   41.76   75.92
  -7   9 -27 -114.32  177.91
   7  -9  27    3.62   62.80
   7  -9  27 -198.31  138.46
  -6   9 -27 -213.10  197.70
  -6   9 -27    4.98   73.28
   6  -9  27    5.16  131.55
   6  -9  27   13.92   63.57
  -5   9 -27  -26.45  169.01
  -5   9 -27    4.75   64.54
   5  -9  27    3.36   56.92
   5  -9  27    4.99  126.02
  -4   9 -27    4.52   65.05
  -4   9 -27   95.63  156.79
   4  -9  27   52.17   59.96
   4  -9  27  116.67  117.64
  -3   9 -27   18.41  150.51
  -3   9 -27  -25.77   64.48
   3  -9  27    3.17   53.21
   3  -9  27   -4.77  113.26
  -2   9 -27   -4.05   59.71
  -2   9 -27   29.50  141.50
   2  -9  27   52.32   58.15
   2  -9  27    4.71  118.34
  -1   9 -27    3.82   52.62
  -1   9 -27   79.37  144.98
   1  -9  27 -172.96  116.50
   1  -9  27    9.04   50.81
   0   9 -27  215.19  146.90
   0   9 -27   53.86   56.17
   0  -9  27   89.09   52.18
   0  -9  27    4.64  121.41
   1   9 -27  -35.61  133.22
   1   9 -27  -46.47   47.12
  -1  -9  27  -11.00   43.65
  -1  -9  27    4.57  107.35
  -9   3 -27   12.90  159.33
   9  -3  27    5.32  125.72
   9  -3  27   17.74   80.80
  -9   4 -27   85.06  170.13
   9  -4  27  -32.00  121.07
   9  -4  27 -133.71   78.38
  -9   5 -27  -19.94   74.78
  -9   5 -27  -26.74  164.82
   9  -5  27  -32.57  129.89
   9  -5  27   -8.41   77.08
  -9   6 -27 -152.80  182.14
  -9   6 -27    5.26   79.49
   9  -6  27    4.11   72.35
   9  -6  27    5.55  145.43
  -9   7 -27   36.06  178.51
  -9   7 -27    5.49   78.89
   9  -7  27   -5.70  142.02
   9  -7  27   64.86   72.03
  -9   8 -27  186.71  192.34
  -9   8 -27    5.59   78.51
   9  -8  27  -64.80  145.26
   9  -8  27   32.20   71.48
  -9   9 -27   45.69   83.28
  -9   9 -27  -54.23  194.54
   9  -9  27    5.93  147.57
  -8  10 -27 -108.13  206.54
   8 -10  27    5.68  139.19
  -7  10 -27    5.24   72.89
  -7  10 -27  232.02  198.54
   7 -10  27   -3.74   61.99
   7 -10  27    5.42  140.52
  -6  10 -27  115.96  188.82
  -6  10 -27   19.95   72.86
   6 -10  27    3.61   60.94
   6 -10  27  -10.39  125.23
  -5  10 -27 -203.40  207.71
   5 -10  27  -10.01  127.36
   5 -10  27    6.98   67.61
  -4  10 -27   -4.51   61.98
  -4  10 -27  -20.33  176.76
   4 -10  27 -160.00  133.33
   4 -10  27    3.39   59.39
  -3  10 -27    4.28   57.72
  -3  10 -27  -52.16  171.01
   3 -10  27    3.29   60.84
   3 -10  27   37.91  119.84
  -2  10 -27   18.73  157.19
  -2  10 -27   -4.06   59.30
   2 -10  27 -125.93  120.77
   2 -10  27 -136.92   53.82
  -1  10 -27    3.79   52.80
  -1  10 -27    5.93  146.52
   1 -10  27   12.23   53.97
   1 -10  27   -4.61  118.80
   0  10 -27  -72.40  143.05
   0  10 -27  -28.43   51.51
   0 -10  27    2.92   49.30
   0 -10  27  132.79  115.65
   1  10 -27   36.13   50.06
   1  10 -27    5.18  133.10
  -1 -10  27  -67.88  112.65
  -1 -10  27    2.74   45.90
 -10   3 -27  156.26  164.89
  10  -3  27   33.47  124.34
  10  -3  27    4.66   79.70
 -10   4 -27  103.41  176.68
  10  -4  27 -139.16   78.95
  10  -4  27   -5.54  141.35
 -10   5 -27   35.23  184.72
 -10   5 -27   -4.94   76.99
  10  -5  27    4.49   82.48
 -10   6 -27    5.33   85.80
 -10   6 -27   51.25  185.04
  10  -6  27  -74.14   77.89
  10  -6  27   -5.78  141.06
 -10   7 -27   -5.61   80.56
 -10   7 -27 -129.23  195.75
  10  -7  27  -17.88  141.52
  10  -7  27 -158.80   79.19
 -10   8 -27   -5.80   78.78
 -10   8 -27   70.52  198.33
  10  -8  27   16.86   74.08
  10  -8  27   36.84  154.48
  -7  11 -27  -15.78  208.07
   7 -11  27    5.45  138.32
  -6  11 -27    5.03   75.92
  -6  11 -27  108.08  198.28
   6 -11  27    3.72   62.10
   6 -11  27  146.11  128.77
  -5  11 -27   28.74   68.78
  -5  11 -27 -105.67  186.35
   5 -11  27    3.59   62.20
   5 -11  27    5.01  120.00
  -4  11 -27  -51.21  182.38
  -4  11 -27    4.52   63.15
   4 -11  27   31.33   62.11
   4 -11  27  -29.14  114.23
  -3  11 -27    4.30   58.13
  -3  11 -27    7.06  184.60
   3 -11  27  -20.05   58.89
   3 -11  27   42.63  113.74
  -2  11 -27  -53.17  183.06
  -2  11 -27    4.07   59.15
   2 -11  27  -19.34   55.37
   2 -11  27   -4.65  116.03
   0  11 -27  253.66   65.23
   0 -11  27  301.53  130.83
  -1 -11  27   13.19  112.07
  -1 -11  27  -44.07   51.11
 -11   3 -27  -49.97  178.94
  11  -3  27    4.80   90.42
 -11   4 -27  -72.50  180.05
  11  -4  27    5.75  133.76
  11  -4  27   38.23   80.81
 -11   5 -27  -73.75   68.58
 -11   5 -27 -104.07  185.69
  11  -5  27    4.70   80.82
  11  -5  27   -5.87  137.61
 -11   6 -27    5.40   77.56
 -11   6 -27   -7.71  200.73
  11  -6  27 -124.69   84.31
  11  -6  27    6.02  138.82
 -11   7 -27    5.74   79.37
 -11   7 -27    8.02  198.08
  11  -7  27    6.21  153.08
  -5  12 -27   74.83  221.20
   5 -12  27    3.70   62.05
   5 -12  27 -109.17  134.04
  -4  12 -27   56.58   66.77
  -4  12 -27 -131.38  210.37
   4 -12  27  -71.62   60.44
   4 -12  27  -15.13  124.93
  -3  12 -27   -4.50   64.95
  -3  12 -27 -111.73  204.00
   3 -12  27    3.47   60.01
   3 -12  27   39.35  127.96
  -2  12 -27   -4.28   61.91
  -2  12 -27   67.68  183.35
   2 -12  27    6.70   57.65
   2 -12  27   -4.80  121.80
  -1  12 -27    4.07   53.99
  -1  12 -27    6.93  168.13
   1 -12  27 -145.04  122.62
   1 -12  27    3.22   53.84
   0  12 -27   -3.87   56.03
   0  12 -27 -123.94  164.32
   0 -12  27    4.54  112.03
   0 -12  27  -45.85   51.06
 -12   3 -27  -29.98  175.19
  12  -3  27 -343.44   92.46
 -12   4 -27   68.49  182.27
 -12   4 -27    4.30   62.84
  12  -4  27    5.96  133.17
  12  -4  27 -124.45   87.41
 -12   5 -27  -68.76   71.60
 -12   5 -27  -70.57  191.17
  12  -5  27  -94.44   86.84
  12  -5  27    6.08  143.49
 -12   6 -27  -32.40  201.05
  12  -6  27   31.26  141.28
  -4  13 -27  -61.30  257.26
  -3  13 -27  -14.75   68.11
  -3  13 -27  111.46  246.17
   3 -13  27    5.25  136.96
  -2  13 -27 -192.31  230.83
  -2  13 -27    4.73   66.99
   2 -13  27    5.08  122.58
  -1  13 -27  173.12  227.01
   1 -13  27  -24.48  122.11
   0  13 -27    7.39  187.59
   0 -13  27    4.68  114.50
  13  -3  27   25.73   93.98
 -13   4 -27  -55.91  203.33
  13  -4  27   -6.18  149.30
  13  -4  27    5.24   76.93
   1  -2  28  -96.50   90.90
   0  -2  28  340.02  120.88
  -1  -2  28   56.82   87.16
   2  -2  28  266.53   95.78
  -2  -2  28   63.64   94.14
  -2   3 -28    4.82  110.31
   2  -3  28   29.50   98.70
   2  -3  28   20.37   72.71
  -1   3 -28  -82.55  111.50
   1  -3  28  -97.75   97.21
   1  -3  28  154.21   73.21
   0   3 -28   43.38  101.81
   0  -3  28  -12.10   74.07
   1   3 -28    4.09   90.79
  -1  -3  28  -83.51   68.94
  -2  -3  28  -62.22   74.25
   3  -2  28   15.77   94.25
  -3   3 -28  -60.69  123.88
   3  -3  28    4.10   73.05
   3  -3  28   -8.75  106.90
  -3   4 -28    5.16  121.14
   3  -4  28   55.36   63.19
   3  -4  28    4.38  110.68
  -2   4 -28 -191.97  121.88
   2  -4  28   18.29   65.51
   2  -4  28   -4.18  101.10
  -1   4 -28   28.13  116.35
   1  -4  28   -3.99   96.38
   1  -4  28  101.89   67.10
   0   4 -28   17.77  102.32
   0  -4  28  -85.70   65.59
   0  -4  28    3.80   88.58
   1   4 -28   16.73  102.10
  -1  -4  28  -57.79   88.72
  -1  -4  28  -10.66   66.11
   4  -2  28 -212.14   88.58
  -2  -4  28   28.02   61.84
  -4   3 -28  -31.74  135.22
   4  -3  28   13.67  103.80
   4  -3  28 -190.26   72.18
  -4   4 -28  -64.73  143.63
   4  -4  28  -31.99  112.50
   4  -4  28   74.90   67.72
  -4   5 -28   44.50  137.85
   4  -5  28  -46.88  117.72
   4  -5  28    3.56   60.24
  -3   5 -28   -5.33  131.35
   3  -5  28   17.50   60.28
   3  -5  28 -139.63  115.75
  -2   5 -28  335.75  139.28
   2  -5  28   38.89  116.90
   2  -5  28   86.71   65.20
   1  -5  28    3.46   62.17
   1  -5  28   82.59  101.17
   0   5 -28  -13.81   70.98
   0   5 -28 -230.89  113.53
   0  -5  28    7.84  102.30
   0  -5  28   30.54   64.11
   1   5 -28    8.39   61.54
   1   5 -28   -4.37  108.09
  -1  -5  28   33.35   90.10
  -1  -5  28   64.18   60.36
  -5   3 -28   -5.54  124.50
   5  -3  28    4.75  114.12
   5  -3  28    4.20   71.81
  -5   4 -28 -107.34  141.63
   5  -4  28    3.78   63.60
   5  -4  28    4.77  114.49
  -5   5 -28  -63.84  137.86
   5  -5  28   -4.88  116.05
   5  -5  28    3.66   64.23
  -5   6 -28  -60.65  151.66
  -5   6 -28    5.31   75.19
   5  -6  28 -215.82  126.96
   5  -6  28   43.04   64.08
  -4   6 -28  -63.96  147.56
  -4   6 -28  -10.36   74.13
   4  -6  28   72.79  117.22
   4  -6  28    3.50   62.91
  -3   6 -28   11.16  136.80
  -3   6 -28    5.00   76.59
   3  -6  28  -79.84  120.68
   3  -6  28    6.87   60.77
  -2   6 -28    5.36  134.54
  -2   6 -28    4.77   70.00
   2  -6  28  -23.80   61.09
   2  -6  28   -9.08  111.39
  -1   6 -28    4.49   68.26
  -1   6 -28   72.00  133.44
   1  -6  28  -65.59  104.57
   1  -6  28    3.38   60.45
   0   6 -28  -16.75   57.27
   0   6 -28 -235.86  124.75
   0  -6  28   52.83   59.65
   0  -6  28  -54.27  103.91
   1   6 -28   83.71  116.81
   1   6 -28  -38.64   60.74
  -1  -6  28  -94.77   92.81
  -1  -6  28   22.64   56.80
  -6   3 -28   46.63  136.65
   6  -3  28   49.70  114.00
   6  -3  28    4.30   73.25
  -6   4 -28    5.92  145.10
   6  -4  28  -89.86   72.79
   6  -4  28   29.89  114.01
  -6   5 -28    6.07  151.88
   6  -5  28    5.08  119.43
   6  -5  28    3.79   64.06
  -6   6 -28    5.41   77.56
  -6   6 -28   31.72  158.08
   6  -6  28    5.20  129.20
   6  -6  28 -100.25   69.45
  -6   7 -28   26.84   79.15
  -6   7 -28 -158.30  164.74
   6  -7  28    3.66   68.02
   6  -7  28    5.33  125.07
  -5   7 -28   56.88  159.20
  -5   7 -28  -41.53   77.17
   5  -7  28   -5.17  129.13
   5  -7  28   21.21   62.45
  -4   7 -28  -78.88  145.43
  -4   7 -28    4.99   70.26
   4  -7  28   31.02   58.80
   4  -7  28   60.34  129.18
  -3   7 -28  181.03  143.83
  -3   7 -28    4.78   68.75
   3  -7  28    4.90  127.56
   3  -7  28   13.53   61.37
  -2   7 -28  -13.61   66.03
  -2   7 -28 -365.45  149.54
   2  -7  28   30.02   60.19
   2  -7  28  148.47  123.91
  -1   7 -28    4.27   60.01
  -1   7 -28    5.41  126.46
   1  -7  28  -93.31  120.00
   1  -7  28   -9.86   58.15
   0   7 -28   83.53   59.18
   0   7 -28  124.40  142.81
   0  -7  28   25.82   59.73
   0  -7  28   27.07  112.95
   1   7 -28    4.94  121.99
   1   7 -28    3.68   55.47
  -1  -7  28   12.54   55.73
  -1  -7  28   56.05  107.41
  -7   3 -28 -116.37  143.61
   7  -3  28    5.20  119.35
  -7   4 -28  -80.90  148.25
   7  -4  28   32.60   74.75
   7  -4  28  124.88  121.77
  -7   5 -28   31.86  157.96
  -7   5 -28    5.44   80.89
   7  -5  28   -3.90   68.98
   7  -5  28   21.16  131.75
  -7   6 -28   46.42  164.95
  -7   6 -28   10.95   79.83
   7  -6  28   59.40  133.21
   7  -6  28   -3.88   63.97
  -7   7 -28    5.52   85.92
  -7   7 -28 -186.55  183.10
   7  -7  28  -38.71  149.04
   7  -7  28   -3.81   67.98
  -7   8 -28    7.20  192.99
  -7   8 -28   33.08   81.38
   7  -8  28   34.54   66.87
   7  -8  28  -51.14  134.85
  -6   8 -28    5.31   79.51
  -6   8 -28  151.72  196.17
   6  -8  28  118.23   70.57
   6  -8  28   27.39  154.56
  -5   8 -28  125.92  169.38
  -5   8 -28    5.09   73.99
   5  -8  28    3.58   59.31
   5  -8  28    5.30  132.74
  -4   8 -28   12.76  165.63
  -4   8 -28    4.86   69.73
   4  -8  28  -77.52  127.62
   4  -8  28    3.48   63.62
  -3   8 -28  -61.71  156.27
  -3   8 -28   -4.63   69.81
   3  -8  28   13.61   60.94
   3  -8  28    5.07  124.41
  -2   8 -28    4.38   60.37
  -2   8 -28    5.94  144.82
   2  -8  28   -4.99  121.52
   2  -8  28  122.89   55.86
  -1   8 -28   28.57  142.77
  -1   8 -28   -4.13   59.48
   1  -8  28    4.92  120.49
   1  -8  28  -61.39   59.65
   0   8 -28  -38.78   56.35
   0   8 -28   -5.45  139.12
   0  -8  28  121.37   56.72
   0  -8  28   58.07  118.76
   1   8 -28  -32.37   53.99
   1   8 -28    5.19  131.22
  -1  -8  28   11.82   53.20
  -1  -8  28 -197.64  118.59
  -8   3 -28  -51.53  155.33
   8  -3  28  -99.17   79.36
   8  -3  28  -16.37  135.57
  -8   4 -28  117.84  158.48
   8  -4  28  -37.94  124.85
   8  -4  28    4.28   73.37
  -8   5 -28  -20.09  166.87
   8  -5  28    5.51  140.55
   8  -5  28   -4.12   72.92
  -8   6 -28  285.62  192.76
   8  -6  28  325.98  155.39
  -8   7 -28  -72.47  188.24
   8  -7  28    5.76  143.22
  -8   8 -28  -75.28  204.58
   8  -8  28   35.36  144.27
  -8   9 -28 -172.84  198.73
   8  -9  28   53.72  157.80
  -7   9 -28  -98.07  183.73
  -7   9 -28    5.56   83.02
   7  -9  28 -136.50  146.73
   7  -9  28    3.78   68.07
  -6   9 -28  -79.82  190.34
  -6   9 -28    5.32   83.37
   6  -9  28   -5.45  130.31
   6  -9  28  131.17   62.44
  -5   9 -28    5.07   77.86
  -5   9 -28  -69.94  188.96
   5  -9  28   -5.27  152.33
   5  -9  28    3.53   65.96
  -4   9 -28   -4.83   71.05
  -4   9 -28  -40.63  185.95
   4  -9  28    3.43   61.74
   4  -9  28  -71.98  144.40
  -3   9 -28    6.53  168.38
  -3   9 -28    4.59   64.49
   3  -9  28    5.05  122.78
   3  -9  28  250.08   67.05
  -2   9 -28  194.51  157.96
  -2   9 -28    4.32   61.04
   2  -9  28    3.25   56.61
   2  -9  28  109.99  128.91
  -1   9 -28   -4.07   58.68
  -1   9 -28    6.00  154.01
   1  -9  28   51.07   55.93
   1  -9  28   -4.96  121.01
   0   9 -28  -80.15   58.20
   0   9 -28  182.70  151.20
   0  -9  28   34.41  119.26
   0  -9  28   -3.05   54.85
  -1  -9  28 -106.21  127.27
  -1  -9  28  -20.09   49.92
  -9   3 -28  149.12  162.84
   9  -3  28   85.95  138.75
   9  -3  28    4.69   82.21
  -9   4 -28   -6.89  177.97
   9  -4  28 -237.59  144.69
   9  -4  28   -4.52   81.13
  -9   5 -28  -41.78   81.50
  -9   5 -28   42.37  180.65
   9  -5  28 -115.03  161.23
   9  -5  28   -4.38   78.65
  -9   6 -28  124.56  189.37
  -9   6 -28   66.37   77.79
   9  -6  28  -29.34  139.91
   9  -6  28    4.27   79.44
  -9   7 -28 -160.01  199.41
   9  -7  28   78.17  142.07
   9  -7  28  143.62   75.78
  -9   8 -28    5.91   85.83
  -9   8 -28 -149.74  204.30
   9  -8  28    4.21   76.67
   9  -8  28    6.15  155.82
  -7  10 -28   79.50  214.55
   7 -10  28    5.71  145.47
  -6  10 -28    5.30   76.14
  -6  10 -28  230.54  198.19
   6 -10  28    5.48  135.36
   6 -10  28    3.71   66.78
  -5  10 -28    5.05   71.75
  -5  10 -28  237.82  187.00
   5 -10  28  -42.47  126.00
   5 -10  28 -143.66   58.58
  -4  10 -28    7.21  180.65
  -4  10 -28   -4.80   69.92
   4 -10  28   -5.17  126.59
   4 -10  28    3.55   60.58
  -3  10 -28   -4.55   62.75
   3 -10  28 -441.56  129.46
   3 -10  28    3.45   60.21
  -2  10 -28    4.30   64.65
  -2  10 -28  988.68  209.63
   2 -10  28    3.36   66.80
   2 -10  28   -5.02  139.58
  -1  10 -28    4.02   68.71
  -1  10 -28 -220.20  178.68
   1 -10  28   38.84   64.18
   0  10 -28  -23.60  160.20
  -1 -10  28  199.99   60.07
 -10   3 -28   21.39  176.83
  10  -3  28    4.89   79.68
 -10   4 -28 -108.83  173.06
  10  -4  28   -5.90  142.51
  10  -4  28  182.78   80.32
 -10   5 -28  141.54  184.39
 -10   5 -28    5.11   74.23
  10  -5  28   -4.67   81.84
  10  -5  28    6.00  151.58
 -10   6 -28  169.77  193.65
 -10   6 -28   16.65   84.87
  10  -6  28  -55.20  148.22
  10  -6  28    4.54   84.49
 -10   7 -28 -293.33   74.72
 -10   7 -28    8.03  202.13
  10  -7  28  -87.86  150.85
  -6  11 -28 -115.58  212.85
  -5  11 -28  -50.75   68.81
  -5  11 -28 -153.08  208.83
   5 -11  28    3.77   61.70
   5 -11  28  -26.66  135.54
  -4  11 -28    4.82   70.93
  -4  11 -28  179.74  201.99
   4 -11  28    5.16  124.21
   4 -11  28   87.68   67.30
  -3  11 -28    4.54   62.22
  -3  11 -28  -45.06  191.81
   3 -11  28   -5.04  114.39
   3 -11  28   17.71   60.02
  -2  11 -28   92.68  180.77
  -2  11 -28    4.30   64.25
   2 -11  28    4.95  115.44
   2 -11  28   -3.39   60.23
  -1  11 -28   86.67  170.00
   1 -11  28   87.96  123.03
   1 -11  28    3.26   52.84
   0  11 -28  -26.69   55.79
   0  11 -28  220.37  162.12
   0 -11  28    6.20   49.38
   0 -11  28 -331.83  125.08
 -11   3 -28   75.09  162.64
  11  -3  28   -5.02   85.20
 -11   4 -28   15.27  192.24
  11  -4  28    4.97   83.51
  11  -4  28  288.58  154.23
 -11   5 -28   31.45  192.50
 -11   5 -28    5.03   70.70
  11  -5  28 -180.96  152.17
  11  -5  28 -161.41   81.68
 -11   6 -28  -73.00  202.74
  11  -6  28    6.39  152.37
  -4  12 -28    9.93   59.82
  -4  12 -28  -52.79  225.51
   4 -12  28   57.90  134.49
  -3  12 -28 -293.58  207.65
  -3  12 -28  -14.16   74.93
   3 -12  28 -194.69  127.10
   3 -12  28  -18.15   57.92
  -2  12 -28   -4.49   62.73
  -2  12 -28  -94.75  198.76
   2 -12  28  105.06  122.02
   2 -12  28    3.51   59.78
  -1  12 -28    7.25  180.27
  -1  12 -28   -4.25   60.24
   1 -12  28   24.43  125.25
   1 -12  28   47.18   60.51
   0  12 -28   51.62  167.35
   0  12 -28    4.02   50.68
   0 -12  28   -6.41   54.27
   0 -12  28    4.74  121.38
  12  -3  28  183.79   95.28
 -12   4 -28  -80.42  194.23
  12  -4  28   63.97  154.72
  -2  13 -28   -9.64  251.33
   2 -13  28    5.28  123.83
  -1  13 -28  -42.90  218.35
  -1  13 -28    4.71   63.61
   1 -13  28  127.00  125.34
   0  13 -28 -335.80  199.54
   0 -13  28 -324.43  135.57
   0  -2  29  132.93  114.93
  -1  -2  29   48.61  108.69
  -2  -2  29   56.38  107.52
  -2   3 -29  -55.63  125.46
   2  -3  29  -31.94   82.48
  -1   3 -29   24.04  111.19
   1  -3  29  -77.20   78.30
   0  -3  29    4.50   78.73
  -1  -3  29  -22.12   77.90
  -3   3 -29  -37.18  123.64
   3  -3  29   32.02   84.13
  -3   4 -29   16.31  126.02
   3  -4  29  -11.98   66.60
   3  -4  29    4.64  104.58
  -2   4 -29    5.18  125.28
   2  -4  29   47.58   73.89
   2  -4  29   79.92  113.00
  -1   4 -29 -118.26  118.27
   1  -4  29  -93.31   74.17
   1  -4  29    8.48  110.44
   0   4 -29 -121.28  119.52
   0  -4  29   23.25   64.10
   0  -4  29 -109.12  100.98
   1   4 -29  -13.18  112.41
  -1  -4  29  -96.61   95.58
  -1  -4  29  -84.56   71.57
  -4   3 -29   44.57  130.65
   4  -3  29 -128.56   76.78
   4  -3  29   19.67  110.33
  -4   4 -29  -39.85  127.91
   4  -4  29    4.85  115.28
   4  -4  29    8.09   75.19
  -4   5 -29  -35.15  135.59
   4  -5  29   -3.78   71.50
   4  -5  29  -34.79  120.92
  -3   5 -29  -28.07  136.94
   3  -5  29   -4.77  117.91
   3  -5  29  -67.03   68.48
  -2   5 -29  -53.70  136.85
   2  -5  29    3.70   62.34
   2  -5  29   -4.58  113.67
  -1   5 -29 -200.01  130.18
   1  -5  29  -70.12   68.61
   1  -5  29  -91.86  109.64
   0   5 -29  -14.62  119.32
   0   5 -29   15.45   77.72
   0  -5  29    4.16  102.50
   0  -5  29 -108.71   58.90
   1   5 -29   -9.27   69.56
   1   5 -29   18.42  118.43
  -1  -5  29   -3.93   98.68
  -1  -5  29    7.21   63.54
  -5   3 -29   75.92  135.87
   5  -3  29    5.13  123.91
   5  -3  29   -4.63   81.74
  -5   4 -29   -5.96  142.93
   5  -4  29  -60.77  119.20
   5  -4  29    4.06   70.37
  -5   5 -29   36.77  149.31
   5  -5  29    3.87   65.39
   5  -5  29    5.17  123.49
  -5   6 -29    5.83   85.71
  -5   6 -29  153.71  160.72
   5  -6  29    5.30  121.68
   5  -6  29   33.86   69.68
  -4   6 -29   -5.71   88.25
  -4   6 -29  -79.88  152.37
   4  -6  29   25.61  119.76
   4  -6  29   62.45   71.32
  -3   6 -29    5.53   84.20
  -3   6 -29   -5.90  146.62
   3  -6  29   -4.96  112.72
   3  -6  29   68.80   69.32
  -2   6 -29  -33.97  139.12
  -2   6 -29   10.54   73.81
   2  -6  29   -4.79  113.46
   2  -6  29    3.59   64.85
  -1   6 -29   -5.42  138.92
  -1   6 -29  -44.55   74.86
   1  -6  29 -129.10  115.49
   1  -6  29  -35.75   58.57
   0   6 -29  180.85  130.68
   0   6 -29   13.75   70.20
   0  -6  29  154.17  106.97
   0  -6  29   20.99   64.37
   1   6 -29    4.20   60.83
   1   6 -29   29.33  120.54
  -1  -6  29  237.53   97.40
  -1  -6  29   34.37   60.81
  -6   3 -29   73.52  140.11
   6  -3  29    9.40   84.09
   6  -3  29    5.36  119.15
  -6   4 -29    6.25  151.40
   6  -4  29  -42.27  118.30
   6  -4  29    4.18   74.32
  -6   5 -29  -64.18  159.02
   6  -5  29   -5.38  126.13
   6  -5  29    8.01   68.75
  -6   6 -29 -113.73  165.14
  -6   6 -29   35.31   86.59
   6  -6  29    5.50  127.13
   6  -6  29    3.89   77.87
  -6   7 -29    5.79   90.80
  -6   7 -29   13.98  185.19
   6  -7  29  -39.41  154.00
   6  -7  29 -186.77   68.63
  -5   7 -29   67.62   83.59
  -5   7 -29 -113.97  166.98
   5  -7  29   14.78   69.13
   5  -7  29   21.82  138.51
  -4   7 -29   -5.43   75.10
  -4   7 -29  -90.29  168.38
   4  -7  29   15.92  124.29
   4  -7  29   -3.61   62.09
  -3   7 -29   31.04  156.61
  -3   7 -29    5.21   79.73
   3  -7  29   60.38   64.44
   3  -7  29   15.52  123.52
  -2   7 -29   83.94   78.15
  -2   7 -29 -472.07  154.60
   2  -7  29 -116.17  128.08
  -1   7 -29    5.73  135.66
  -1   7 -29   -4.64   64.87
   1  -7  29  -73.75  121.66
   1  -7  29  100.57   58.62
   0   7 -29  115.16  138.43
   0   7 -29  -43.03   61.62
   0  -7  29 -175.57  113.54
   0  -7  29    3.41   58.56
   1   7 -29   15.63  128.85
   1   7 -29   35.66   58.52
  -1  -7  29   90.49  107.35
  -1  -7  29   -6.65   52.71
  -7   3 -29  -83.60  148.62
   7  -3  29   -4.80   84.88
  -7   4 -29 -150.86  159.48
   7  -4  29   56.41   73.73
   7  -4  29    5.52  130.20
  -7   5 -29    5.89   83.59
  -7   5 -29 -168.34  179.99
   7  -5  29  -49.25   68.04
   7  -5  29  -67.32  144.43
  -7   6 -29  273.08  179.56
  -7   6 -29    5.89   90.82
   7  -6  29    4.06   75.19
   7  -6  29 -102.91  161.22
  -7   7 -29 -241.16  191.65
  -7   7 -29    5.92   84.62
   7  -7  29    5.84  145.29
   7  -7  29   -3.97   72.13
  -7   8 -29   23.60   89.85
  -7   8 -29 -129.23  190.08
   7  -8  29 -220.16   75.28
   7  -8  29  -17.81  149.77
  -6   8 -29   65.54  181.63
  -6   8 -29    5.69   86.07
   6  -8  29  -38.57   68.27
   6  -8  29   51.69  138.09
  -5   8 -29    5.48   83.30
  -5   8 -29 -238.78  197.38
   5  -8  29 -491.41  145.31
   5  -8  29 -164.54   74.16
  -4   8 -29  -47.32  180.18
  -4   8 -29    5.24   76.39
   4  -8  29   10.94   64.40
   4  -8  29    5.46  150.43
  -3   8 -29    4.99   72.08
  -3   8 -29  104.23  166.20
   3  -8  29   59.16  140.66
   3  -8  29   25.02   63.31
  -2   8 -29  -18.82  159.47
  -2   8 -29    4.73   65.13
   2  -8  29   14.00   62.26
   2  -8  29 -164.23  135.51
  -1   8 -29    4.44   63.81
  -1   8 -29   90.36  154.28
   1  -8  29   78.55   64.06
   1  -8  29   20.79  126.25
   0   8 -29   49.88   60.51
   0   8 -29 -478.07  165.66
   0  -8  29  -66.11  128.63
   0  -8  29   42.90   57.63
  -1  -8  29   56.55   52.28
  -8   3 -29   27.04  168.22
   8  -3  29   -4.85   86.56
  -8   4 -29    6.89  180.32
   8  -4  29    5.76  146.19
  -8   5 -29  -84.97  186.21
   8  -5  29    5.85  153.33
  -8   6 -29  -95.53  186.62
   8  -6  29  -47.68  150.66
  -8   7 -29    7.66  207.86
   8  -7  29    6.07  155.33
  -8   8 -29 -199.05  199.15
   8  -8  29   -6.17  163.99
  -7   9 -29 -135.42  205.18
   7  -9  29    6.04  149.29
  -6   9 -29    5.69   76.97
  -6   9 -29  184.68  199.42
   6  -9  29   40.67  146.97
   6  -9  29    3.81   66.06
  -5   9 -29   88.99  186.88
  -5   9 -29    5.43   84.64
   5  -9  29    3.69   59.73
   5  -9  29    5.63  141.17
  -4   9 -29 -114.40  182.84
  -4   9 -29    5.18   76.56
   4  -9  29   16.49  128.85
   4  -9  29   21.57   66.86
   3  -9  29   -3.51   64.72
   3  -9  29 -232.32  143.48
  -1   9 -29   47.87   95.50
  -1   9 -29  347.69  200.26
   1  -9  29  279.97   93.33
   0  -9  29  339.67   73.91
  -9   3 -29    7.11  168.47
   9  -3  29   15.01   84.13
  -9   4 -29  108.84  179.03
   9  -4  29   42.83   80.92
   9  -4  29    6.02  151.23
  -9   5 -29  224.08  184.73
  -9   5 -29  -43.97   81.56
   9  -5  29    4.58   86.95
   9  -5  29  171.08  148.96
  -9   6 -29 -180.52   81.09
  -9   6 -29  -61.69  192.00
   9  -6  29    6.22  149.88
   9  -6  29    4.45   76.52
  -9   7 -29 -145.05  209.66
   9  -7  29  -25.32  160.73
  -6  10 -29  433.25  214.09
   6 -10  29  -11.55  145.18
  -5  10 -29  -71.21  201.43
  -5  10 -29   48.46   71.26
   5 -10  29  111.93  139.48
   5 -10  29   -3.76   66.48
  -4  10 -29  -99.30  187.13
  -4  10 -29    5.12   71.91
   4 -10  29    5.48  131.82
   4 -10  29  -14.63   65.79
  -3  10 -29   -4.85   68.31
  -3  10 -29  -44.03  187.97
   3 -10  29   87.09   66.14
   3 -10  29   64.69  134.82
  -2  10 -29   35.05  176.36
  -2  10 -29    4.59   62.62
   2 -10  29  -64.00  132.00
   2 -10  29    3.53   54.95
  -1  10 -29    4.31   59.63
  -1  10 -29  112.80  167.05
   1 -10  29    5.29  128.82
   1 -10  29  -58.02   61.38
   0  10 -29   -8.00   57.13
   0  10 -29   62.10  156.56
   0 -10  29 -377.56  129.11
   0 -10  29   32.53   56.31
 -10   3 -29  329.97  173.74
  10  -3  29   36.19   89.85
 -10   4 -29 -160.51  186.24
  10  -4  29    4.91   88.97
  10  -4  29    6.30  146.17
 -10   5 -29   74.33   78.78
 -10   5 -29  -94.53  192.62
  10  -5  29   -4.86   90.54
  10  -5  29  102.02  160.58
  -4  11 -29   49.80  219.19
  -4  11 -29   15.39   75.00
   4 -11  29    5.52  130.31
   4 -11  29    7.66   66.19
  -3  11 -29    4.85   76.13
  -3  11 -29  -79.61  194.27
   3 -11  29   11.15   63.02
   3 -11  29   75.63  139.63
  -2  11 -29   30.15  198.05
  -2  11 -29  -59.24   65.11
   2 -11  29    3.60   59.92
   2 -11  29 -106.33  135.52
  -1  11 -29  273.97  179.79
  -1  11 -29    4.29   62.10
   1 -11  29    3.43   59.74
   1 -11  29   10.49  135.41
   0  11 -29   -4.02   55.83
   0  11 -29 -154.36  171.75
   0 -11  29 -232.31  127.74
   0 -11  29   26.12   58.50
  11  -3  29    5.28   89.85
 -11   4 -29 -112.90  197.69
  11  -4  29  -26.37  155.01
  -3  12 -29   89.57  227.02
   3 -12  29    5.43  144.26
  -2  12 -29  -58.68  217.14
  -2  12 -29   -4.72   66.14
   2 -12  29    5.30  134.84
   2 -12  29  -88.27   58.88
  -1  12 -29   15.26  191.03
  -1  12 -29    4.46   60.13
   1 -12  29    7.08   61.94
   1 -12  29  -20.70  132.48
   0  12 -29 -162.84  172.43
   0  12 -29    4.21   54.06
   0 -12  29  326.43  133.30
   0 -12  29   10.10   54.33
  -1  13 -29  244.57  230.38
   1 -13  29  -36.81  134.26
  -2   3 -30   21.22  116.18
   2  -3  30   57.10   95.95
   1  -3  30  -31.05   95.71
   0  -3  30   -5.11   91.04
  -1  -3  30   94.44   93.97
  -3   3 -30   61.37  130.97
   3  -3  30    5.18   91.46
  -3   4 -30    5.72  133.31
   3  -4  30    4.95  112.73
   3  -4  30   17.19   71.87
  -2   4 -30  -65.44  131.01
   2  -4  30  119.77   76.95
   2  -4  30    4.73  110.33
  -1   4 -30 -264.23  130.16
   1  -4  30  199.32  121.15
   1  -4  30  123.55   81.78
   0   4 -30  -39.24  128.19
   0  -4  30   25.43   71.82
   0  -4  30  -82.51  109.08
   1   4 -30   13.78  114.36
  -1  -4  30   79.45   78.65
  -4   3 -30  210.73  138.21
   4  -3  30  108.69   93.50
  -4   4 -30   59.90  150.92
   4  -4  30    5.16  126.40
   4  -4  30 -108.56   82.56
  -4   5 -30  -86.85  147.41
   4  -5  30   31.68  132.46
   4  -5  30   12.12   74.42
  -3   5 -30   11.88  142.59
   3  -5  30 -139.69   75.97
   3  -5  30   -5.07  117.05
  -2   5 -30    5.68  140.89
   2  -5  30    4.86  111.45
   2  -5  30  146.83   73.60
  -1   5 -30    6.43  104.47
  -1   5 -30   97.58  129.23
   1  -5  30   27.74   71.45
   1  -5  30 -102.21  119.54
   0   5 -30 -174.76  128.62
   0   5 -30   81.53   87.46
   0  -5  30   27.20   69.67
   0  -5  30  123.24  109.30
   1   5 -30   38.67  113.41
   1   5 -30   -5.15   75.73
  -1  -5  30   33.21   97.12
  -1  -5  30  -42.40   68.68
  -5   3 -30  -30.64  144.36
   5  -3  30   -5.18   97.00
  -5   4 -30    6.28  149.60
   5  -4  30    5.39  120.59
   5  -4  30   39.71   77.33
  -5   5 -30    6.48  159.41
   5  -5  30    5.49  131.64
   5  -5  30  148.45   73.29
  -5   6 -30  229.94  211.99
  -4   6 -30  227.08  162.92
  -4   6 -30   -6.37   90.28
   4  -6  30    3.88   70.93
   4  -6  30 -326.68  129.23
  -3   6 -30  -55.64   85.07
  -3   6 -30  130.78  155.39
   3  -6  30   57.46   68.24
   3  -6  30   21.07  126.35
  -2   6 -30   -5.97  139.65
  -2   6 -30   -5.89   83.40
   2  -6  30  127.10  124.03
   2  -6  30   30.43   71.83
  -1   6 -30    5.50   75.00
  -1   6 -30  239.47  150.42
   1  -6  30   -9.78  112.10
   1  -6  30   15.17   66.64
   0   6 -30   60.53   76.13
   0   6 -30   81.35  141.46
   0  -6  30  205.03  115.90
   0  -6  30   22.28   68.76
  -1  -6  30    8.79  105.38
  -1  -6  30   -3.65   61.52
  -6   3 -30  -64.30  149.81
   6  -3  30   -5.21   90.13
  -6   4 -30  124.96  154.94
   6  -4  30   -5.63  133.09
   6  -4  30  112.86   78.78
  -6   6 -30 -225.98  184.87
  -6   6 -30  -19.37   97.43
   6  -6  30    4.08   78.15
   6  -6  30   -5.83  134.59
  -6   7 -30    6.29   88.93
  -6   7 -30   29.60  172.33
   6  -7  30  -51.83   66.09
   6  -7  30  -47.55  146.85
  -5   7 -30   85.18  178.47
  -5   7 -30   24.62   90.46
   5  -7  30  109.44  141.05
   5  -7  30    3.87   61.13
  -4   7 -30   83.50   95.10
  -4   7 -30  504.96  186.01
   4  -7  30  -78.49  152.91
   4  -7  30    3.79   69.03
  -3   7 -30   -5.71   85.26
  -3   7 -30 -656.60  188.73
   3  -7  30   41.05   68.87
  -2   7 -30   -5.41   81.77
  -2   7 -30   63.16  154.53
   2  -7  30 -239.99  135.01
   2  -7  30   14.78   70.01
  -1   7 -30   12.12  150.78
  -1   7 -30    5.06   69.13
   1  -7  30   51.84  130.05
   1  -7  30  -69.54   64.19
   0   7 -30   -4.67   68.83
   0   7 -30 -150.51  153.08
   0  -7  30  -46.90   69.32
   0  -7  30 -134.66  117.84
  -7   3 -30 -270.57  181.10
   7  -3  30   21.07   98.11
  -7   4 -30   96.71  185.93
   7  -4  30 -117.63  161.26
  -7   5 -30    6.45   97.67
  -7   5 -30  -64.12  178.20
   7  -5  30 -154.99  146.29
   7  -5  30    8.68   76.39
  -7   6 -30    6.39   87.14
  -7   6 -30   73.73  190.38
   7  -6  30    4.25   69.60
   7  -6  30  206.32  143.36
  -7   7 -30   -7.74  192.45
  -7   7 -30   25.52   94.14
   7  -7  30    4.14   74.07
   7  -7  30    6.15  156.13
  -7   8 -30 -201.92  215.81
   7  -8  30  -49.98  158.02
  -6   8 -30 -185.68  196.99
  -6   8 -30   24.60   90.17
   6  -8  30  -96.53   67.11
   6  -8  30  -72.40  150.80
  -5   8 -30   23.74   87.40
  -5   8 -30  -89.19  182.00
   5  -8  30    7.81   63.54
   5  -8  30  -11.74  146.78
  -4   8 -30  157.38  176.59
  -4   8 -30   62.55   91.08
   4  -8  30    3.82   68.38
   4  -8  30   63.18  133.78
  -3   8 -30    6.89  180.07
  -3   8 -30    5.41   80.95
   3  -8  30   11.28  134.46
   3  -8  30   -3.75   68.39
  -2   8 -30    5.12   78.42
   2  -8  30 -383.37  149.65
   2  -8  30   33.21   69.03
   0   8 -30  281.41   74.53
   0  -8  30    5.33  146.75
  -8   3 -30   78.23  166.95
  -8   4 -30 -283.25  181.33
   8  -4  30  -67.67  152.65
  -8   5 -30   14.98  191.84
   8  -5  30 -118.21  148.86
  -8   6 -30 -108.34  193.98
   8  -6  30  -94.71  148.69
  -8   7 -30    8.09  201.07
   8  -7  30  -31.99  162.42
  -6   9 -30  219.43  201.01
   6  -9  30   36.93  153.88
  -5   9 -30   70.46  206.62
  -5   9 -30    5.84   86.79
   5  -9  30   -5.99  139.24
   5  -9  30  -81.11   71.80
  -4   9 -30    5.57   79.65
  -4   9 -30   -7.55  186.53
   4  -9  30    5.86  140.78
   4  -9  30   37.68   64.26
  -3   9 -30    7.27  186.08
  -3   9 -30    5.29   75.97
   3  -9  30  121.51   68.36
   3  -9  30    5.78  139.05
  -2   9 -30    6.97  183.96
  -2   9 -30    4.99   71.65
   2  -9  30   97.29  146.01
   2  -9  30   -3.60   59.10
  -1   9 -30   53.22  168.91
  -1   9 -30  -93.24   72.63
   1  -9  30   22.69  139.07
   1  -9  30   10.51   62.36
   0   9 -30    4.34   60.63
   0   9 -30  -81.95  163.66
   0  -9  30  -61.59  135.67
   0  -9  30   20.55   58.77
  -9   4 -30 -160.84  182.20
   9  -4  30 -128.37   87.75
   9  -4  30  -19.36  147.68
  -9   5 -30    5.81   80.38
  -9   5 -30  205.10  193.68
   9  -5  30    6.48  156.82
   9  -5  30    4.80   71.96
  -4  10 -30   -5.48   74.09
  -4  10 -30   24.17  201.88
   4 -10  30 -110.40  141.70
  -3  10 -30   10.38   77.83
  -3  10 -30    7.73  194.73
   3 -10  30    5.72  141.08
   3 -10  30   -3.74   64.63
  -2  10 -30   -4.90   68.66
  -2  10 -30 -265.50  191.62
   2 -10  30    5.66  135.51
   2 -10  30 -148.42   65.61
  -1  10 -30 -139.27  183.15
  -1  10 -30   -4.59   63.11
   1 -10  30 -185.56  145.80
   1 -10  30  -82.76   63.75
   0  10 -30    4.25   61.19
   0  10 -30  -13.01  170.05
   0 -10  30  161.31  139.64
   0 -10  30 -120.67   64.09
  -3  11 -30   25.15  214.64
  -3  11 -30    5.16   60.87
   3 -11  30   -5.73  147.85
  -2  11 -30    7.91  201.60
  -2  11 -30   -4.87   70.54
   2 -11  30    3.79   64.41
   2 -11  30   28.26  141.59
  -1  11 -30   -4.55   64.26
  -1  11 -30   80.76  184.20
   1 -11  30    5.58  133.74
   1 -11  30   10.85   64.89
   0 -11  30   65.80  143.53
   0 -11  30  -61.96   59.41
  -1  12 -30   47.71  206.18
  -1  12 -30   28.18   62.55
   1 -12  30   44.20  139.54
   1 -12  30    3.71   51.19
   2  -3  31   -6.05  108.76
   1  -3  31  -12.03  105.14
   0  -3  31  -23.61  106.73
  -1  -3  31  124.70  102.48
   3  -3  31    6.01  111.54
  -3   4 -31  -12.07  141.90
   3  -4  31    4.76   82.97
   3  -4  31 -265.72  126.64
  -2   4 -31    5.75  133.67
   2  -4  31    4.74   84.61
   2  -4  31    5.10  120.58
  -1   4 -31    5.45  132.36
   1  -4  31  -42.49   86.75
   0   4 -31    5.13  121.57
   0  -4  31   18.73   84.69
  -1  -4  31    4.58   73.40
   4  -3  31   17.90  103.55
  -4   4 -31  -12.65  159.02
   4  -4  31 -177.19   84.85
   4  -4  31 -110.80  133.30
  -4   5 -31  269.09  192.55
   4  -5  31  534.08  166.69
   4  -5  31   47.90   92.93
  -3   5 -31    6.28  145.24
   3  -5  31    4.31   72.21
   3  -5  31 -172.40  137.77
  -2   5 -31   -6.00  145.91
   2  -5  31   15.49  118.12
   2  -5  31    4.29   73.67
  -1   5 -31    7.50  107.82
  -1   5 -31    5.71  137.20
   1  -5  31   24.63  119.11
   1  -5  31    8.41   74.30
   0   5 -31  -86.29  139.20
   0   5 -31 -159.99  100.44
   0  -5  31   -4.67  105.99
   0  -5  31  -16.77   72.44
   5  -3  31    5.92  107.14
  -5   4 -31  311.39  208.05
   5  -4  31  780.08  183.41
   5  -4  31  538.17  112.61
  -5   5 -31 -246.97  175.56
   5  -5  31   40.93  138.89
   5  -5  31   22.17   84.90
  -5   6 -31   -7.25  105.00
  -5   6 -31  -92.65  171.07
   5  -6  31   23.88  145.60
   5  -6  31   -8.39   78.58
  -4   6 -31   27.35  162.84
  -4   6 -31    7.21  110.58
   4  -6  31  -11.55  135.28
   4  -6  31  -90.59   81.07
  -3   6 -31  196.18  113.13
  -3   6 -31 -177.09  184.34
   3  -6  31   -5.58  150.55
   3  -6  31   -4.07   80.46
  -2   6 -31   94.26  187.96
  -2   6 -31 -119.73  133.38
   2  -6  31  340.04  116.62
  -1   6 -31    6.17   93.69
  -1   6 -31 -186.19  164.26
   1  -6  31 -155.28  135.96
   1  -6  31   -8.08   78.95
   0   6 -31   -5.72  143.11
   0   6 -31  100.72   80.99
   0  -6  31  -59.28   71.21
  -6   4 -31 -138.99  174.01
   6  -4  31   24.68   88.90
   6  -4  31   -6.04  138.23
  -6   5 -31  -28.73  171.69
  -6   5 -31 -130.08  112.06
   6  -5  31 -206.43  146.80
   6  -5  31   -4.55   84.24
  -6   6 -31  -81.83  176.85
  -6   6 -31    7.16  107.54
   6  -6  31    4.31   84.20
   6  -6  31  105.18  156.72
  -6   7 -31 -234.47  196.45
  -6   7 -31    6.89   99.25
   6  -7  31  121.20   76.04
   6  -7  31    6.28  145.86
  -5   7 -31    7.50  185.91
  -5   7 -31  -20.36   99.98
   5  -7  31  -36.54  152.01
   5  -7  31  -85.30   71.33
  -4   7 -31    6.60   95.97
  -4   7 -31 -137.03  178.99
   4  -7  31   11.95   69.37
   4  -7  31  -11.85  135.18
  -3   7 -31    6.33   91.46
  -3   7 -31   -6.94  174.64
   3  -7  31   55.08   72.41
   3  -7  31  -69.33  135.26
  -2   7 -31 -326.58  169.91
  -2   7 -31    5.98   89.98
   2  -7  31   -3.90   74.66
   2  -7  31 -140.88  140.41
  -1   7 -31   -5.57   86.67
  -1   7 -31 -612.89  170.25
   1  -7  31 -180.47  139.25
   1  -7  31    3.87   70.40
   0   7 -31  -40.83   76.25
   0   7 -31 -376.84  169.75
   0  -7  31   26.71   71.56
   0  -7  31 -452.15  139.29
  -7   4 -31  -14.59  178.77
   7  -4  31    5.05   91.18
   7  -4  31    6.32  146.91
  -7   5 -31    7.14  105.59
  -7   5 -31   30.12  188.03
   7  -5  31    4.63   79.67
   7  -5  31  145.52  149.27
  -7   6 -31   48.95  108.76
  -7   6 -31 -280.75  193.03
   7  -6  31    6.43  160.55
   7  -6  31   13.43   82.57
  -5   8 -31    6.46   92.29
  -5   8 -31   39.42  196.18
   5  -8  31  -43.44  152.82
   5  -8  31 -110.43   74.05
  -4   8 -31    6.21   90.34
  -4   8 -31 -144.21  193.64
   4  -8  31  151.80  154.94
   4  -8  31   56.05   67.94
  -3   8 -31   21.92  176.79
  -3   8 -31  -23.66   85.16
   3  -8  31 -304.32  147.26
   3  -8  31    7.88   67.78
  -2   8 -31   11.14   80.59
  -2   8 -31 -344.25  184.39
   2  -8  31  -11.65   66.72
   2  -8  31   -5.87  146.39
  -1   8 -31    6.73  173.03
  -1   8 -31    5.20   76.45
   1  -8  31   23.05  143.65
   1  -8  31  -38.10   68.27
   0   8 -31    9.63   70.19
   0   8 -31  147.27  159.26
   0  -8  31 -140.16  138.90
   0  -8  31   -3.70   69.18
  -8   4 -31  245.39  192.11
   8  -4  31   -6.63  162.09
  -8   5 -31 -126.49  197.24
   8  -5  31  125.41  158.21
  -4   9 -31    6.02   90.69
  -4   9 -31   39.97  198.34
   4  -9  31    6.17  149.01
  -3   9 -31   -7.69  197.22
  -3   9 -31    5.71   80.12
   3  -9  31  109.64  146.42
   3  -9  31  -42.54   68.54
  -2   9 -31  257.83  189.07
  -2   9 -31   -5.38   70.54
   2  -9  31 -126.70  154.34
   2  -9  31    3.79   63.09
  -1   9 -31 -160.32   74.74
  -1   9 -31 -147.39  179.86
   1  -9  31 -191.04  140.27
   1  -9  31   14.78   67.60
   0   9 -31    6.62  165.61
   0   9 -31    4.65   62.70
   0  -9  31 -486.41  151.03
   0  -9  31   10.86   61.62
  -3  10 -31 -106.27  210.31
   3 -10  31    6.13  149.49
  -2  10 -31    5.24   69.32
  -2  10 -31  -54.43  194.72
   2 -10  31 -139.84  150.55
   2 -10  31 -113.11   70.53
  -1  10 -31   -4.90   68.30
  -1  10 -31    7.32  187.19
   1 -10  31    6.03  155.89
   1 -10  31  -68.19   66.09
   0 -10  31    3.63   63.14
  -2  11 -31 -565.79  243.52
  -1  11 -31   19.32   68.83
  -1  11 -31  277.24  206.91
   1 -11  31   41.33  150.49
   1 -11  31    3.83   67.69
   1  -3  32  129.48  126.23
   0  -3  32   27.92  120.14
  -1  -3  32   -6.48  112.13
  -3   4 -32 -196.47  161.41
   3  -4  32   26.79   99.74
  -2   4 -32  771.02  174.99
   2  -4  32   42.76  107.43
  -1   4 -32 -325.41  148.12
   1  -4  32  191.26   97.18
   0  -4  32   73.16   94.82
  -4   4 -32  -33.25  152.16
   4  -4  32   96.76   92.68
  -4   5 -32    6.92  167.72
   4  -5  32   37.93   84.91
   4  -5  32  -83.61  145.21
  -3   5 -32 -204.99  165.95
   3  -5  32    5.74  137.16
   3  -5  32  -37.62   79.95
  -2   5 -32 -306.66  156.48
  -2   5 -32   50.45  161.60
   2  -5  32    5.50  125.88
   2  -5  32    4.60   86.19
  -1   5 -32 -377.44  170.08
  -1   5 -32  -26.91  141.72
   1  -5  32 -236.12  129.46
   1  -5  32   45.86   78.08
   0   5 -32  100.85  127.43
   0  -5  32 -200.25   98.82
  -5   4 -32  -20.92  169.11
   5  -4  32  -81.12  100.31
  -5   5 -32   -9.60  138.26
  -5   5 -32  -57.87  168.41
   5  -5  32  134.68   87.94
   5  -5  32  -37.26  150.26
  -5   6 -32 -135.83  190.91
  -5   6 -32    8.27  123.81
   5  -6  32    6.35  151.70
   5  -6  32   31.29   86.67
  -4   6 -32 -209.84  176.47
  -4   6 -32   -8.29  124.00
   4  -6  32    6.13  150.28
   4  -6  32  -13.18   83.62
  -3   6 -32 -173.48  175.58
  -3   6 -32    8.09  108.75
   3  -6  32    4.35   74.39
   3  -6  32   17.81  138.76
  -2   6 -32    7.65  117.11
  -2   6 -32    6.65  167.61
   2  -6  32   21.68   74.91
   2  -6  32   40.09  141.07
  -1   6 -32   19.04  155.67
  -1   6 -32    7.00  102.12
   1  -6  32  126.35  136.78
   1  -6  32   25.91   71.88
   0   6 -32   37.54   91.23
   0   6 -32 -421.26  159.48
   0  -6  32   36.57  127.34
   0  -6  32  -12.66   79.24
  -6   4 -32   14.62  177.45
   6  -4  32   16.40  100.23
  -6   5 -32    8.83  127.36
  -6   5 -32  189.30  182.28
   6  -5  32 -148.72  144.04
   6  -5  32    4.83   84.90
  -6   6 -32  -63.10  186.10
   6  -6  32  177.47  157.72
  -5   7 -32   15.85  196.67
   5  -7  32    6.47  158.46
  -4   7 -32   83.78  186.45
  -4   7 -32   22.19  112.65
   4  -7  32    6.30  147.47
   4  -7  32  109.46   76.05
  -3   7 -32    7.09  100.36
  -3   7 -32   -7.32  186.63
   3  -7  32  -24.59  149.13
   3  -7  32    4.16   65.81
  -2   7 -32   -6.67  102.30
  -2   7 -32   42.16  171.20
   2  -7  32    5.98  146.75
   2  -7  32    4.13   71.93
  -1   7 -32    6.70  170.45
  -1   7 -32   86.13   93.35
   1  -7  32    5.80  148.03
   1  -7  32 -131.17   76.49
   0   7 -32   11.18   80.00
   0   7 -32  -19.10  159.16
   0  -7  32  -88.93  134.18
   0  -7  32   52.54   75.81
  -7   4 -32 -199.50  193.94
   7  -4  32   -5.55   77.43
  -4   8 -32  -64.31  199.59
   4  -8  32   -6.42  153.66
  -3   8 -32    6.51   87.76
  -3   8 -32  201.07  194.60
   3  -8  32  -91.18   71.68
   3  -8  32  138.85  157.12
  -2   8 -32  -73.23   95.56
  -2   8 -32  230.18  192.48
   2  -8  32  -36.81   71.50
   2  -8  32   -6.21  152.71
  -1   8 -32  170.40  184.94
  -1   8 -32    5.66   78.42
   1  -8  32 -370.77  152.53
   1  -8  32    4.02   67.82
   0  -8  32  170.80  152.29
   0  -8  32   15.62   69.38
  -3   9 -32    6.21   87.68
  -3   9 -32  178.92  205.04
   3  -9  32   -6.42  160.11
  -2   9 -32    5.84   87.18
  -2   9 -32 -318.90  196.84
   2  -9  32  260.55  159.18
   2  -9  32 -203.40   72.04
  -1   9 -32 -110.91  183.87
  -1   9 -32 -103.13   81.29
   1  -9  32    6.28  152.23
   1  -9  32 -101.16   67.86
  -2  10 -32  -73.46  207.09
   2 -10  32  -12.93  157.84
  -1  10 -32  -38.33  196.46
  -1  10 -32  -26.27   73.66
   1 -10  32   12.81  159.31
   1 -10  32   63.77   70.59
  -3   4 -33  133.24  152.14
   3  -4  33   92.41  107.60
   2  -4  33   -6.14  108.74
   1  -4  33  321.79  127.91
   0  -4  33    5.93  103.44
  -4   4 -33 -132.98  158.40
   4  -4  33   24.62  105.26
  -4   5 -33  -29.18  177.56
  -4   5 -33   12.87  188.55
   4  -5  33   15.41   92.76
   4  -5  33   76.70  147.01
  -3   5 -33   13.24  202.52
  -3   5 -33   -6.96  165.49
   3  -5  33   66.34   90.72
   3  -5  33   -6.14  154.72
  -2   5 -33  -12.60  191.25
  -2   5 -33    6.65  163.38
   2  -5  33   -5.90  133.57
   2  -5  33   10.16   91.19
  -1   5 -33  -63.06  155.23
  -1   5 -33   11.10  147.89
   1  -5  33   16.96  126.56
   1  -5  33  -25.25   87.32
   0   5 -33   -9.22  124.44
   0   5 -33   35.60  142.14
   0  -5  33   69.77   85.14
  -5   4 -33  117.46  169.76
   5  -4  33  166.01  114.20
  -5   5 -33   11.80  172.77
  -5   5 -33 -259.52  186.57
   5  -5  33 -166.11  159.84
   5  -5  33    5.19   76.34
  -4   6 -33  -68.94  192.89
  -4   6 -33  -39.16  152.31
   4  -6  33   52.32  161.47
   4  -6  33 -175.27   90.39
  -3   6 -33  249.62  188.85
  -3   6 -33   57.41  139.24
   3  -6  33   44.27  152.78
   3  -6  33    4.70   82.98
  -2   6 -33  -17.94  131.63
  -2   6 -33   98.27  175.69
   2  -6  33   12.17  148.47
   2  -6  33  140.32   83.92
  -1   6 -33  113.58  162.83
  -1   6 -33    8.08  120.98
   1  -6  33  -93.25  135.69
   1  -6  33    4.65   82.51
   0  -6  33 -215.69  138.39
   0  -6  33  -67.85   82.65
  -6   4 -33  -53.93  173.52
  -4   7 -33  -48.17  197.07
   4  -7  33    6.69  158.96
  -3   7 -33   16.12  123.27
  -3   7 -33 -524.33  204.84
   3  -7  33   -4.43   82.99
   3  -7  33 -287.13  167.74
  -2   7 -33    7.53  110.45
  -2   7 -33  229.02  187.63
   2  -7  33   -4.40   75.67
   2  -7  33   95.28  160.43
  -1   7 -33   -7.05  180.66
  -1   7 -33    6.87   97.11
   1  -7  33 -113.33   75.71
   1  -7  33  -79.87  149.90
   0  -7  33    8.58   73.72
  -3   8 -33   73.47  205.68
   3  -8  33    6.69  166.06
  -2   8 -33    6.74  100.14
  -2   8 -33  258.16  195.45
   2  -8  33    6.57  160.71
   2  -8  33   38.86   78.19
  -1   8 -33  -82.03  189.65
  -1   8 -33    6.20   90.82
   1  -8  33 -199.47   79.16
   1  -8  33    6.42  151.75
  -1   9 -33 -193.81   92.23
  -1   9 -33 -233.58  215.20
   1  -9  33 -199.06  168.90
   3  -4  34   14.51  130.29
   2  -4  34   72.38  122.21
   1  -4  34 -113.79  130.47
   0  -4  34 -205.13  119.24
   4  -4  34   14.44  121.72
  -4   5 -34 -169.49  192.20
   4  -5  34  -69.11  171.94
  -3   5 -34  -18.44  264.59
  -3   5 -34 -264.51  177.91
   3  -5  34    5.72  101.79
   3  -5  34    6.66  150.74
  -2   5 -34  -48.88  166.76
  -2   5 -34   17.25  249.16
   2  -5  34    5.69   95.14
  -1   5 -34   14.46  200.20
  -1   5 -34  -46.20  159.69
   1  -5  34  -84.45   98.48
   0  -5  34  -22.04  102.27
  -3   6 -34   -7.74  189.22
   3  -6  34   -6.73  155.47
  -2   6 -34    7.38  180.30
  -2   6 -34  -10.82  159.32
   2  -6  34    5.08   85.39
   2  -6  34   71.35  156.42
  -1   6 -34  -98.11  166.13
  -1   6 -34    9.53  133.90
   1  -6  34  -40.33   89.49
   1  -6  34 -235.85  151.82
  -2   7 -34    8.64  124.11
  -2   7 -34 -124.90  193.90
   2  -7  34   40.54  170.80
  -1   7 -34   22.30  184.64
  -1   7 -34   -7.77  101.03
   1  -7  34    9.31   83.08
   1  -7  34   -6.52  157.27
  -1   8 -34    6.85   95.88
  -1   8 -34   -7.81  200.61
   1  -8  34  143.17  167.53
  -2   5 -35  -27.15  374.20
  -2   5 -35  102.66  172.75
  -1   5 -35  -61.59  314.58
   1  -5  35   44.65  116.32
  -1   6 -35   11.56  162.23
  -1   6 -35  -51.56  183.74
   1  -6  35 -180.42  164.75
  -1   7 -35    7.82  190.64
   0   0   0    0.00    0.00
;
_shelx_hkl_checksum              88888
_shelx_fab_checksum              56240
_shelx_fab_file
;
    0    2    0   -334.15      0.00
    1    3    0      2.37      0.00
    2    3    0    180.28      0.00
    0    4    0     26.44      0.00
    1    4    0     45.60      0.00
    2    4    0     39.39      0.00
    3    4    0     17.58      0.00
    1    5    0    -58.84      0.00
    2    5    0     -4.16      0.00
    3    5    0      1.08      0.00
    0    6    0     11.98      0.00
    1    6    0    -53.93      0.00
    2    6    0     50.03      0.00
    3    6    0     11.21      0.00
    4    6    0      6.74      0.00
    1    7    0     13.34      0.00
    2    7    0    -19.08      0.00
    3    7    0     38.99      0.00
    4    7    0     30.22      0.00
    0    8    0    -22.02      0.00
    1    8    0    -10.16      0.00
    2    8    0    -10.26      0.00
    3    8    0    -27.82      0.00
    4    8    0      4.74      0.00
    5    8    0    -11.78      0.00
    1    9    0     12.45      0.00
    2    9    0      4.60      0.00
    3    9    0    -12.44      0.00
    4    9    0     10.81      0.00
    5    9    0     19.76      0.00
    0   10    0      0.95      0.00
    1   10    0      2.26      0.00
    2   10    0      3.86      0.00
    3   10    0     -1.89      0.00
    4   10    0      5.92      0.00
    5   10    0      9.59      0.00
    6   10    0     16.41      0.00
    1   11    0      1.54      0.00
    2   11    0     -7.69      0.00
    3   11    0      4.23      0.00
    4   11    0    -19.06      0.00
    5   11    0     -2.85      0.00
    6   11    0      2.62      0.00
    0   12    0     11.73      0.00
    1   12    0     13.87      0.00
    2   12    0      3.48      0.00
    3   12    0     -5.20      0.00
    4   12    0      3.40      0.00
    5   12    0     -1.51      0.00
    6   12    0    -11.64      0.00
    1   13    0      8.15      0.00
    2   13    0      0.29      0.00
    3   13    0     -4.37      0.00
    4   13    0     -5.94      0.00
    5   13    0     13.27      0.00
    0   14    0     -9.64      0.00
    1   14    0     -9.77      0.00
    2   14    0     22.75      0.00
    3   14    0     -2.85      0.00
    4   14    0    -13.33      0.00
    5   14    0     -0.92      0.00
    6   14    0     -4.73      0.00
    7   14    0     -0.74      0.00
    1   15    0     -4.00      0.00
    2   15    0    -21.74      0.00
    3   15    0     11.86      0.00
    4   15    0      3.61      0.00
    5   15    0    -31.48      0.00
    6   15    0      7.86      0.00
    7   15    0     -8.00      0.00
    0   16    0     -7.25      0.00
    1   16    0    -22.23      0.00
    2   16    0     -3.80      0.00
    3   16    0      1.03      0.00
    4   16    0     11.40      0.00
    5   16    0      5.68      0.00
    6   16    0     26.17      0.00
    7   16    0      1.61      0.00
    1   17    0     -3.53      0.00
    2   17    0     17.66      0.00
    3   17    0     -9.78      0.00
    4   17    0      5.95      0.00
    5   17    0     18.05      0.00
    6   17    0     -0.06      0.00
    7   17    0     11.46      0.00
    0   18    0     10.58      0.00
    1   18    0      8.26      0.00
    2   18    0     -9.76      0.00
    3   18    0     -5.45      0.00
    4   18    0     -3.77      0.00
    5   18    0     -1.59      0.00
    6   18    0     -6.03      0.00
    7   18    0      2.87      0.00
    1   19    0    -15.02      0.00
    2   19    0     50.00      0.00
    3   19    0    -21.29      0.00
    4   19    0     -3.17      0.00
    5   19    0      4.64      0.00
    6   19    0     -0.40      0.00
    7   19    0    -11.61      0.00
    0   20    0      9.84      0.00
    1   20    0    -16.16      0.00
    2   20    0    -23.69      0.00
    3   20    0     14.14      0.00
    4   20    0      6.97      0.00
    5   20    0     -3.99      0.00
    6   20    0     14.28      0.00
    1    2    1     56.98      0.00
    0    3    1    -49.10      0.00
    1    3    1    140.32      0.00
    2    3    1     23.19      0.00
    1    4    1     11.14      0.00
    2    4    1     30.17      0.00
    3    4    1     30.73      0.00
    0    5    1     13.42      0.00
    1    5    1    -16.93      0.00
    2    5    1     28.42      0.00
    3    5    1    -13.38      0.00
    1    6    1     21.44      0.00
    2    6    1    -41.90      0.00
    3    6    1     12.09      0.00
    4    6    1     24.84      0.00
    0    7    1    -17.82      0.00
    1    7    1    -24.02      0.00
    2    7    1      7.69      0.00
    3    7    1     21.69      0.00
    4    7    1      9.32      0.00
    5    7    1    -15.12      0.00
    1    8    1     -7.69      0.00
    2    8    1     -8.43      0.00
    3    8    1      4.72      0.00
    4    8    1      5.16      0.00
    5    8    1     20.74      0.00
    0    9    1      3.47      0.00
    1    9    1      4.52      0.00
    2    9    1     -5.44      0.00
    3    9    1     -0.13      0.00
    4    9    1      7.30      0.00
    5    9    1     -5.97      0.00
    6    9    1      7.04      0.00
    1   10    1      9.16      0.00
    2   10    1     -1.85      0.00
    3   10    1     -6.96      0.00
    4   10    1      2.72      0.00
    5   10    1      0.00      0.00
    6   10    1      3.12      0.00
    0   11    1     13.30      0.00
    1   11    1      0.41      0.00
    2   11    1     -4.82      0.00
    3   11    1     -3.03      0.00
    4   11    1      3.74      0.00
    5   11    1      7.74      0.00
    6   11    1     -6.88      0.00
    1   12    1    -18.50      0.00
    2   12    1     -6.10      0.00
    3   12    1     -0.92      0.00
    4   12    1      0.42      0.00
    5   12    1      0.47      0.00
    6   12    1      4.01      0.00
    7   12    1     19.28      0.00
    0   13    1      1.55      0.00
    1   13    1      3.37      0.00
    2   13    1     15.37      0.00
    3   13    1      2.90      0.00
    4   13    1      1.00      0.00
    5   13    1     -3.01      0.00
    1   14    1      3.96      0.00
    2   14    1     11.50      0.00
    3   14    1     -2.28      0.00
    4   14    1     -0.56      0.00
    5   14    1      8.21      0.00
    6   14    1      4.67      0.00
    7   14    1    -11.35      0.00
    0   15    1     -1.10      0.00
    1   15    1     -4.15      0.00
    2   15    1     -2.07      0.00
    3   15    1      1.77      0.00
    4   15    1      9.41      0.00
    5   15    1      6.15      0.00
    6   15    1    -21.47      0.00
    7   15    1    -16.22      0.00
    1   16    1      4.14      0.00
    2   16    1     -0.42      0.00
    3   16    1      3.31      0.00
    4   16    1     -3.75      0.00
    5   16    1      2.35      0.00
    6   16    1    -41.49      0.00
    7   16    1     -4.94      0.00
    0   17    1     -8.34      0.00
    1   17    1     17.85      0.00
    2   17    1      4.33      0.00
    3   17    1     -4.84      0.00
    4   17    1      0.06      0.00
    5   17    1      5.89      0.00
    6   17    1     -3.09      0.00
    7   17    1     19.89      0.00
    1   18    1      0.51      0.00
    2   18    1    -18.63      0.00
    3   18    1    -13.42      0.00
    4   18    1      8.03      0.00
    5   18    1     10.85      0.00
    6   18    1      7.79      0.00
    7   18    1     -8.69      0.00
    0   19    1    -23.46      0.00
    1   19    1     -8.93      0.00
    2   19    1     51.00      0.00
    3   19    1     -7.57      0.00
    4   19    1     -6.39      0.00
    5   19    1     -5.29      0.00
    6   19    1     -3.40      0.00
    7   19    1     -5.12      0.00
    1   20    1      5.18      0.00
    2   20    1    -21.33      0.00
    3   20    1    -10.37      0.00
    4   20    1     -1.20      0.00
    5   20    1     -7.54      0.00
    6   20    1      1.76      0.00
    1    1    2   -560.42      0.00
    0    2    2     17.97      0.00
    1    2    2   -109.70      0.00
    2    2    2     37.46      0.00
    1    3    2     34.75      0.00
    2    3    2    -40.69      0.00
    3    3    2    -77.39      0.00
    0    4    2     -1.45      0.00
    1    4    2     45.71      0.00
    2    4    2    -27.70      0.00
    3    4    2    -31.04      0.00
    1    5    2      0.19      0.00
    2    5    2    -21.95      0.00
    3    5    2    -25.65      0.00
    0    6    2    -19.42      0.00
    1    6    2    -32.52      0.00
    2    6    2     26.51      0.00
    3    6    2      0.37      0.00
    4    6    2      1.54      0.00
    1    7    2    -23.77      0.00
    2    7    2      7.28      0.00
    3    7    2      1.10      0.00
    4    7    2      5.23      0.00
    5    7    2    -14.95      0.00
    0    8    2     -5.05      0.00
    1    8    2     -1.99      0.00
    2    8    2    -19.85      0.00
    3    8    2     -1.67      0.00
    4    8    2     -3.65      0.00
    5    8    2     -0.19      0.00
    1    9    2      7.34      0.00
    2    9    2     16.02      0.00
    3    9    2     -8.11      0.00
    4    9    2      0.57      0.00
    5    9    2     -1.72      0.00
    6    9    2     11.26      0.00
    0   10    2      6.69      0.00
    1   10    2      3.55      0.00
    2   10    2     -0.37      0.00
    3   10    2      4.13      0.00
    4   10    2      1.44      0.00
    5   10    2      1.24      0.00
    6   10    2     -0.53      0.00
    1   11    2      6.89      0.00
    2   11    2     -1.02      0.00
    3   11    2     -1.49      0.00
    4   11    2      1.24      0.00
    5   11    2     -0.47      0.00
    6   11    2    -31.64      0.00
    7   11    2     10.09      0.00
    0   12    2     -3.53      0.00
    1   12    2      6.15      0.00
    2   12    2     -1.09      0.00
    3   12    2      2.99      0.00
    4   12    2     -4.97      0.00
    5   12    2     16.21      0.00
    6   12    2     -4.34      0.00
    7   12    2     -5.87      0.00
    1   13    2     -0.58      0.00
    2   13    2      5.12      0.00
    3   13    2    -15.69      0.00
    4   13    2     -9.18      0.00
    5   13    2      7.69      0.00
    6   13    2     -1.39      0.00
    0   14    2     -5.70      0.00
    1   14    2      2.61      0.00
    2   14    2     13.03      0.00
    3   14    2     -9.90      0.00
    4   14    2     -6.86      0.00
    5   14    2     11.95      0.00
    6   14    2     12.84      0.00
    7   14    2      9.85      0.00
    1   15    2      0.88      0.00
    2   15    2     -2.69      0.00
    3   15    2     -4.59      0.00
    4   15    2      8.01      0.00
    5   15    2     -3.86      0.00
    6   15    2     -3.12      0.00
    7   15    2     14.59      0.00
    0   16    2     -8.29      0.00
    1   16    2     -6.63      0.00
    2   16    2     -0.41      0.00
    3   16    2     -0.85      0.00
    4   16    2    -11.18      0.00
    5   16    2      9.17      0.00
    6   16    2     18.11      0.00
    7   16    2      5.03      0.00
    1   17    2     11.58      0.00
    2   17    2     -3.21      0.00
    3   17    2    -14.99      0.00
    4   17    2      5.93      0.00
    5   17    2     13.89      0.00
    6   17    2    -10.50      0.00
    7   17    2     -3.94      0.00
    8   17    2      0.22      0.00
    0   18    2     14.74      0.00
    1   18    2      0.29      0.00
    2   18    2      6.12      0.00
    3   18    2    -12.09      0.00
    4   18    2     10.03      0.00
    5   18    2     -3.13      0.00
    6   18    2    -11.70      0.00
    7   18    2     14.54      0.00
    8   18    2      2.27      0.00
    1   19    2    -12.63      0.00
    2   19    2     35.78      0.00
    3   19    2      2.09      0.00
    4   19    2     -8.39      0.00
    5   19    2      7.36      0.00
    6   19    2      6.38      0.00
    7   19    2     -2.95      0.00
    0   20    2      9.50      0.00
    1   20    2      0.36      0.00
    2   20    2     11.75      0.00
    3   20    2     -0.13      0.00
    4   20    2      1.59      0.00
    5   20    2      1.11      0.00
    6   20    2     11.69      0.00
    7   20    2    -27.25      0.00
    1    2    3    -91.96      0.00
    0    3    3    116.23      0.00
    1    3    3    -86.34      0.00
    2    3    3    -24.20      0.00
    1    4    3    -14.23      0.00
    2    4    3    -36.99      0.00
    3    4    3    -24.44      0.00
    0    5    3    -14.28      0.00
    1    5    3      0.84      0.00
    2    5    3    -91.64      0.00
    3    5    3    -13.70      0.00
    4    5    3     45.07      0.00
    1    6    3      4.24      0.00
    2    6    3     14.55      0.00
    3    6    3      1.00      0.00
    4    6    3     -3.41      0.00
    5    6    3     -9.99      0.00
    0    7    3     16.49      0.00
    1    7    3     48.81      0.00
    2    7    3    -10.60      0.00
    3    7    3     -3.18      0.00
    4    7    3     -9.20      0.00
    5    7    3    -21.09      0.00
    1    8    3    -16.33      0.00
    2    8    3      6.46      0.00
    3    8    3    -17.53      0.00
    4    8    3      0.44      0.00
    5    8    3     -7.10      0.00
    6    8    3      9.25      0.00
    0    9    3     -3.52      0.00
    1    9    3      1.11      0.00
    2    9    3     -0.58      0.00
    3    9    3      1.63      0.00
    4    9    3     -5.77      0.00
    5    9    3      8.26      0.00
    6    9    3     -8.63      0.00
    1   10    3      5.50      0.00
    2   10    3      6.51      0.00
    3   10    3      1.78      0.00
    4   10    3      0.47      0.00
    5   10    3      5.39      0.00
    6   10    3      1.71      0.00
    7   10    3      6.19      0.00
    0   11    3    -13.89      0.00
    1   11    3      4.21      0.00
    2   11    3     -1.62      0.00
    3   11    3      3.93      0.00
    4   11    3    -12.49      0.00
    5   11    3     -9.38      0.00
    6   11    3    -14.65      0.00
    7   11    3      5.35      0.00
    1   12    3     -6.12      0.00
    2   12    3     -5.73      0.00
    3   12    3      1.62      0.00
    4   12    3     11.27      0.00
    5   12    3     -2.31      0.00
    6   12    3     10.79      0.00
    7   12    3      2.18      0.00
    0   13    3     13.53      0.00
    1   13    3      2.39      0.00
    2   13    3    -11.58      0.00
    3   13    3     -7.81      0.00
    4   13    3      7.41      0.00
    5   13    3     -4.62      0.00
    6   13    3     -6.71      0.00
    1   14    3    -17.16      0.00
    2   14    3    -11.06      0.00
    3   14    3     -2.31      0.00
    4   14    3      0.35      0.00
    5   14    3     -9.72      0.00
    6   14    3     23.00      0.00
    7   14    3      7.84      0.00
    8   14    3     -0.66      0.00
    0   15    3    -11.48      0.00
    1   15    3     -1.83      0.00
    2   15    3    -11.31      0.00
    3   15    3      0.21      0.00
    4   15    3      2.73      0.00
    5   15    3     -7.25      0.00
    6   15    3    -12.84      0.00
    7   15    3     22.72      0.00
    8   15    3    -19.35      0.00
    1   16    3      7.64      0.00
    2   16    3     15.36      0.00
    3   16    3      0.06      0.00
    4   16    3     -4.64      0.00
    5   16    3      4.59      0.00
    6   16    3      5.13      0.00
    7   16    3      1.01      0.00
    8   16    3    -29.95      0.00
    0   17    3     25.31      0.00
    1   17    3     13.60      0.00
    2   17    3     -8.02      0.00
    3   17    3      3.60      0.00
    4   17    3     -3.03      0.00
    5   17    3      3.92      0.00
    6   17    3     -0.11      0.00
    7   17    3      4.37      0.00
    8   17    3      5.45      0.00
    1   18    3      5.16      0.00
    2   18    3    -12.43      0.00
    3   18    3    -21.51      0.00
    4   18    3    -10.45      0.00
    5   18    3      6.04      0.00
    6   18    3     18.71      0.00
    7   18    3      1.21      0.00
    8   18    3      4.82      0.00
    0   19    3    -32.73      0.00
    1   19    3     34.67      0.00
    2   19    3     19.58      0.00
    3   19    3    -12.32      0.00
    4   19    3      4.35      0.00
    5   19    3     -6.03      0.00
    6   19    3     11.79      0.00
    7   19    3     -8.26      0.00
    1   20    3     -6.68      0.00
    2   20    3     17.51      0.00
    3   20    3     -0.79      0.00
    4   20    3     16.67      0.00
    5   20    3    -22.02      0.00
    6   20    3      1.35      0.00
    7   20    3     27.98      0.00
    1    1    4      6.28      0.00
    0    2    4     85.91      0.00
    1    2    4     -3.37      0.00
    2    2    4      2.63      0.00
    1    3    4     47.88      0.00
    2    3    4     10.51      0.00
    3    3    4    -37.92      0.00
    0    4    4    -72.30      0.00
    1    4    4    -33.87      0.00
    2    4    4     15.19      0.00
    3    4    4     19.63      0.00
    4    4    4      4.50      0.00
    1    5    4    -42.20      0.00
    2    5    4    -28.43      0.00
    3    5    4     24.40      0.00
    4    5    4     -3.65      0.00
    5    5    4      5.89      0.00
    0    6    4     29.34      0.00
    1    6    4     21.16      0.00
    2    6    4    -12.71      0.00
    3    6    4     12.60      0.00
    4    6    4     11.96      0.00
    5    6    4    -16.92      0.00
    1    7    4      2.73      0.00
    2    7    4      9.21      0.00
    3    7    4      7.61      0.00
    4    7    4     -2.61      0.00
    5    7    4     -2.37      0.00
    6    7    4      5.54      0.00
    0    8    4      2.73      0.00
    1    8    4     14.43      0.00
    2    8    4      6.02      0.00
    3    8    4      0.00      0.00
    4    8    4     -6.51      0.00
    5    8    4     -4.72      0.00
    6    8    4     -8.33      0.00
    1    9    4      9.82      0.00
    2    9    4     -9.75      0.00
    3    9    4      8.17      0.00
    4    9    4     -7.22      0.00
    5    9    4      2.25      0.00
    6    9    4     -0.94      0.00
    7    9    4    -13.60      0.00
    0   10    4     -2.16      0.00
    1   10    4    -20.85      0.00
    2   10    4      4.11      0.00
    3   10    4     -1.48      0.00
    4   10    4     -6.92      0.00
    5   10    4      8.22      0.00
    6   10    4      2.59      0.00
    7   10    4      8.60      0.00
    1   11    4     -5.74      0.00
    2   11    4      5.95      0.00
    3   11    4      1.35      0.00
    4   11    4     -6.09      0.00
    5   11    4     -0.86      0.00
    6   11    4      1.13      0.00
    7   11    4      1.21      0.00
    0   12    4     -6.94      0.00
    1   12    4     -6.55      0.00
    2   12    4      0.50      0.00
    3   12    4      2.95      0.00
    4   12    4     -0.05      0.00
    5   12    4      3.31      0.00
    6   12    4     -6.77      0.00
    7   12    4    -17.75      0.00
    1   13    4     -4.26      0.00
    2   13    4      4.64      0.00
    3   13    4     14.83      0.00
    4   13    4      2.69      0.00
    5   13    4      4.38      0.00
    6   13    4     -2.11      0.00
    0   14    4      0.55      0.00
    1   14    4      2.87      0.00
    2   14    4      0.02      0.00
    3   14    4     10.12      0.00
    4   14    4      9.14      0.00
    5   14    4      2.22      0.00
    6   14    4    -16.68      0.00
    7   14    4      4.79      0.00
    8   14    4    -22.69      0.00
    1   15    4      2.28      0.00
    2   15    4      8.34      0.00
    3   15    4    -13.79      0.00
    4   15    4      1.13      0.00
    5   15    4      2.52      0.00
    6   15    4     -8.74      0.00
    7   15    4      1.59      0.00
    8   15    4     16.38      0.00
    0   16    4    -14.28      0.00
    1   16    4     -4.62      0.00
    2   16    4      6.67      0.00
    3   16    4      6.21      0.00
    4   16    4     -7.81      0.00
    5   16    4      3.79      0.00
    6   16    4      7.47      0.00
    7   16    4     -2.98      0.00
    8   16    4      9.78      0.00
    1   17    4     -4.72      0.00
    2   17    4     -8.60      0.00
    3   17    4      6.24      0.00
    4   17    4      0.31      0.00
    5   17    4     -8.58      0.00
    6   17    4     -2.83      0.00
    7   17    4    -14.77      0.00
    0   18    4     -9.88      0.00
    1   18    4    -16.18      0.00
    2   18    4      1.34      0.00
    3   18    4     -4.92      0.00
    4   18    4      3.27      0.00
    5   18    4     -5.41      0.00
    6   18    4    -47.61      0.00
    7   18    4     -6.07      0.00
    1   19    4    -23.71      0.00
    2   19    4    -11.56      0.00
    3   19    4      0.31      0.00
    4   19    4     -5.11      0.00
    5   19    4      2.30      0.00
    6   19    4     18.85      0.00
    7   19    4      3.25      0.00
    0   20    4     -7.64      0.00
    1   20    4     -3.30      0.00
    2   20    4     -0.87      0.00
    3   20    4     -4.63      0.00
    4   20    4     10.12      0.00
    5   20    4     -9.22      0.00
    6   20    4      6.25      0.00
    0    1    5    -44.87      0.00
    1    2    5     79.87      0.00
    0    3    5     46.46      0.00
    1    3    5    -65.53      0.00
    2    3    5     59.63      0.00
    1    4    5     -0.88      0.00
    2    4    5     54.67      0.00
    3    4    5    -41.60      0.00
    0    5    5      1.22      0.00
    1    5    5      4.99      0.00
    2    5    5     31.03      0.00
    3    5    5     -0.38      0.00
    4    5    5     24.56      0.00
    1    6    5     25.44      0.00
    2    6    5      4.82      0.00
    3    6    5      5.44      0.00
    4    6    5      5.84      0.00
    5    6    5     24.91      0.00
    0    7    5     18.87      0.00
    1    7    5     23.40      0.00
    2    7    5     -3.09      0.00
    3    7    5     10.97      0.00
    4    7    5      9.36      0.00
    5    7    5     -4.84      0.00
    6    7    5     -0.99      0.00
    1    8    5     20.34      0.00
    2    8    5      9.48      0.00
    3    8    5     -3.53      0.00
    4    8    5    -26.38      0.00
    5    8    5      5.34      0.00
    6    8    5      8.02      0.00
    7    8    5     -3.27      0.00
    0    9    5    -11.38      0.00
    1    9    5    -15.27      0.00
    2    9    5      6.09      0.00
    3    9    5    -17.93      0.00
    4    9    5     -0.38      0.00
    5    9    5      2.30      0.00
    6    9    5      2.44      0.00
    7    9    5     14.87      0.00
    1   10    5     -6.34      0.00
    2   10    5     -4.81      0.00
    3   10    5      9.86      0.00
    4   10    5      0.03      0.00
    5   10    5     13.73      0.00
    6   10    5      5.84      0.00
    7   10    5      7.56      0.00
    0   11    5    -11.73      0.00
    1   11    5     -0.67      0.00
    2   11    5     17.33      0.00
    3   11    5      7.41      0.00
    4   11    5     -9.47      0.00
    5   11    5     -5.68      0.00
    6   11    5     -7.85      0.00
    7   11    5      4.50      0.00
    8   11    5     -7.85      0.00
    1   12    5      9.44      0.00
    2   12    5     -2.43      0.00
    3   12    5      0.57      0.00
    4   12    5      3.63      0.00
    5   12    5     -2.21      0.00
    6   12    5      2.12      0.00
    7   12    5     22.81      0.00
    8   12    5     10.00      0.00
    0   13    5      3.17      0.00
    1   13    5     -2.87      0.00
    2   13    5     -8.99      0.00
    3   13    5     -9.74      0.00
    4   13    5     -2.67      0.00
    5   13    5    -11.75      0.00
    6   13    5      6.53      0.00
    7   13    5    -22.71      0.00
    1   14    5     18.56      0.00
    2   14    5     -2.44      0.00
    3   14    5      3.90      0.00
    4   14    5     -7.59      0.00
    5   14    5      9.72      0.00
    6   14    5     -3.04      0.00
    7   14    5     15.41      0.00
    8   14    5     17.22      0.00
    0   15    5     -0.50      0.00
    1   15    5      8.48      0.00
    2   15    5      5.67      0.00
    3   15    5     -2.48      0.00
    4   15    5      2.13      0.00
    5   15    5     -1.98      0.00
    6   15    5      2.93      0.00
    7   15    5      6.43      0.00
    1   16    5      0.94      0.00
    2   16    5      2.71      0.00
    3   16    5     -7.47      0.00
    4   16    5     -4.68      0.00
    5   16    5      9.27      0.00
    6   16    5      4.25      0.00
    7   16    5     -7.21      0.00
    0   17    5     -8.12      0.00
    1   17    5     -3.48      0.00
    2   17    5      7.40      0.00
    3   17    5      2.00      0.00
    4   17    5      3.08      0.00
    5   17    5      0.17      0.00
    6   17    5      5.40      0.00
    1   18    5      7.71      0.00
    2   18    5    -11.17      0.00
    3   18    5      4.32      0.00
    4   18    5     10.63      0.00
    5   18    5    -15.04      0.00
    6   18    5     -5.38      0.00
    0   19    5     10.51      0.00
    1   19    5      0.36      0.00
    2   19    5     -4.50      0.00
    3   19    5     -7.56      0.00
    4   19    5      4.83      0.00
    5   19    5     -0.33      0.00
    6   19    5      2.06      0.00
    1   20    5      2.06      0.00
    2   20    5     -3.22      0.00
    3   20    5     -0.19      0.00
    4   20    5      2.87      0.00
    5   20    5      4.69      0.00
    0    0    6    -44.89      0.00
    1    1    6     13.86      0.00
    0    2    6    -49.82      0.00
    1    2    6    -36.11      0.00
    2    2    6    -19.02      0.00
    1    3    6     59.37      0.00
    2    3    6    -39.11      0.00
    3    3    6     46.10      0.00
    0    4    6     70.55      0.00
    1    4    6    -48.65      0.00
    2    4    6     -7.00      0.00
    3    4    6     29.05      0.00
    4    4    6     37.78      0.00
    1    5    6    -14.83      0.00
    2    5    6    -21.23      0.00
    3    5    6     -8.48      0.00
    4    5    6     -5.36      0.00
    5    5    6     12.23      0.00
    0    6    6     31.04      0.00
    1    6    6     12.93      0.00
    2    6    6     -1.96      0.00
    3    6    6     11.59      0.00
    4    6    6      1.39      0.00
    5    6    6    -20.10      0.00
    6    6    6      8.72      0.00
    1    7    6      2.31      0.00
    2    7    6      2.63      0.00
    3    7    6      4.77      0.00
    4    7    6     -0.96      0.00
    5    7    6    -10.36      0.00
    6    7    6     -3.16      0.00
    7    7    6      0.70      0.00
    0    8    6     -0.29      0.00
    1    8    6      5.18      0.00
    2    8    6     -9.28      0.00
    3    8    6      1.97      0.00
    4    8    6    -21.01      0.00
    5    8    6     -0.88      0.00
    6    8    6     -1.74      0.00
    7    8    6     -1.84      0.00
    1    9    6      3.00      0.00
    2    9    6     -6.47      0.00
    3    9    6      9.53      0.00
    4    9    6     -4.25      0.00
    5    9    6     -2.20      0.00
    6    9    6     10.34      0.00
    7    9    6     -0.21      0.00
    0   10    6     -7.23      0.00
    1   10    6     -7.57      0.00
    2   10    6      3.78      0.00
    3   10    6      5.40      0.00
    4   10    6      0.29      0.00
    5   10    6     -4.84      0.00
    6   10    6      4.51      0.00
    7   10    6     -2.26      0.00
    8   10    6     -3.23      0.00
    1   11    6     -1.85      0.00
    2   11    6      1.87      0.00
    3   11    6      9.03      0.00
    4   11    6     -6.26      0.00
    5   11    6      5.65      0.00
    6   11    6     -7.44      0.00
    7   11    6     -7.91      0.00
    8   11    6     25.17      0.00
    0   12    6      4.59      0.00
    1   12    6     -7.28      0.00
    2   12    6     -6.13      0.00
    3   12    6      1.30      0.00
    4   12    6      4.05      0.00
    5   12    6     -1.12      0.00
    6   12    6     -0.06      0.00
    7   12    6     -2.03      0.00
    1   13    6      5.24      0.00
    2   13    6      7.21      0.00
    3   13    6      0.90      0.00
    4   13    6     15.02      0.00
    5   13    6      2.39      0.00
    6   13    6      7.62      0.00
    7   13    6     22.28      0.00
    0   14    6      7.00      0.00
    1   14    6     -5.93      0.00
    2   14    6    -14.36      0.00
    3   14    6     -1.16      0.00
    4   14    6     -0.28      0.00
    5   14    6     -3.16      0.00
    6   14    6      3.97      0.00
    1   15    6     -2.33      0.00
    2   15    6     -1.52      0.00
    3   15    6      9.88      0.00
    4   15    6     -8.34      0.00
    5   15    6      2.31      0.00
    6   15    6     -0.80      0.00
    0   16    6      1.41      0.00
    1   16    6      7.53      0.00
    2   16    6      7.40      0.00
    3   16    6     12.13      0.00
    4   16    6      8.87      0.00
    5   16    6    -17.91      0.00
    6   16    6     -1.57      0.00
    1   17    6      2.78      0.00
    2   17    6     -0.30      0.00
    3   17    6      5.31      0.00
    4   17    6     -4.34      0.00
    5   17    6      3.31      0.00
    6   17    6     24.03      0.00
    0   18    6     -6.87      0.00
    1   18    6      0.68      0.00
    2   18    6     -6.35      0.00
    3   18    6     14.67      0.00
    4   18    6     10.97      0.00
    5   18    6     -2.43      0.00
    6   18    6      6.52      0.00
    1   19    6      4.39      0.00
    2   19    6      9.87      0.00
    3   19    6     -9.16      0.00
    4   19    6     17.35      0.00
    5   19    6     15.84      0.00
    6   19    6     -0.29      0.00
    0   20    6     10.09      0.00
    1   20    6     -1.11      0.00
    2   20    6     -0.97      0.00
    3   20    6      9.06      0.00
    4   20    6      7.34      0.00
    2   21    6     11.42      0.00
    3   21    6     10.52      0.00
    0    1    7    -21.43      0.00
    1    2    7    -26.12      0.00
    0    3    7     22.69      0.00
    1    3    7    -40.85      0.00
    2    3    7    -61.39      0.00
    1    4    7      4.14      0.00
    2    4    7     16.88      0.00
    3    4    7    -16.00      0.00
    0    5    7    -68.96      0.00
    1    5    7      8.69      0.00
    2    5    7      8.30      0.00
    3    5    7    -17.76      0.00
    4    5    7      8.93      0.00
    1    6    7     -4.37      0.00
    2    6    7      8.97      0.00
    3    6    7     -7.85      0.00
    4    6    7     -1.06      0.00
    5    6    7     -5.19      0.00
    0    7    7     15.45      0.00
    1    7    7     15.37      0.00
    2    7    7    -12.23      0.00
    3    7    7     11.59      0.00
    4    7    7     -3.66      0.00
    5    7    7      4.43      0.00
    6    7    7    -12.70      0.00
    1    8    7      0.87      0.00
    2    8    7     -1.68      0.00
    3    8    7    -11.32      0.00
    4    8    7     -0.46      0.00
    5    8    7     -1.63      0.00
    6    8    7      0.42      0.00
    7    8    7     -2.38      0.00
    0    9    7    -26.60      0.00
    1    9    7     -6.51      0.00
    2    9    7      3.78      0.00
    3    9    7     -1.68      0.00
    4    9    7      0.19      0.00
    5    9    7      0.71      0.00
    6    9    7     -3.07      0.00
    7    9    7      7.18      0.00
    8    9    7     -9.59      0.00
    1   10    7    -11.33      0.00
    2   10    7      2.73      0.00
    3   10    7     14.50      0.00
    4   10    7     -2.65      0.00
    5   10    7      7.00      0.00
    6   10    7      0.35      0.00
    7   10    7     -1.44      0.00
    8   10    7     20.79      0.00
    0   11    7      6.24      0.00
    1   11    7     -2.98      0.00
    2   11    7      6.53      0.00
    3   11    7      6.38      0.00
    4   11    7     -2.26      0.00
    5   11    7      4.54      0.00
    6   11    7     -5.48      0.00
    7   11    7     -3.85      0.00
    8   11    7     -2.53      0.00
    1   12    7     -0.95      0.00
    2   12    7    -13.54      0.00
    3   12    7     -8.19      0.00
    4   12    7      1.20      0.00
    5   12    7      8.10      0.00
    6   12    7     -4.87      0.00
    7   12    7    -11.73      0.00
    8   12    7      4.99      0.00
    0   13    7    -13.99      0.00
    1   13    7     -7.58      0.00
    2   13    7      0.29      0.00
    3   13    7      8.88      0.00
    4   13    7     -0.42      0.00
    5   13    7     -7.18      0.00
    6   13    7     17.16      0.00
    7   13    7      0.22      0.00
    1   14    7     23.09      0.00
    2   14    7      6.87      0.00
    3   14    7     -1.47      0.00
    4   14    7     -4.32      0.00
    5   14    7     -0.94      0.00
    6   14    7      4.98      0.00
    7   14    7     -8.26      0.00
    0   15    7     -3.33      0.00
    1   15    7     -0.66      0.00
    2   15    7    -23.97      0.00
    3   15    7     13.33      0.00
    4   15    7     -2.92      0.00
    5   15    7     12.70      0.00
    6   15    7    -15.53      0.00
    7   15    7     -4.47      0.00
    1   16    7      6.03      0.00
    2   16    7     -3.32      0.00
    3   16    7     -5.41      0.00
    4   16    7     -1.18      0.00
    5   16    7     12.03      0.00
    6   16    7     -5.40      0.00
    7   16    7     -3.58      0.00
    0   17    7      8.63      0.00
    1   17    7      6.72      0.00
    2   17    7      1.32      0.00
    3   17    7     -2.19      0.00
    4   17    7     -6.34      0.00
    5   17    7    -15.03      0.00
    6   17    7      7.13      0.00
    7   17    7     -2.05      0.00
    1   18    7      0.08      0.00
    2   18    7     -9.81      0.00
    3   18    7      1.57      0.00
    4   18    7     -1.26      0.00
    5   18    7    -40.89      0.00
    6   18    7     17.40      0.00
    0   19    7     -3.65      0.00
    1   19    7     -9.99      0.00
    2   19    7     -0.67      0.00
    3   19    7      7.99      0.00
    4   19    7     10.90      0.00
    5   19    7     -1.85      0.00
    6   19    7     -1.85      0.00
    1   20    7      1.22      0.00
    2   20    7      7.62      0.00
    3   20    7      5.91      0.00
    2   21    7      3.65      0.00
    0    0    8    -73.68      0.00
    1    1    8    -23.79      0.00
    0    2    8     19.99      0.00
    1    2    8     40.12      0.00
    2    2    8      6.66      0.00
    1    3    8    -20.84      0.00
    2    3    8    -22.34      0.00
    3    3    8    -69.11      0.00
    0    4    8   -112.25      0.00
    1    4    8      2.53      0.00
    2    4    8     -5.88      0.00
    3    4    8      2.51      0.00
    4    4    8    -19.76      0.00
    1    5    8    -15.61      0.00
    2    5    8     23.52      0.00
    3    5    8      2.03      0.00
    4    5    8     -3.23      0.00
    5    5    8      8.25      0.00
    0    6    8      4.32      0.00
    1    6    8     -4.57      0.00
    2    6    8     16.71      0.00
    3    6    8     -2.68      0.00
    4    6    8    -14.51      0.00
    5    6    8    -10.13      0.00
    6    6    8    -10.37      0.00
    1    7    8     -4.09      0.00
    2    7    8    -11.51      0.00
    3    7    8     -6.95      0.00
    4    7    8      1.10      0.00
    5    7    8      2.89      0.00
    6    7    8      2.97      0.00
    7    7    8     -5.30      0.00
    0    8    8      6.55      0.00
    1    8    8    -12.30      0.00
    2    8    8     -0.84      0.00
    3    8    8     -0.15      0.00
    4    8    8      6.67      0.00
    5    8    8      6.15      0.00
    6    8    8     -0.76      0.00
    7    8    8      6.90      0.00
    8    8    8      8.18      0.00
    1    9    8      7.58      0.00
    2    9    8     -1.13      0.00
    3    9    8     -3.25      0.00
    4    9    8      1.37      0.00
    5    9    8     10.13      0.00
    6    9    8     -5.49      0.00
    7    9    8    -13.07      0.00
    8    9    8     -2.95      0.00
    0   10    8    -12.26      0.00
    1   10    8      9.06      0.00
    2   10    8     -5.37      0.00
    3   10    8     -2.85      0.00
    4   10    8    -16.57      0.00
    5   10    8      6.94      0.00
    6   10    8      1.96      0.00
    7   10    8     -2.61      0.00
    8   10    8     -8.44      0.00
    1   11    8      4.11      0.00
    2   11    8     10.28      0.00
    3   11    8     -4.30      0.00
    4   11    8     -3.78      0.00
    5   11    8     -0.65      0.00
    6   11    8      2.26      0.00
    7   11    8     -3.21      0.00
    8   11    8     -8.25      0.00
    9   11    8     25.15      0.00
    0   12    8     -6.96      0.00
    1   12    8      7.51      0.00
    2   12    8     -0.66      0.00
    3   12    8     -2.73      0.00
    4   12    8    -11.62      0.00
    5   12    8     -2.05      0.00
    6   12    8      5.97      0.00
    7   12    8      2.94      0.00
    8   12    8      8.61      0.00
    1   13    8     -1.54      0.00
    2   13    8      4.53      0.00
    3   13    8     -7.00      0.00
    4   13    8     -5.84      0.00
    5   13    8    -17.49      0.00
    6   13    8      2.71      0.00
    7   13    8     10.29      0.00
    0   14    8    -12.55      0.00
    1   14    8    -30.54      0.00
    2   14    8     12.65      0.00
    3   14    8     -6.97      0.00
    4   14    8     -7.62      0.00
    5   14    8      6.09      0.00
    6   14    8     -8.62      0.00
    7   14    8      5.10      0.00
    1   15    8      2.40      0.00
    2   15    8      5.79      0.00
    3   15    8     13.38      0.00
    4   15    8    -17.11      0.00
    5   15    8      0.92      0.00
    6   15    8      5.52      0.00
    7   15    8    -21.54      0.00
    0   16    8     -5.77      0.00
    1   16    8      9.46      0.00
    2   16    8    -10.10      0.00
    3   16    8     -2.11      0.00
    4   16    8     -9.77      0.00
    5   16    8     -2.43      0.00
    6   16    8      3.65      0.00
    7   16    8    -31.60      0.00
    1   17    8      3.70      0.00
    2   17    8     -7.89      0.00
    3   17    8     -7.38      0.00
    4   17    8     -6.31      0.00
    5   17    8      6.44      0.00
    6   17    8     -0.45      0.00
    7   17    8      5.70      0.00
    0   18    8      3.12      0.00
    1   18    8     -8.83      0.00
    2   18    8      3.19      0.00
    3   18    8     -6.93      0.00
    4   18    8      9.04      0.00
    5   18    8     -6.25      0.00
    6   18    8     11.67      0.00
    7   18    8     -2.12      0.00
    1   19    8     -0.68      0.00
    2   19    8    -11.28      0.00
    3   19    8      0.24      0.00
    4   19    8     -3.78      0.00
    5   19    8     12.25      0.00
    6   19    8     -3.33      0.00
    0   20    8      6.23      0.00
    1   20    8     13.25      0.00
    2   20    8     -5.56      0.00
    0    1    9     -8.93      0.00
    1    2    9     -6.30      0.00
    0    3    9      6.99      0.00
    1    3    9    -15.61      0.00
    2    3    9      2.27      0.00
    1    4    9     27.74      0.00
    2    4    9     20.08      0.00
    3    4    9     17.74      0.00
    0    5    9    -40.30      0.00
    1    5    9     -5.02      0.00
    2    5    9      3.92      0.00
    3    5    9     11.62      0.00
    4    5    9     -8.87      0.00
    1    6    9     11.74      0.00
    2    6    9     -5.78      0.00
    3    6    9     -5.08      0.00
    4    6    9     -9.63      0.00
    5    6    9     -8.27      0.00
    0    7    9     12.50      0.00
    1    7    9    -11.41      0.00
    2    7    9      0.96      0.00
    3    7    9     -4.51      0.00
    4    7    9     -3.29      0.00
    5    7    9      1.64      0.00
    6    7    9      4.74      0.00
    1    8    9     -9.20      0.00
    2    8    9    -11.01      0.00
    3    8    9      2.15      0.00
    4    8    9      3.12      0.00
    5    8    9      6.63      0.00
    6    8    9      5.52      0.00
    7    8    9      0.48      0.00
    0    9    9      8.57      0.00
    1    9    9     -1.69      0.00
    2    9    9     -2.55      0.00
    3    9    9     13.69      0.00
    4    9    9      3.43      0.00
    5    9    9      0.22      0.00
    6    9    9     15.11      0.00
    7    9    9     -7.64      0.00
    8    9    9    -19.38      0.00
    1   10    9     -0.19      0.00
    2   10    9     -3.56      0.00
    3   10    9     -6.81      0.00
    4   10    9    -10.01      0.00
    5   10    9     -0.34      0.00
    6   10    9      6.96      0.00
    7   10    9      2.64      0.00
    8   10    9     10.13      0.00
    9   10    9      8.35      0.00
    0   11    9      4.01      0.00
    1   11    9      2.29      0.00
    2   11    9      2.70      0.00
    3   11    9      2.98      0.00
    4   11    9      7.50      0.00
    5   11    9      3.83      0.00
    6   11    9      3.41      0.00
    7   11    9      3.00      0.00
    8   11    9    -18.24      0.00
    1   12    9     -3.30      0.00
    2   12    9      8.66      0.00
    3   12    9     -0.39      0.00
    4   12    9     11.19      0.00
    5   12    9    -16.11      0.00
    6   12    9     -4.94      0.00
    7   12    9    -24.35      0.00
    9   12    9    -67.13      0.00
    0   13    9     -9.27      0.00
    1   13    9      8.54      0.00
    2   13    9     -3.23      0.00
    3   13    9      2.69      0.00
    4   13    9     -2.10      0.00
    5   13    9     16.73      0.00
    6   13    9      1.22      0.00
    7   13    9     -0.98      0.00
    1   14    9      8.15      0.00
    2   14    9    -12.06      0.00
    3   14    9      0.23      0.00
    4   14    9     15.51      0.00
    5   14    9     -1.06      0.00
    6   14    9     -7.22      0.00
    7   14    9     -6.00      0.00
    0   15    9    -11.63      0.00
    1   15    9     10.89      0.00
    2   15    9    -23.29      0.00
    3   15    9     -3.93      0.00
    4   15    9     12.42      0.00
    5   15    9     11.48      0.00
    6   15    9      3.56      0.00
    7   15    9      6.87      0.00
    1   16    9     -0.32      0.00
    2   16    9     -6.73      0.00
    3   16    9     15.44      0.00
    4   16    9     -0.08      0.00
    5   16    9     -8.02      0.00
    6   16    9      3.45      0.00
    7   16    9     -6.83      0.00
    0   17    9    -23.17      0.00
    1   17    9      4.55      0.00
    2   17    9      3.40      0.00
    3   17    9      4.69      0.00
    4   17    9     -8.14      0.00
    5   17    9     -5.18      0.00
    6   17    9      0.92      0.00
    7   17    9     33.78      0.00
    1   18    9     -0.94      0.00
    2   18    9     -2.11      0.00
    3   18    9     -0.12      0.00
    4   18    9     26.80      0.00
    5   18    9    -31.42      0.00
    6   18    9      0.86      0.00
    7   18    9      1.39      0.00
    0   19    9      0.71      0.00
    1   19    9     -4.69      0.00
    2   19    9     -3.21      0.00
    3   19    9      9.02      0.00
    4   19    9    -10.54      0.00
    5   19    9     -1.29      0.00
    6   19    9    -15.07      0.00
    1   20    9     -5.38      0.00
    2   20    9     -4.79      0.00
    0    0   10     65.97      0.00
    1    1   10    -15.47      0.00
    0    2   10    102.86      0.00
    1    2   10      0.28      0.00
    2    2   10    -17.28      0.00
    1    3   10      4.85      0.00
    2    3   10     -6.79      0.00
    3    3   10     -8.19      0.00
    0    4   10     10.59      0.00
    1    4   10      4.39      0.00
    2    4   10     32.79      0.00
    3    4   10      7.32      0.00
    4    4   10     12.12      0.00
    1    5   10     13.09      0.00
    2    5   10      8.56      0.00
    3    5   10     13.05      0.00
    4    5   10      8.05      0.00
    5    5   10     13.01      0.00
    0    6   10     10.76      0.00
    1    6   10     -7.73      0.00
    2    6   10      0.49      0.00
    3    6   10    -14.33      0.00
    4    6   10      1.09      0.00
    5    6   10      1.47      0.00
    6    6   10     -4.29      0.00
    1    7   10      0.08      0.00
    2    7   10     -1.70      0.00
    3    7   10     -6.68      0.00
    4    7   10      2.05      0.00
    5    7   10     10.01      0.00
    6    7   10     -4.64      0.00
    7    7   10      6.19      0.00
    0    8   10      0.99      0.00
    1    8   10     -0.66      0.00
    2    8   10     -3.31      0.00
    3    8   10      7.93      0.00
    4    8   10      1.56      0.00
    5    8   10      1.77      0.00
    6    8   10     -3.44      0.00
    7    8   10      1.66      0.00
    8    8   10     41.91      0.00
    1    9   10      0.13      0.00
    2    9   10      7.53      0.00
    3    9   10      1.46      0.00
    4    9   10     -6.53      0.00
    5    9   10      0.19      0.00
    6    9   10     -1.13      0.00
    7    9   10     -3.78      0.00
    8    9   10      0.64      0.00
    9    9   10     12.75      0.00
    0   10   10     -0.47      0.00
    1   10   10      4.18      0.00
    2   10   10     -1.36      0.00
    3   10   10     -2.43      0.00
    4   10   10      4.78      0.00
    5   10   10     -4.12      0.00
    6   10   10     -9.32      0.00
    7   10   10      1.38      0.00
    8   10   10     -7.84      0.00
    1   11   10      0.32      0.00
    2   11   10      1.37      0.00
    3   11   10      4.82      0.00
    4   11   10     -1.57      0.00
    5   11   10     -2.09      0.00
    6   11   10    -10.80      0.00
    7   11   10      0.21      0.00
    8   11   10     14.91      0.00
    0   12   10      9.59      0.00
    1   12   10     -0.65      0.00
    2   12   10      3.68      0.00
    3   12   10     12.20      0.00
    4   12   10      2.62      0.00
    5   12   10      9.96      0.00
    6   12   10      4.21      0.00
    7   12   10     -0.21      0.00
    8   12   10      4.62      0.00
    9   12   10     -0.90      0.00
    1   13   10      1.12      0.00
    2   13   10     12.94      0.00
    3   13   10     -5.04      0.00
    4   13   10    -36.91      0.00
    5   13   10      8.64      0.00
    6   13   10     -2.51      0.00
    7   13   10     -5.54      0.00
    8   13   10     -1.25      0.00
    9   13   10      6.55      0.00
   10   13   10     -9.92      0.00
    0   14   10     11.56      0.00
    1   14   10    -13.42      0.00
    2   14   10     -1.98      0.00
    3   14   10      0.70      0.00
    4   14   10      9.33      0.00
    5   14   10      6.70      0.00
    6   14   10     -1.54      0.00
    7   14   10      5.38      0.00
    8   14   10     -3.99      0.00
    1   15   10      2.65      0.00
    2   15   10      3.75      0.00
    3   15   10      8.87      0.00
    4   15   10      6.70      0.00
    5   15   10     -4.30      0.00
    6   15   10     13.12      0.00
    7   15   10     -3.26      0.00
    8   15   10      9.22      0.00
    0   16   10     -0.91      0.00
    1   16   10     13.50      0.00
    2   16   10     14.85      0.00
    3   16   10      2.14      0.00
    4   16   10     -6.90      0.00
    5   16   10      4.47      0.00
    6   16   10     -2.25      0.00
    7   16   10      1.66      0.00
    1   17   10     -2.77      0.00
    2   17   10     -1.76      0.00
    3   17   10     -1.77      0.00
    4   17   10    -13.65      0.00
    5   17   10     10.72      0.00
    6   17   10     -3.52      0.00
    7   17   10      3.73      0.00
    0   18   10    -14.54      0.00
    1   18   10     -6.61      0.00
    2   18   10    -10.00      0.00
    3   18   10     31.32      0.00
    4   18   10      5.61      0.00
    5   18   10      3.51      0.00
    6   18   10     -3.08      0.00
    7   18   10     -4.43      0.00
    1   19   10      2.43      0.00
    2   19   10     -0.69      0.00
    3   19   10     -0.27      0.00
    4   19   10     14.95      0.00
    5   19   10     -0.86      0.00
    6   19   10     -0.47      0.00
    1   20   10     -1.43      0.00
    1    2   11     34.51      0.00
    0    3   11    -24.12      0.00
    1    3   11     -0.50      0.00
    2    3   11     -2.85      0.00
    1    4   11      4.15      0.00
    2    4   11     -3.83      0.00
    3    4   11      7.89      0.00
    0    5   11     -5.87      0.00
    1    5   11      0.70      0.00
    2    5   11     28.29      0.00
    3    5   11     10.18      0.00
    4    5   11     -6.53      0.00
    1    6   11      6.03      0.00
    2    6   11     -3.15      0.00
    3    6   11     -3.46      0.00
    4    6   11     -3.53      0.00
    5    6   11     -6.94      0.00
    0    7   11    -12.08      0.00
    1    7   11     -1.18      0.00
    2    7   11     -4.42      0.00
    3    7   11     -6.69      0.00
    4    7   11      3.64      0.00
    5    7   11     -7.13      0.00
    6    7   11      1.89      0.00
    1    8   11      0.40      0.00
    2    8   11      2.88      0.00
    3    8   11     -1.99      0.00
    4    8   11      9.36      0.00
    5    8   11     14.01      0.00
    6    8   11     -8.95      0.00
    7    8   11      5.96      0.00
    0    9   11      8.39      0.00
    1    9   11      1.62      0.00
    2    9   11      4.07      0.00
    3    9   11      3.80      0.00
    4    9   11      2.66      0.00
    5    9   11      3.52      0.00
    6    9   11     -5.55      0.00
    7    9   11     -0.73      0.00
    8    9   11     11.50      0.00
    1   10   11     -2.29      0.00
    2   10   11    -15.00      0.00
    3   10   11     -7.34      0.00
    4   10   11     -3.99      0.00
    5   10   11      1.61      0.00
    6   10   11     -5.78      0.00
    7   10   11     -0.63      0.00
    8   10   11    -20.59      0.00
    9   10   11     -0.12      0.00
    0   11   11     -3.75      0.00
    1   11   11      0.41      0.00
    2   11   11      2.56      0.00
    3   11   11      2.00      0.00
    4   11   11     10.44      0.00
    5   11   11     -4.30      0.00
    6   11   11      5.53      0.00
    7   11   11     -4.40      0.00
    8   11   11     11.01      0.00
    9   11   11     -3.62      0.00
   10   11   11      0.02      0.00
    1   12   11      9.31      0.00
    2   12   11      8.55      0.00
    3   12   11      0.87      0.00
    4   12   11     -2.53      0.00
    5   12   11     -3.68      0.00
    6   12   11    -23.94      0.00
    7   12   11      9.95      0.00
    8   12   11     52.11      0.00
    9   12   11     -1.38      0.00
   10   12   11     -8.45      0.00
    0   13   11      0.73      0.00
    1   13   11      4.82      0.00
    2   13   11      5.92      0.00
    3   13   11    -44.47      0.00
    4   13   11      4.97      0.00
    5   13   11      3.18      0.00
    6   13   11     19.54      0.00
    7   13   11    -12.69      0.00
    8   13   11      6.77      0.00
    9   13   11    -35.61      0.00
   10   13   11    -13.37      0.00
    1   14   11     -0.99      0.00
    2   14   11      0.93      0.00
    3   14   11      4.80      0.00
    4   14   11      5.35      0.00
    5   14   11    -13.27      0.00
    6   14   11    -17.64      0.00
    7   14   11      6.12      0.00
    8   14   11    -26.11      0.00
    0   15   11    -10.68      0.00
    1   15   11      1.49      0.00
    2   15   11      8.14      0.00
    3   15   11     -1.71      0.00
    4   15   11    -12.49      0.00
    5   15   11     -1.15      0.00
    6   15   11     13.34      0.00
    7   15   11      3.33      0.00
    8   15   11    -10.22      0.00
    1   16   11     -5.92      0.00
    2   16   11      1.46      0.00
    3   16   11      3.05      0.00
    4   16   11      2.06      0.00
    5   16   11      4.28      0.00
    6   16   11    -20.14      0.00
    7   16   11     -4.33      0.00
    8   16   11     -0.96      0.00
    0   17   11     -4.62      0.00
    1   17   11    -13.57      0.00
    2   17   11      8.04      0.00
    3   17   11      7.93      0.00
    4   17   11      0.20      0.00
    5   17   11      2.70      0.00
    6   17   11     30.78      0.00
    7   17   11      1.05      0.00
    8   17   11    -20.45      0.00
    1   18   11     48.22      0.00
    2   18   11     -7.83      0.00
    3   18   11     -1.76      0.00
    4   18   11      0.16      0.00
    5   18   11     14.77      0.00
    6   18   11     -5.78      0.00
    7   18   11      1.99      0.00
    0   19   11     10.25      0.00
    1   19   11      3.11      0.00
    2   19   11    -20.68      0.00
    3   19   11    -15.09      0.00
    4   19   11      3.14      0.00
    5   19   11     -8.66      0.00
    1    1   12    -16.08      0.00
    0    2   12     21.20      0.00
    1    2   12     -3.76      0.00
    2    2   12      1.55      0.00
    1    3   12    -22.14      0.00
    2    3   12      3.79      0.00
    3    3   12     -6.67      0.00
    0    4   12    -18.39      0.00
    1    4   12      9.15      0.00
    2    4   12     -2.69      0.00
    3    4   12      5.23      0.00
    4    4   12      4.79      0.00
    1    5   12    -13.51      0.00
    2    5   12      4.25      0.00
    3    5   12      2.67      0.00
    4    5   12     -5.71      0.00
    5    5   12     -2.33      0.00
    0    6   12      1.40      0.00
    1    6   12      0.53      0.00
    2    6   12     -2.99      0.00
    3    6   12     -6.54      0.00
    4    6   12     -1.96      0.00
    5    6   12      5.62      0.00
    6    6   12     -2.60      0.00
    1    7   12      0.19      0.00
    2    7   12     -1.59      0.00
    3    7   12     -1.24      0.00
    4    7   12     -3.26      0.00
    5    7   12     -0.93      0.00
    6    7   12      2.37      0.00
    7    7   12    -26.48      0.00
    0    8   12      0.59      0.00
    1    8   12     -1.12      0.00
    2    8   12     -0.12      0.00
    3    8   12      8.27      0.00
    4    8   12     -1.80      0.00
    5    8   12      6.99      0.00
    6    8   12     -1.43      0.00
    7    8   12      1.28      0.00
    8    8   12     -3.24      0.00
    1    9   12      5.33      0.00
    2    9   12      1.40      0.00
    3    9   12      2.38      0.00
    4    9   12     11.63      0.00
    5    9   12     -1.71      0.00
    6    9   12      2.35      0.00
    7    9   12     -4.13      0.00
    8    9   12      3.01      0.00
    9    9   12     -8.06      0.00
    0   10   12     -1.81      0.00
    1   10   12      7.53      0.00
    2   10   12      1.35      0.00
    3   10   12     -9.94      0.00
    4   10   12      2.18      0.00
    5   10   12     -0.79      0.00
    6   10   12     -2.20      0.00
    7   10   12      1.03      0.00
    8   10   12      0.74      0.00
    9   10   12    -10.67      0.00
   10   10   12    -10.73      0.00
    1   11   12      4.50      0.00
    2   11   12     -8.13      0.00
    3   11   12     -8.73      0.00
    4   11   12    -13.28      0.00
    5   11   12     -1.88      0.00
    6   11   12     -3.26      0.00
    7   11   12     23.03      0.00
    8   11   12    -13.92      0.00
    9   11   12    -11.69      0.00
   10   11   12     13.82      0.00
    0   12   12     -1.78      0.00
    1   12   12     -3.43      0.00
    2   12   12     10.79      0.00
    3   12   12     10.93      0.00
    4   12   12     -4.01      0.00
    5   12   12     43.43      0.00
    6   12   12      6.58      0.00
    7   12   12    -18.53      0.00
    8   12   12     -4.85      0.00
    9   12   12     -9.55      0.00
   10   12   12     33.99      0.00
    1   13   12    -19.38      0.00
    2   13   12     15.36      0.00
    3   13   12    -10.62      0.00
    4   13   12    -16.89      0.00
    5   13   12      7.59      0.00
    6   13   12     -2.45      0.00
    7   13   12    -15.74      0.00
    8   13   12     -2.16      0.00
    9   13   12     -9.70      0.00
   10   13   12    -37.80      0.00
    0   14   12     -8.06      0.00
    1   14   12      0.77      0.00
    2   14   12      0.02      0.00
    3   14   12      1.99      0.00
    4   14   12     14.39      0.00
    5   14   12      9.33      0.00
    6   14   12     -1.13      0.00
    7   14   12     -6.23      0.00
    8   14   12     -3.03      0.00
    1   15   12    -11.00      0.00
    2   15   12    -10.36      0.00
    3   15   12      0.21      0.00
    4   15   12      3.38      0.00
    5   15   12      2.51      0.00
    6   15   12      1.39      0.00
    7   15   12      2.85      0.00
    8   15   12      3.92      0.00
    0   16   12     -7.91      0.00
    1   16   12     14.13      0.00
    2   16   12     -6.05      0.00
    3   16   12      7.96      0.00
    4   16   12     -8.60      0.00
    5   16   12      4.25      0.00
    6   16   12     -2.52      0.00
    7   16   12      0.58      0.00
    8   16   12      3.03      0.00
    1   17   12     -8.98      0.00
    2   17   12    -16.18      0.00
    3   17   12      7.27      0.00
    4   17   12      4.03      0.00
    5   17   12    -16.94      0.00
    6   17   12     -8.93      0.00
    7   17   12     -0.55      0.00
    8   17   12     -7.81      0.00
    0   18   12     -0.51      0.00
    1   18   12    -10.67      0.00
    2   18   12    -17.44      0.00
    3   18   12     17.74      0.00
    4   18   12     -7.49      0.00
    5   18   12      2.81      0.00
    6   18   12      4.76      0.00
    7   18   12     14.78      0.00
    8   18   12      5.77      0.00
    1   19   12     -7.78      0.00
    2   19   12    -10.19      0.00
    3   19   12     10.53      0.00
    4   19   12     11.13      0.00
    5   19   12     -0.90      0.00
    0    1   13     -7.62      0.00
    1    2   13    -18.24      0.00
    0    3   13     -0.33      0.00
    1    3   13     -9.30      0.00
    2    3   13    -15.07      0.00
    1    4   13     17.38      0.00
    2    4   13     12.65      0.00
    3    4   13      1.72      0.00
    0    5   13     10.57      0.00
    1    5   13     -0.89      0.00
    2    5   13      2.31      0.00
    3    5   13      4.75      0.00
    4    5   13     -5.04      0.00
    1    6   13    -12.37      0.00
    2    6   13     -2.85      0.00
    3    6   13     -5.07      0.00
    4    6   13     -5.98      0.00
    5    6   13     -8.07      0.00
    0    7   13      4.88      0.00
    1    7   13     -1.46      0.00
    2    7   13      0.62      0.00
    3    7   13      0.74      0.00
    4    7   13      0.77      0.00
    5    7   13      3.19      0.00
    6    7   13      8.56      0.00
    1    8   13      2.43      0.00
    2    8   13      1.24      0.00
    3    8   13     -5.86      0.00
    4    8   13      9.08      0.00
    5    8   13      4.53      0.00
    6    8   13      1.89      0.00
    7    8   13      5.19      0.00
    0    9   13     -3.65      0.00
    1    9   13     -1.87      0.00
    2    9   13     -8.99      0.00
    3    9   13     -6.15      0.00
    4    9   13     -2.05      0.00
    5    9   13     -4.69      0.00
    6    9   13    -19.72      0.00
    7    9   13     15.30      0.00
    8    9   13    -13.41      0.00
    1   10   13     -0.47      0.00
    2   10   13      5.68      0.00
    3   10   13      4.98      0.00
    4   10   13     -5.15      0.00
    5   10   13     -1.82      0.00
    6   10   13     -3.20      0.00
    7   10   13      4.29      0.00
    8   10   13     -3.97      0.00
    9   10   13     -3.90      0.00
    0   11   13      2.71      0.00
    1   11   13      2.34      0.00
    2   11   13     -7.48      0.00
    3   11   13     -0.57      0.00
    4   11   13     -7.80      0.00
    5   11   13     -1.10      0.00
    6   11   13     -4.52      0.00
    7   11   13      1.35      0.00
    8   11   13     -5.45      0.00
    9   11   13      6.21      0.00
   10   11   13    -11.01      0.00
    1   12   13     -9.72      0.00
    2   12   13     -2.04      0.00
    3   12   13    -11.86      0.00
    4   12   13     15.34      0.00
    5   12   13      2.41      0.00
    6   12   13     -0.97      0.00
    7   12   13     -4.81      0.00
    8   12   13     21.49      0.00
    9   12   13      0.02      0.00
   10   12   13      2.62      0.00
    0   13   13     19.00      0.00
    1   13   13     -3.37      0.00
    2   13   13      8.52      0.00
    3   13   13    -19.33      0.00
    4   13   13     12.46      0.00
    5   13   13     -4.33      0.00
    6   13   13    -14.69      0.00
    7   13   13     -1.71      0.00
    8   13   13    -16.64      0.00
    9   13   13     -7.92      0.00
   10   13   13    -14.20      0.00
    1   14   13     -2.42      0.00
    2   14   13      5.30      0.00
    3   14   13      4.86      0.00
    4   14   13     -1.94      0.00
    5   14   13    -12.52      0.00
    6   14   13     -2.94      0.00
    7   14   13     10.59      0.00
    8   14   13     -0.97      0.00
    0   15   13      6.48      0.00
    1   15   13      4.69      0.00
    2   15   13      7.88      0.00
    3   15   13     -5.93      0.00
    4   15   13      4.42      0.00
    5   15   13     -0.67      0.00
    6   15   13     -0.30      0.00
    7   15   13      3.18      0.00
    8   15   13     -3.57      0.00
    1   16   13     10.42      0.00
    2   16   13     -3.35      0.00
    3   16   13      0.01      0.00
    4   16   13    -14.84      0.00
    5   16   13    -12.57      0.00
    6   16   13    -15.44      0.00
    7   16   13     18.10      0.00
    8   16   13     -1.68      0.00
    0   17   13    -10.73      0.00
    1   17   13     -4.14      0.00
    2   17   13      6.04      0.00
    3   17   13    -13.72      0.00
    4   17   13    -13.65      0.00
    5   17   13     -3.89      0.00
    6   17   13     -3.79      0.00
    7   17   13     16.76      0.00
    8   17   13     -3.75      0.00
    1   18   13      4.72      0.00
    2   18   13      2.50      0.00
    3   18   13      5.65      0.00
    4   18   13     -0.70      0.00
    5   18   13      2.26      0.00
    6   18   13     -4.27      0.00
    7   18   13     10.47      0.00
    8   18   13     23.09      0.00
    0   19   13     -3.90      0.00
    1   19   13     -6.52      0.00
    2   19   13     -5.39      0.00
    3   19   13     -4.87      0.00
    4   19   13      0.71      0.00
    0    0   14    -26.91      0.00
    1    1   14     -3.10      0.00
    0    2   14    -16.84      0.00
    1    2   14      7.11      0.00
    2    2   14      9.79      0.00
    1    3   14    -17.08      0.00
    2    3   14     -1.32      0.00
    3    3   14     -3.53      0.00
    0    4   14     -4.83      0.00
    1    4   14      0.63      0.00
    2    4   14     -3.72      0.00
    3    4   14     -5.96      0.00
    4    4   14     -2.23      0.00
    1    5   14      7.54      0.00
    2    5   14    -11.74      0.00
    3    5   14     -5.30      0.00
    4    5   14      1.92      0.00
    5    5   14      4.76      0.00
    0    6   14    -11.01      0.00
    1    6   14      5.30      0.00
    2    6   14     -5.61      0.00
    3    6   14     -1.46      0.00
    4    6   14     -1.92      0.00
    5    6   14     -1.31      0.00
    6    6   14      9.26      0.00
    1    7   14     -2.86      0.00
    2    7   14     -7.56      0.00
    3    7   14     -2.88      0.00
    4    7   14     -0.59      0.00
    5    7   14      2.16      0.00
    6    7   14      1.99      0.00
    7    7   14    -16.11      0.00
    0    8   14      1.84      0.00
    1    8   14      5.19      0.00
    2    8   14      5.09      0.00
    3    8   14     -4.53      0.00
    4    8   14     11.01      0.00
    5    8   14      0.86      0.00
    6    8   14     -6.11      0.00
    7    8   14     13.81      0.00
    1    9   14      5.05      0.00
    2    9   14      3.25      0.00
    3    9   14     -2.72      0.00
    4    9   14      0.86      0.00
    5    9   14     -1.68      0.00
    6    9   14     -3.79      0.00
    7    9   14      7.48      0.00
    8    9   14      2.50      0.00
    9    9   14    -11.47      0.00
    0   10   14    -27.71      0.00
    1   10   14      9.72      0.00
    2   10   14      8.87      0.00
    3   10   14     -9.64      0.00
    4   10   14     -5.72      0.00
    5   10   14      0.67      0.00
    6   10   14      5.27      0.00
    7   10   14     -1.36      0.00
    8   10   14     -3.28      0.00
    9   10   14     -2.39      0.00
   10   10   14     -2.46      0.00
    1   11   14      0.83      0.00
    2   11   14      6.74      0.00
    3   11   14     -0.94      0.00
    4   11   14      0.48      0.00
    5   11   14     -2.55      0.00
    6   11   14     -1.44      0.00
    7   11   14     -3.89      0.00
    8   11   14      9.93      0.00
    9   11   14     16.89      0.00
   10   11   14      1.55      0.00
   11   11   14    -29.57      0.00
    0   12   14     13.42      0.00
    1   12   14     -3.99      0.00
    2   12   14      9.42      0.00
    3   12   14     42.85      0.00
    4   12   14     -8.30      0.00
    6   12   14     -1.87      0.00
    7   12   14     35.03      0.00
    8   12   14      0.62      0.00
    9   12   14    -20.12      0.00
   10   12   14     13.06      0.00
   11   12   14     12.01      0.00
    1   13   14     -0.84      0.00
    2   13   14     -0.12      0.00
    3   13   14     -6.38      0.00
    4   13   14     -3.41      0.00
    5   13   14    -12.58      0.00
    6   13   14    -11.96      0.00
    7   13   14     -7.62      0.00
    8   13   14     11.79      0.00
    9   13   14      3.63      0.00
   10   13   14     -4.73      0.00
   11   13   14    -25.99      0.00
    0   14   14      5.01      0.00
    1   14   14     -3.59      0.00
    2   14   14     -6.59      0.00
    3   14   14    -11.47      0.00
    4   14   14     10.37      0.00
    5   14   14     11.24      0.00
    6   14   14     -9.23      0.00
    7   14   14     15.37      0.00
    8   14   14      9.74      0.00
    9   14   14      0.39      0.00
   11   14   14     39.31      0.00
    1   15   14     20.64      0.00
    2   15   14      9.36      0.00
    3   15   14    -13.42      0.00
    4   15   14     -0.20      0.00
    5   15   14     -2.78      0.00
    6   15   14      4.61      0.00
    7   15   14     -2.28      0.00
    8   15   14      8.10      0.00
    0   16   14    -12.69      0.00
    1   16   14     -9.19      0.00
    2   16   14      5.72      0.00
    3   16   14      5.58      0.00
    4   16   14      3.73      0.00
    5   16   14      4.94      0.00
    6   16   14     -0.02      0.00
    7   16   14      0.76      0.00
    8   16   14     -1.65      0.00
    1   17   14    -18.34      0.00
    2   17   14    -14.37      0.00
    3   17   14     42.67      0.00
    4   17   14     -3.81      0.00
    5   17   14     -3.57      0.00
    6   17   14      3.13      0.00
    7   17   14     -7.74      0.00
    8   17   14     -4.79      0.00
    0   18   14     14.12      0.00
    1   18   14      2.22      0.00
    2   18   14     -1.69      0.00
    3   18   14      3.01      0.00
    4   18   14      9.27      0.00
    5   18   14     -0.24      0.00
    6   18   14     19.79      0.00
    7   18   14      7.98      0.00
    8   18   14     -4.94      0.00
    1   19   14     -0.66      0.00
    2   19   14      5.80      0.00
    3   19   14     -3.68      0.00
    0    1   15      3.74      0.00
    1    2   15      8.23      0.00
    0    3   15     -6.02      0.00
    1    3   15     -2.79      0.00
    2    3   15     -5.50      0.00
    1    4   15      0.34      0.00
    2    4   15     -4.48      0.00
    3    4   15     -3.36      0.00
    0    5   15      8.22      0.00
    1    5   15     -0.14      0.00
    2    5   15     -5.39      0.00
    3    5   15      1.22      0.00
    4    5   15      6.08      0.00
    1    6   15     -5.34      0.00
    2    6   15      7.47      0.00
    3    6   15     -3.93      0.00
    4    6   15     -3.29      0.00
    5    6   15      6.55      0.00
    0    7   15      5.92      0.00
    1    7   15      2.64      0.00
    2    7   15      7.06      0.00
    3    7   15     -3.73      0.00
    4    7   15     -1.48      0.00
    5    7   15      1.75      0.00
    6    7   15     -8.59      0.00
    1    8   15      0.93      0.00
    2    8   15      4.65      0.00
    3    8   15      2.16      0.00
    4    8   15      2.98      0.00
    5    8   15     11.07      0.00
    6    8   15     -1.91      0.00
    0    9   15     -2.54      0.00
    1    9   15     -4.21      0.00
    2    9   15     11.29      0.00
    3    9   15     -7.42      0.00
    4    9   15     -2.39      0.00
    5    9   15      4.16      0.00
    6    9   15      6.09      0.00
    7    9   15     -7.35      0.00
    8    9   15    -21.63      0.00
    1   10   15      0.17      0.00
    2   10   15     -4.15      0.00
    3   10   15     14.31      0.00
    4   10   15      9.43      0.00
    5   10   15     -4.72      0.00
    6   10   15     -3.28      0.00
    7   10   15      2.82      0.00
    8   10   15      3.98      0.00
    9   10   15     25.27      0.00
    0   11   15     -7.40      0.00
    1   11   15    -12.72      0.00
    2   11   15      4.87      0.00
    3   11   15    -10.79      0.00
    4   11   15     -0.92      0.00
    5   11   15     -9.41      0.00
    6   11   15     13.53      0.00
    7   11   15     -2.90      0.00
    8   11   15      3.63      0.00
    9   11   15      4.35      0.00
   10   11   15     -3.41      0.00
    1   12   15    -18.24      0.00
    2   12   15    -20.85      0.00
    4   12   15      9.51      0.00
    5   12   15      7.69      0.00
    6   12   15     19.08      0.00
    7   12   15      9.86      0.00
    8   12   15      1.96      0.00
    9   12   15     -9.61      0.00
   10   12   15      1.26      0.00
   11   12   15    -19.81      0.00
    0   13   15     16.08      0.00
    1   13   15     16.63      0.00
    2   13   15     -3.42      0.00
    3   13   15      3.00      0.00
    4   13   15      7.35      0.00
    5   13   15     -3.93      0.00
    6   13   15     -0.66      0.00
    7   13   15    -17.27      0.00
    8   13   15     -1.22      0.00
    9   13   15      9.93      0.00
   10   13   15    -16.32      0.00
   11   13   15     16.13      0.00
    1   14   15      6.01      0.00
    2   14   15      7.53      0.00
    3   14   15     -7.15      0.00
    4   14   15     18.93      0.00
    5   14   15      1.17      0.00
    6   14   15      6.02      0.00
    7   14   15     16.59      0.00
    8   14   15      7.50      0.00
    9   14   15     -8.10      0.00
   10   14   15     -3.18      0.00
   11   14   15    -14.13      0.00
    0   15   15      9.45      0.00
    1   15   15      3.43      0.00
    2   15   15    -13.90      0.00
    3   15   15     15.24      0.00
    4   15   15      5.10      0.00
    5   15   15     10.72      0.00
    6   15   15     -0.33      0.00
    7   15   15      4.00      0.00
    1   16   15     -0.70      0.00
    2   16   15     -3.25      0.00
    3   16   15    -14.66      0.00
    4   16   15     28.60      0.00
    5   16   15     11.78      0.00
    6   16   15    -13.00      0.00
    7   16   15     -1.99      0.00
    0   17   15     61.90      0.00
    1   17   15     71.14      0.00
    2   17   15    -20.12      0.00
    3   17   15     -9.07      0.00
    4   17   15      3.05      0.00
    5   17   15     -1.62      0.00
    6   17   15     -9.57      0.00
    7   17   15      0.56      0.00
    1   18   15     -8.02      0.00
    2   18   15     12.11      0.00
    3   18   15    -12.66      0.00
    4   18   15     -5.90      0.00
    5   18   15     -2.08      0.00
    6   18   15      1.33      0.00
    7   18   15     -1.41      0.00
    0    0   16     33.23      0.00
    1    1   16     11.34      0.00
    0    2   16     -9.89      0.00
    1    2   16     -3.29      0.00
    2    2   16     42.72      0.00
    1    3   16     12.58      0.00
    2    3   16     -0.32      0.00
    3    3   16     10.10      0.00
    0    4   16     15.25      0.00
    1    4   16    -16.11      0.00
    2    4   16     -1.40      0.00
    3    4   16      4.08      0.00
    4    4   16     13.75      0.00
    1    5   16      9.26      0.00
    2    5   16     11.24      0.00
    3    5   16     -0.66      0.00
    4    5   16      1.20      0.00
    5    5   16     20.16      0.00
    0    6   16      5.06      0.00
    1    6   16      4.01      0.00
    2    6   16     -7.68      0.00
    3    6   16     -0.02      0.00
    4    6   16     -1.18      0.00
    5    6   16    -29.74      0.00
    6    6   16     -4.24      0.00
    1    7   16      5.59      0.00
    2    7   16      6.64      0.00
    3    7   16      4.28      0.00
    4    7   16     -0.64      0.00
    5    7   16    -12.18      0.00
    6    7   16      8.48      0.00
    0    8   16      0.47      0.00
    1    8   16      7.82      0.00
    2    8   16     -2.18      0.00
    3    8   16     -0.25      0.00
    4    8   16      6.43      0.00
    5    8   16      6.69      0.00
    6    8   16     -6.61      0.00
    7    8   16     -1.06      0.00
    8    8   16     -3.95      0.00
    1    9   16     -5.08      0.00
    2    9   16      1.75      0.00
    3    9   16      2.17      0.00
    4    9   16    -15.60      0.00
    5    9   16    -26.26      0.00
    6    9   16     -5.40      0.00
    7    9   16      3.05      0.00
    8    9   16     -7.94      0.00
    9    9   16     -3.88      0.00
    0   10   16     10.27      0.00
    1   10   16     -7.04      0.00
    2   10   16      1.83      0.00
    3   10   16      1.62      0.00
    4   10   16      6.25      0.00
    5   10   16      7.21      0.00
    6   10   16      1.23      0.00
    7   10   16     -1.19      0.00
    8   10   16     -2.69      0.00
    9   10   16     -2.03      0.00
   10   10   16     -0.47      0.00
    1   11   16      6.16      0.00
    2   11   16    -11.07      0.00
    3   11   16      8.79      0.00
    4   11   16     -9.79      0.00
    5   11   16      6.86      0.00
    6   11   16     -7.71      0.00
    7   11   16     -7.82      0.00
    8   11   16     -5.29      0.00
    9   11   16     -1.39      0.00
   10   11   16      4.89      0.00
   11   11   16      5.95      0.00
    0   12   16     -0.75      0.00
    1   12   16     12.46      0.00
    2   12   16     -0.19      0.00
    3   12   16     -1.48      0.00
    4   12   16      2.11      0.00
    5   12   16     -8.99      0.00
    6   12   16      9.31      0.00
    7   12   16      0.11      0.00
    8   12   16      5.41      0.00
    9   12   16    -25.95      0.00
   10   12   16     -6.75      0.00
   11   12   16      2.94      0.00
    1   13   16      2.36      0.00
    2   13   16     -2.49      0.00
    3   13   16     18.20      0.00
    4   13   16     12.94      0.00
    5   13   16     -6.42      0.00
    6   13   16    -33.96      0.00
    7   13   16      9.49      0.00
    8   13   16      5.98      0.00
    9   13   16     -6.65      0.00
   10   13   16    -10.41      0.00
   11   13   16     -4.13      0.00
    0   14   16     -9.78      0.00
    1   14   16    -11.90      0.00
    2   14   16     -0.55      0.00
    3   14   16    -24.32      0.00
    4   14   16     -6.32      0.00
    5   14   16      9.00      0.00
    6   14   16      2.56      0.00
    7   14   16    -18.51      0.00
    8   14   16     -2.49      0.00
    9   14   16    -13.22      0.00
   10   14   16      8.41      0.00
   11   14   16     -4.00      0.00
    1   15   16      2.54      0.00
    2   15   16    -15.03      0.00
    3   15   16    -12.02      0.00
    4   15   16     -9.53      0.00
    5   15   16      1.29      0.00
    6   15   16     -6.70      0.00
    0   16   16    -17.36      0.00
    1   16   16     -7.76      0.00
    2   16   16      1.35      0.00
    3   16   16      1.80      0.00
    4   16   16     -5.89      0.00
    5   16   16    -15.42      0.00
    6   16   16     -2.77      0.00
    1   17   16    -14.12      0.00
    2   17   16    -11.68      0.00
    3   17   16     -7.38      0.00
    4   17   16     -5.79      0.00
    5   17   16     -8.92      0.00
    6   17   16     14.82      0.00
    0   18   16     -6.87      0.00
    1   18   16     -9.71      0.00
    2   18   16     -2.16      0.00
    3   18   16     -9.41      0.00
    4   18   16     -0.70      0.00
    5   18   16      5.77      0.00
    6   18   16      9.94      0.00
    0    1   17      3.48      0.00
    1    2   17      2.44      0.00
    0    3   17     -4.49      0.00
    1    3   17     -1.01      0.00
    2    3   17      3.99      0.00
    1    4   17      6.29      0.00
    2    4   17     -6.93      0.00
    3    4   17     -0.55      0.00
    0    5   17      1.03      0.00
    1    5   17     -0.49      0.00
    2    5   17     -7.44      0.00
    3    5   17      1.95      0.00
    4    5   17     -2.16      0.00
    1    6   17     -3.49      0.00
    2    6   17     10.94      0.00
    3    6   17     -2.84      0.00
    4    6   17      7.20      0.00
    5    6   17      2.42      0.00
    0    7   17     15.34      0.00
    1    7   17      1.22      0.00
    2    7   17     -1.22      0.00
    3    7   17     -6.87      0.00
    4    7   17      1.74      0.00
    5    7   17     -6.19      0.00
    1    8   17     -3.25      0.00
    2    8   17      3.98      0.00
    3    8   17    -14.43      0.00
    4    8   17      7.16      0.00
    6    8   17      0.39      0.00
    7    8   17     -0.11      0.00
    0    9   17    -10.74      0.00
    1    9   17      3.89      0.00
    2    9   17     -5.11      0.00
    3    9   17     -4.76      0.00
    4    9   17     -3.83      0.00
    5    9   17      0.59      0.00
    6    9   17      0.13      0.00
    7    9   17      9.77      0.00
    8    9   17      6.73      0.00
    1   10   17     -3.38      0.00
    2   10   17     -7.89      0.00
    3   10   17      0.06      0.00
    4   10   17      5.78      0.00
    5   10   17     -6.24      0.00
    6   10   17      1.88      0.00
    7   10   17     -6.68      0.00
    8   10   17    -10.28      0.00
    9   10   17      2.69      0.00
    0   11   17     -8.23      0.00
    1   11   17     24.82      0.00
    2   11   17      1.71      0.00
    3   11   17     -8.54      0.00
    4   11   17      2.98      0.00
    5   11   17     -4.08      0.00
    6   11   17      3.44      0.00
    7   11   17      2.92      0.00
    8   11   17      4.55      0.00
    9   11   17     -5.96      0.00
   10   11   17      6.62      0.00
    1   12   17     -5.42      0.00
    2   12   17     -5.11      0.00
    3   12   17     -8.54      0.00
    4   12   17     21.69      0.00
    5   12   17     -1.35      0.00
    6   12   17      7.02      0.00
    7   12   17    -30.11      0.00
    8   12   17      8.97      0.00
    9   12   17      2.97      0.00
   10   12   17     -6.19      0.00
   11   12   17     -7.88      0.00
    0   13   17    -24.95      0.00
    1   13   17     -1.31      0.00
    2   13   17      6.24      0.00
    3   13   17      8.64      0.00
    4   13   17     -6.69      0.00
    5   13   17    -50.98      0.00
    6   13   17      4.99      0.00
    7   13   17    -10.22      0.00
    8   13   17      1.75      0.00
    9   13   17     -8.77      0.00
   10   13   17     38.99      0.00
   11   13   17     -0.85      0.00
    1   14   17     -3.22      0.00
    2   14   17     -5.93      0.00
    3   14   17     -4.44      0.00
    4   14   17     -3.59      0.00
    5   14   17      3.10      0.00
    6   14   17     17.42      0.00
    7   14   17    -10.71      0.00
    8   14   17     10.22      0.00
    9   14   17      2.94      0.00
   10   14   17      4.82      0.00
   11   14   17    -10.66      0.00
    0   15   17     -1.06      0.00
    1   15   17     -2.92      0.00
    2   15   17     -3.76      0.00
    3   15   17     16.13      0.00
    4   15   17     14.07      0.00
    5   15   17    -14.45      0.00
    1   16   17    -13.52      0.00
    2   16   17    -30.99      0.00
    3   16   17      4.65      0.00
    4   16   17     12.01      0.00
    5   16   17      1.11      0.00
    0   17   17     -5.97      0.00
    1   17   17      9.38      0.00
    2   17   17     14.60      0.00
    3   17   17    -11.49      0.00
    4   17   17     21.02      0.00
    5   17   17     -3.77      0.00
    1   18   17     -3.19      0.00
    2   18   17     -1.58      0.00
    3   18   17      4.22      0.00
    4   18   17      7.91      0.00
    5   18   17     -6.71      0.00
    1    1   18     -8.59      0.00
    0    2   18      2.76      0.00
    1    2   18     -1.17      0.00
    2    2   18     16.05      0.00
    1    3   18    -16.07      0.00
    2    3   18     -6.40      0.00
    3    3   18    -15.39      0.00
    0    4   18     -8.61      0.00
    1    4   18      1.11      0.00
    2    4   18    -12.09      0.00
    3    4   18     -8.39      0.00
    4    4   18      0.21      0.00
    1    5   18      8.36      0.00
    2    5   18     -3.11      0.00
    3    5   18      1.07      0.00
    4    5   18     23.66      0.00
    5    5   18     17.68      0.00
    0    6   18    -23.07      0.00
    1    6   18    -17.82      0.00
    2    6   18     16.91      0.00
    3    6   18     -1.65      0.00
    4    6   18     -4.04      0.00
    5    6   18    -14.96      0.00
    1    7   18     -6.21      0.00
    2    7   18     -8.02      0.00
    3    7   18      1.49      0.00
    4    7   18     -3.85      0.00
    6    7   18     13.70      0.00
    7    7   18    -10.26      0.00
    0    8   18     -6.88      0.00
    1    8   18     -5.33      0.00
    2    8   18     -5.52      0.00
    3    8   18      3.90      0.00
    4    8   18      9.00      0.00
    5    8   18      1.65      0.00
    6    8   18     13.38      0.00
    7    8   18    -11.13      0.00
    8    8   18     -0.47      0.00
    1    9   18      0.11      0.00
    2    9   18      1.08      0.00
    3    9   18    -11.73      0.00
    4    9   18      3.79      0.00
    5    9   18     -4.86      0.00
    6    9   18    -10.60      0.00
    7    9   18      9.58      0.00
    8    9   18      1.83      0.00
    9    9   18    -15.06      0.00
    0   10   18      3.15      0.00
    1   10   18      0.18      0.00
    2   10   18     -6.78      0.00
    3   10   18     43.72      0.00
    4   10   18    -13.84      0.00
    5   10   18      9.28      0.00
    6   10   18      6.19      0.00
    7   10   18     -2.74      0.00
    8   10   18     -3.47      0.00
    9   10   18      5.01      0.00
   10   10   18     10.10      0.00
    1   11   18     -3.47      0.00
    2   11   18     -4.76      0.00
    3   11   18     -0.73      0.00
    4   11   18     -5.75      0.00
    5   11   18     -1.36      0.00
    6   11   18      8.61      0.00
    7   11   18     -4.68      0.00
    8   11   18      7.61      0.00
    9   11   18      0.09      0.00
   10   11   18      4.11      0.00
   11   11   18     -2.82      0.00
    0   12   18     18.91      0.00
    1   12   18      1.01      0.00
    2   12   18    -18.52      0.00
    3   12   18    -26.83      0.00
    4   12   18      3.59      0.00
    5   12   18      7.31      0.00
    6   12   18      2.82      0.00
    7   12   18     -4.31      0.00
    8   12   18     -3.55      0.00
    9   12   18      5.44      0.00
   10   12   18     -2.19      0.00
   11   12   18     -6.89      0.00
   12   12   18     13.11      0.00
    1   13   18      9.95      0.00
    2   13   18     -4.48      0.00
    3   13   18      3.04      0.00
    4   13   18     12.54      0.00
    5   13   18     -1.42      0.00
    6   13   18      4.52      0.00
    7   13   18      6.20      0.00
    8   13   18      5.44      0.00
    9   13   18      6.95      0.00
   10   13   18      1.30      0.00
   11   13   18      1.06      0.00
   12   13   18     26.58      0.00
    0   14   18      4.68      0.00
    1   14   18      5.97      0.00
    2   14   18     -0.23      0.00
    3   14   18      3.83      0.00
    4   14   18      2.71      0.00
    5   14   18      8.48      0.00
    6   14   18      3.36      0.00
    7   14   18     18.36      0.00
    8   14   18     12.67      0.00
    9   14   18     -2.78      0.00
   10   14   18     -5.25      0.00
   11   14   18      3.08      0.00
   12   14   18     26.78      0.00
    1   15   18     -1.04      0.00
    2   15   18      4.43      0.00
    3   15   18      3.24      0.00
    4   15   18    -13.01      0.00
    0   16   18     54.64      0.00
    1   16   18     59.79      0.00
    2   16   18     -5.61      0.00
    3   16   18     -0.40      0.00
    4   16   18      0.12      0.00
    1   17   18     14.92      0.00
    2   17   18    -13.72      0.00
    3   17   18      2.08      0.00
    4   17   18     16.02      0.00
    0   18   18    -18.99      0.00
    1   18   18      5.78      0.00
    2   18   18      6.18      0.00
    3   18   18     -9.49      0.00
    4   18   18      2.39      0.00
    0    1   19     -5.25      0.00
    1    2   19     -8.88      0.00
    0    3   19      6.24      0.00
    1    3   19     -7.41      0.00
    2    3   19      1.71      0.00
    1    4   19      3.06      0.00
    2    4   19     11.45      0.00
    3    4   19     -2.18      0.00
    0    5   19    -11.73      0.00
    1    5   19      1.59      0.00
    2    5   19    -14.07      0.00
    3    5   19     -5.17      0.00
    4    5   19     -0.83      0.00
    1    6   19      1.52      0.00
    2    6   19      0.75      0.00
    3    6   19     -0.52      0.00
    4    6   19      5.39      0.00
    0    7   19     -3.05      0.00
    1    7   19     -2.04      0.00
    2    7   19      4.11      0.00
    3    7   19     -4.57      0.00
    4    7   19      3.37      0.00
    5    7   19      3.92      0.00
    6    7   19      2.10      0.00
    1    8   19      8.77      0.00
    2    8   19      7.42      0.00
    3    8   19     13.69      0.00
    4    8   19     -5.80      0.00
    5    8   19      1.48      0.00
    6    8   19      3.54      0.00
    7    8   19      1.95      0.00
    0    9   19    -24.42      0.00
    1    9   19     -6.94      0.00
    2    9   19     -0.19      0.00
    3    9   19     -3.76      0.00
    4    9   19     19.80      0.00
    5    9   19     -9.32      0.00
    6    9   19      7.58      0.00
    7    9   19     -5.68      0.00
    8    9   19     -9.24      0.00
    1   10   19     30.75      0.00
    2   10   19     -3.19      0.00
    3   10   19     -7.70      0.00
    4   10   19     -2.84      0.00
    5   10   19      2.16      0.00
    6   10   19     -6.63      0.00
    7   10   19      1.95      0.00
    8   10   19     -7.33      0.00
    9   10   19     -0.67      0.00
    0   11   19     21.90      0.00
    1   11   19     -4.22      0.00
    2   11   19     11.38      0.00
    3   11   19      4.70      0.00
    4   11   19     -8.87      0.00
    5   11   19     -6.56      0.00
    6   11   19      8.88      0.00
    7   11   19     11.19      0.00
    8   11   19     -2.68      0.00
    9   11   19      1.73      0.00
   10   11   19     -8.17      0.00
    1   12   19      5.07      0.00
    2   12   19     12.00      0.00
    3   12   19      9.46      0.00
    4   12   19      8.95      0.00
    5   12   19     -9.58      0.00
    6   12   19      8.11      0.00
    7   12   19     -3.29      0.00
    8   12   19     15.88      0.00
    9   12   19    -15.03      0.00
   10   12   19     25.67      0.00
   11   12   19     -6.98      0.00
    0   13   19     -4.27      0.00
    1   13   19     18.03      0.00
    2   13   19      4.15      0.00
    3   13   19     -1.80      0.00
    4   13   19      3.91      0.00
    5   13   19     -8.03      0.00
    6   13   19      2.00      0.00
    7   13   19    -11.93      0.00
    8   13   19      9.34      0.00
    9   13   19     -6.85      0.00
   10   13   19      0.94      0.00
   11   13   19     -1.44      0.00
   12   13   19     -7.80      0.00
    1   14   19     -1.77      0.00
    2   14   19     -8.50      0.00
    3   14   19      2.42      0.00
    4   14   19     17.26      0.00
    5   14   19      3.82      0.00
    6   14   19     16.54      0.00
    7   14   19    -51.85      0.00
    8   14   19      5.77      0.00
    9   14   19     -7.37      0.00
   10   14   19     -1.49      0.00
   11   14   19    -12.54      0.00
    0   15   19     -1.75      0.00
    1   15   19     12.70      0.00
    2   15   19      7.63      0.00
    3   15   19      1.55      0.00
    9   15   19     -5.15      0.00
   10   15   19     12.15      0.00
    1   16   19     -5.72      0.00
    2   16   19     -4.48      0.00
    3   16   19    -24.49      0.00
    0   17   19     -3.09      0.00
    1   17   19    -13.70      0.00
    2   17   19      8.41      0.00
    3   17   19     15.64      0.00
    1   18   19      7.63      0.00
    2   18   19     10.75      0.00
    3   18   19      2.81      0.00
    1    1   20      4.70      0.00
    0    2   20      1.52      0.00
    1    2   20     10.09      0.00
    2    2   20      5.03      0.00
    1    3   20    -16.75      0.00
    2    3   20      9.36      0.00
    3    3   20      7.80      0.00
    0    4   20      6.63      0.00
    1    4   20     13.99      0.00
    2    4   20      2.07      0.00
    3    4   20      9.52      0.00
    4    4   20      4.85      0.00
    1    5   20      0.26      0.00
    2    5   20      0.07      0.00
    3    5   20      6.41      0.00
    4    5   20      9.10      0.00
    0    6   20     10.50      0.00
    1    6   20      7.64      0.00
    2    6   20      6.38      0.00
    3    6   20      0.18      0.00
    5    6   20     11.08      0.00
    6    6   20     11.71      0.00
    1    7   20     17.55      0.00
    2    7   20     -9.78      0.00
    3    7   20      3.04      0.00
    4    7   20      3.14      0.00
    5    7   20     18.84      0.00
    6    7   20     21.14      0.00
    0    8   20     -1.62      0.00
    1    8   20    -11.77      0.00
    2    8   20      7.54      0.00
    3    8   20     -2.13      0.00
    4    8   20     -2.38      0.00
    5    8   20    -13.66      0.00
    6    8   20      2.29      0.00
    7    8   20      3.81      0.00
    8    8   20      8.74      0.00
    1    9   20     13.03      0.00
    2    9   20    -32.22      0.00
    3    9   20     -0.53      0.00
    4    9   20     10.10      0.00
    5    9   20     -5.45      0.00
    6    9   20      8.64      0.00
    7    9   20     -9.73      0.00
    8    9   20     -1.21      0.00
    9    9   20     13.25      0.00
    0   10   20     -5.17      0.00
    1   10   20     16.53      0.00
    2   10   20      0.87      0.00
    3   10   20      4.00      0.00
    4   10   20      3.23      0.00
    5   10   20     -4.34      0.00
    6   10   20     -1.37      0.00
    7   10   20      2.06      0.00
    8   10   20     10.08      0.00
    9   10   20    -10.36      0.00
   10   10   20      3.70      0.00
    1   11   20     -9.43      0.00
    2   11   20      7.54      0.00
    3   11   20     -7.84      0.00
    4   11   20     -5.68      0.00
    5   11   20      4.86      0.00
    6   11   20     11.26      0.00
    7   11   20      0.28      0.00
    8   11   20     -2.66      0.00
    9   11   20     -7.19      0.00
   10   11   20     -2.91      0.00
   11   11   20     -4.94      0.00
    0   12   20      3.45      0.00
    1   12   20     -9.51      0.00
    2   12   20    -15.12      0.00
    3   12   20      0.46      0.00
    4   12   20      7.35      0.00
    5   12   20     -5.14      0.00
    6   12   20      6.18      0.00
    7   12   20      9.50      0.00
    8   12   20      2.69      0.00
    9   12   20     -5.08      0.00
   10   12   20     18.22      0.00
   11   12   20    -26.09      0.00
   12   12   20    -13.59      0.00
    1   13   20      4.46      0.00
    2   13   20    -17.46      0.00
    3   13   20     -6.98      0.00
    4   13   20      8.98      0.00
    5   13   20      5.85      0.00
    6   13   20     -3.36      0.00
    7   13   20      0.49      0.00
    8   13   20    -12.69      0.00
    9   13   20     -5.01      0.00
   10   13   20      0.21      0.00
   11   13   20      3.08      0.00
    0   14   20    -12.25      0.00
    1   14   20     -0.55      0.00
    2   14   20     15.90      0.00
    3   14   20      8.53      0.00
    4   14   20      1.36      0.00
    5   14   20      8.78      0.00
    6   14   20    -24.80      0.00
    7   14   20     15.27      0.00
    8   14   20      3.61      0.00
    9   14   20     -5.34      0.00
   10   14   20     -1.20      0.00
   11   14   20     29.44      0.00
    1   15   20      0.98      0.00
    7   15   20      6.67      0.00
    8   15   20     12.22      0.00
    9   15   20    -23.93      0.00
   10   15   20      0.49      0.00
    0   16   20      4.92      0.00
    1   16   20     15.97      0.00
    1   17   20    -11.27      0.00
    2   17   20     -9.75      0.00
    1   18   20     -5.80      0.00
    0    1   21     10.57      0.00
    1    2   21      7.13      0.00
    0    3   21      7.72      0.00
    1    3   21     -9.75      0.00
    2    3   21      3.50      0.00
    1    4   21     -0.56      0.00
    2    4   21     -4.53      0.00
    3    4   21      6.12      0.00
    0    5   21      1.14      0.00
    1    5   21     -1.05      0.00
    2    5   21      9.28      0.00
    3    5   21      0.05      0.00
    1    6   21      9.53      0.00
    2    6   21    -11.64      0.00
    3    6   21      1.14      0.00
    4    6   21     -1.40      0.00
    5    6   21     -3.22      0.00
    0    7   21    -23.17      0.00
    1    7   21     13.60      0.00
    2    7   21    -28.91      0.00
    3    7   21     -3.80      0.00
    4    7   21    -10.12      0.00
    5    7   21     -6.13      0.00
    6    7   21      6.84      0.00
    1    8   21      8.39      0.00
    2    8   21     16.23      0.00
    3    8   21     -5.67      0.00
    4    8   21      6.92      0.00
    5    8   21     -1.07      0.00
    6    8   21     -7.29      0.00
    7    8   21      6.99      0.00
    0    9   21    -72.47      0.00
    1    9   21     -3.14      0.00
    2    9   21     -4.17      0.00
    3    9   21     15.18      0.00
    4    9   21     -1.89      0.00
    5    9   21     -6.60      0.00
    6    9   21      2.20      0.00
    7    9   21      6.68      0.00
    8    9   21     -3.03      0.00
    1   10   21      2.65      0.00
    2   10   21     12.85      0.00
    3   10   21     -0.56      0.00
    4   10   21      3.82      0.00
    5   10   21     -6.55      0.00
    6   10   21     -5.56      0.00
    7   10   21     -2.65      0.00
    8   10   21     -4.87      0.00
    9   10   21      4.67      0.00
    0   11   21      7.47      0.00
    1   11   21    -15.44      0.00
    2   11   21      1.84      0.00
    3   11   21     -8.22      0.00
    4   11   21      4.59      0.00
    5   11   21     -4.61      0.00
    6   11   21      1.55      0.00
    7   11   21     -0.59      0.00
    8   11   21     -7.80      0.00
    9   11   21      6.10      0.00
   10   11   21      8.58      0.00
    1   12   21     -3.43      0.00
    2   12   21    -15.60      0.00
    3   12   21      4.92      0.00
    4   12   21     -6.63      0.00
    5   12   21     10.31      0.00
    6   12   21     -6.51      0.00
    7   12   21      3.46      0.00
    8   12   21     -1.57      0.00
    9   12   21      9.81      0.00
   10   12   21     11.18      0.00
   11   12   21     -8.45      0.00
    0   13   21     22.38      0.00
    1   13   21      9.11      0.00
    2   13   21    -17.67      0.00
    3   13   21      1.24      0.00
    4   13   21      4.31      0.00
    5   13   21      3.90      0.00
    6   13   21      4.55      0.00
    7   13   21    -40.74      0.00
    8   13   21     16.21      0.00
    9   13   21     -7.57      0.00
   10   13   21     -7.21      0.00
   11   13   21     -5.37      0.00
    1   14   21    -15.30      0.00
    2   14   21     -5.96      0.00
    3   14   21    -16.55      0.00
    4   14   21      8.84      0.00
    5   14   21      3.86      0.00
    6   14   21     -8.39      0.00
    7   14   21      4.40      0.00
    8   14   21      6.63      0.00
    9   14   21     11.23      0.00
   10   14   21     -7.22      0.00
    0   15   21     -3.49      0.00
    1   15   21      9.97      0.00
    5   15   21     -1.78      0.00
    6   15   21     15.40      0.00
    7   15   21     11.85      0.00
    8   15   21      4.75      0.00
    9   15   21      7.00      0.00
    1   16   21     -9.93      0.00
    0   17   21      4.28      0.00
    1   17   21     -5.14      0.00
    1    1   22    -14.19      0.00
    0    2   22    -13.34      0.00
    1    2   22     10.71      0.00
    2    2   22    -14.85      0.00
    1    3   22     -6.97      0.00
    2    3   22      5.29      0.00
    3    3   22     13.77      0.00
    0    4   22      6.18      0.00
    1    4   22     23.96      0.00
    2    4   22     -0.68      0.00
    3    4   22     -2.08      0.00
    4    4   22      7.51      0.00
    1    5   22      0.87      0.00
    2    5   22     -6.36      0.00
    3    5   22      7.90      0.00
    4    5   22    -25.73      0.00
    5    5   22      0.61      0.00
    0    6   22     -8.00      0.00
    1    6   22    -14.86      0.00
    2    6   22      2.81      0.00
    3    6   22      3.36      0.00
    4    6   22     10.27      0.00
    5    6   22     -4.72      0.00
    6    6   22     -2.61      0.00
    1    7   22     -4.78      0.00
    2    7   22      5.63      0.00
    3    7   22     -2.15      0.00
    4    7   22     -4.45      0.00
    5    7   22     -2.44      0.00
    6    7   22      0.94      0.00
    7    7   22      9.05      0.00
    0    8   22    -16.33      0.00
    1    8   22      5.54      0.00
    2    8   22     -7.51      0.00
    3    8   22     -1.97      0.00
    4    8   22      9.27      0.00
    5    8   22      1.89      0.00
    6    8   22     -8.41      0.00
    7    8   22     -9.94      0.00
    8    8   22     22.79      0.00
    1    9   22      8.36      0.00
    2    9   22     -8.39      0.00
    3    9   22     19.04      0.00
    4    9   22      7.10      0.00
    5    9   22    -12.41      0.00
    6    9   22     -0.29      0.00
    7    9   22    -27.05      0.00
    8    9   22      3.29      0.00
    9    9   22     11.80      0.00
    0   10   22      9.66      0.00
    1   10   22     11.67      0.00
    2   10   22     -4.71      0.00
    3   10   22    -12.45      0.00
    4   10   22     -8.04      0.00
    5   10   22    -12.42      0.00
    6   10   22      6.74      0.00
    7   10   22     -1.24      0.00
    8   10   22      5.07      0.00
    9   10   22     -4.61      0.00
   10   10   22      5.17      0.00
    1   11   22      6.91      0.00
    2   11   22     -1.23      0.00
    3   11   22    -18.49      0.00
    4   11   22      4.97      0.00
    5   11   22     -9.83      0.00
    6   11   22      8.47      0.00
    7   11   22      7.64      0.00
    8   11   22     -2.98      0.00
    9   11   22    -38.75      0.00
   10   11   22     -6.88      0.00
   11   11   22     13.84      0.00
    0   12   22    -33.49      0.00
    1   12   22    -11.39      0.00
    2   12   22     11.13      0.00
    3   12   22      5.87      0.00
    4   12   22     -4.37      0.00
    5   12   22     -1.49      0.00
    6   12   22      4.05      0.00
    7   12   22      6.55      0.00
    8   12   22      4.64      0.00
    9   12   22     -0.33      0.00
   10   12   22     -4.30      0.00
   11   12   22      7.71      0.00
    1   13   22     -4.61      0.00
    2   13   22      3.03      0.00
    3   13   22      5.05      0.00
    4   13   22    -16.45      0.00
    5   13   22    -15.48      0.00
    6   13   22    -13.42      0.00
    7   13   22      6.80      0.00
    8   13   22      1.99      0.00
    9   13   22     -5.18      0.00
   10   13   22     -3.26      0.00
    2   14   22      4.46      0.00
    3   14   22     13.86      0.00
    4   14   22    -11.87      0.00
    5   14   22      3.80      0.00
    6   14   22    -19.48      0.00
    7   14   22     15.52      0.00
    8   14   22      7.34      0.00
    9   14   22    -19.38      0.00
    3   15   22    -11.58      0.00
    4   15   22      2.76      0.00
    5   15   22      6.47      0.00
    6   15   22      6.54      0.00
    7   15   22      3.86      0.00
    8   15   22      2.47      0.00
    0    1   23      5.47      0.00
    1    2   23     -3.03      0.00
    0    3   23     -1.72      0.00
    1    3   23     -5.07      0.00
    2    3   23     -8.77      0.00
    1    4   23    -12.99      0.00
    2    4   23     10.10      0.00
    3    4   23      0.44      0.00
    0    5   23     12.46      0.00
    1    5   23     10.84      0.00
    2    5   23     -1.06      0.00
    3    5   23      9.59      0.00
    4    5   23    -26.83      0.00
    1    6   23     14.45      0.00
    2    6   23    -26.13      0.00
    3    6   23      0.58      0.00
    4    6   23      7.44      0.00
    5    6   23      0.44      0.00
    0    7   23     -6.68      0.00
    1    7   23    -12.75      0.00
    2    7   23    -13.12      0.00
    3    7   23     12.72      0.00
    4    7   23     -4.58      0.00
    5    7   23     -5.50      0.00
    6    7   23     13.03      0.00
    1    8   23     24.61      0.00
    2    8   23      9.91      0.00
    3    8   23      4.24      0.00
    4    8   23     -0.01      0.00
    5    8   23      5.04      0.00
    6    8   23      1.24      0.00
    7    8   23     -8.43      0.00
    0    9   23      5.76      0.00
    1    9   23     -5.32      0.00
    2    9   23     -0.59      0.00
    3    9   23     -7.63      0.00
    4    9   23     -7.78      0.00
    5    9   23    -11.19      0.00
    6    9   23      6.57      0.00
    7    9   23     11.51      0.00
    8    9   23      7.00      0.00
    1   10   23      7.70      0.00
    2   10   23     -2.35      0.00
    3   10   23     -1.62      0.00
    4   10   23      8.78      0.00
    5   10   23      0.48      0.00
    6   10   23     14.66      0.00
    7   10   23     -7.08      0.00
    8   10   23    -10.84      0.00
    9   10   23     14.44      0.00
    0   11   23     -2.56      0.00
    1   11   23      6.32      0.00
    2   11   23     -9.87      0.00
    3   11   23     -5.32      0.00
    4   11   23      4.72      0.00
    5   11   23     17.99      0.00
    6   11   23      1.29      0.00
    7   11   23      5.65      0.00
    8   11   23     -1.33      0.00
    9   11   23      5.04      0.00
   10   11   23      0.37      0.00
    1   12   23     -8.11      0.00
    2   12   23     -1.40      0.00
    3   12   23     10.10      0.00
    4   12   23      3.65      0.00
    5   12   23     -0.37      0.00
    6   12   23      1.11      0.00
    7   12   23     -4.52      0.00
    8   12   23      3.83      0.00
    9   12   23     -1.66      0.00
   10   12   23     19.76      0.00
    2   13   23      0.06      0.00
    3   13   23     17.38      0.00
    4   13   23      6.36      0.00
    5   13   23      2.79      0.00
    6   13   23     -1.17      0.00
    7   13   23    -10.85      0.00
    8   13   23      0.56      0.00
    9   13   23      3.84      0.00
    2   14   23     -5.00      0.00
    3   14   23     -3.80      0.00
    4   14   23      8.77      0.00
    5   14   23      2.81      0.00
    6   14   23     -5.55      0.00
    7   14   23      4.86      0.00
    8   14   23     -1.08      0.00
    3   15   23    -14.43      0.00
    4   15   23     -0.08      0.00
    5   15   23     -0.87      0.00
    6   15   23      5.35      0.00
    7   15   23      6.27      0.00
    1    1   24     25.51      0.00
    0    2   24     27.85      0.00
    1    2   24     -4.08      0.00
    2    2   24     15.33      0.00
    1    3   24     19.58      0.00
    2    3   24    -11.01      0.00
    3    3   24     22.81      0.00
    1    4   24     -0.62      0.00
    2    4   24    -28.20      0.00
    3    4   24    -16.70      0.00
    4    4   24     12.63      0.00
    1    5   24    -42.19      0.00
    2    5   24     18.36      0.00
    3    5   24      9.22      0.00
    4    5   24    -12.31      0.00
    5    5   24      1.67      0.00
    0    6   24    -23.50      0.00
    1    6   24     12.04      0.00
    2    6   24     -4.16      0.00
    3    6   24     12.28      0.00
    4    6   24      6.85      0.00
    5    6   24     31.81      0.00
    6    6   24      6.47      0.00
    1    7   24     -0.79      0.00
    2    7   24     -5.93      0.00
    3    7   24     -1.45      0.00
    4    7   24      6.15      0.00
    5    7   24      6.52      0.00
    6    7   24      8.03      0.00
    7    7   24    -19.86      0.00
    0    8   24      7.49      0.00
    1    8   24     11.55      0.00
    2    8   24    -10.80      0.00
    3    8   24     -7.45      0.00
    4    8   24     -0.27      0.00
    5    8   24     -3.76      0.00
    6    8   24      8.84      0.00
    7    8   24      2.76      0.00
    8    8   24      3.01      0.00
    1    9   24     -2.10      0.00
    2    9   24     13.90      0.00
    3    9   24     -1.50      0.00
    4    9   24     10.80      0.00
    5    9   24     -9.80      0.00
    6    9   24     -3.01      0.00
    7    9   24     -6.33      0.00
    8    9   24      8.41      0.00
    9    9   24     -6.35      0.00
    0   10   24     -7.22      0.00
    1   10   24     20.72      0.00
    2   10   24      1.85      0.00
    3   10   24     -8.92      0.00
    4   10   24      0.07      0.00
    5   10   24     -9.88      0.00
    6   10   24     -2.24      0.00
    7   10   24     -1.36      0.00
    8   10   24     10.64      0.00
    9   10   24      5.35      0.00
   10   10   24     -7.54      0.00
    1   11   24      5.56      0.00
    2   11   24      2.68      0.00
    3   11   24     13.34      0.00
    4   11   24     -1.36      0.00
    5   11   24     13.78      0.00
    6   11   24     -4.77      0.00
    7   11   24    -29.65      0.00
    8   11   24     -1.34      0.00
    9   11   24      4.55      0.00
   10   11   24    -11.96      0.00
    0   12   24    -12.08      0.00
    1   12   24     -8.33      0.00
    2   12   24     10.56      0.00
    3   12   24      3.41      0.00
    4   12   24      0.59      0.00
    5   12   24      0.14      0.00
    6   12   24      2.31      0.00
    7   12   24     -9.87      0.00
    8   12   24     -9.33      0.00
    9   12   24      3.66      0.00
    1   13   24     12.65      0.00
    2   13   24    -63.35      0.00
    3   13   24      0.01      0.00
    4   13   24      4.60      0.00
    5   13   24      1.33      0.00
    6   13   24      2.42      0.00
    7   13   24      3.13      0.00
    8   13   24     10.15      0.00
    2   14   24      8.69      0.00
    3   14   24     -8.67      0.00
    4   14   24     16.92      0.00
    5   14   24      1.34      0.00
    6   14   24      1.09      0.00
    7   14   24     14.36      0.00
    2   15   24      1.72      0.00
    3   15   24    -10.71      0.00
    4   15   24      4.25      0.00
    5   15   24     -2.02      0.00
    6   15   24      3.18      0.00
    1    2   25    -20.98      0.00
    1    3   25     -5.43      0.00
    2    3   25     10.97      0.00
    1    4   25     21.63      0.00
    2    4   25     -8.96      0.00
    3    4   25      2.87      0.00
    0    5   25     80.57      0.00
    1    5   25     -4.44      0.00
    2    5   25    -10.61      0.00
    3    5   25     -3.00      0.00
    4    5   25     13.23      0.00
    1    6   25     40.31      0.00
    2    6   25     -9.95      0.00
    3    6   25      1.36      0.00
    4    6   25     -1.85      0.00
    5    6   25     -9.76      0.00
    0    7   25     -9.91      0.00
    1    7   25     14.03      0.00
    2    7   25     14.98      0.00
    3    7   25     -8.81      0.00
    4    7   25    -11.48      0.00
    5    7   25    -11.72      0.00
    6    7   25      1.73      0.00
    1    8   25     -8.95      0.00
    2    8   25     13.17      0.00
    3    8   25     14.87      0.00
    4    8   25      2.56      0.00
    5    8   25      6.78      0.00
    6    8   25     -1.99      0.00
    7    8   25      5.01      0.00
    0    9   25     -6.74      0.00
    1    9   25    -25.91      0.00
    2    9   25      8.54      0.00
    3    9   25     -1.48      0.00
    4    9   25     13.81      0.00
    5    9   25     -6.73      0.00
    6    9   25     -8.32      0.00
    7    9   25      1.41      0.00
    8    9   25      6.48      0.00
    1   10   25     -3.99      0.00
    2   10   25     -5.66      0.00
    3   10   25     12.86      0.00
    4   10   25      8.38      0.00
    5   10   25     -2.66      0.00
    6   10   25     -8.36      0.00
    7   10   25      0.24      0.00
    8   10   25      4.14      0.00
    9   10   25    -13.61      0.00
    0   11   25      9.72      0.00
    1   11   25     12.09      0.00
    2   11   25    -10.93      0.00
    3   11   25     -4.62      0.00
    4   11   25     -8.28      0.00
    5   11   25     -4.55      0.00
    6   11   25     38.14      0.00
    7   11   25     -7.84      0.00
    8   11   25      0.39      0.00
    9   11   25     -6.25      0.00
    1   12   25     14.91      0.00
    2   12   25      8.09      0.00
    3   12   25     -2.40      0.00
    4   12   25    -10.87      0.00
    5   12   25     -7.72      0.00
    6   12   25     10.45      0.00
    7   12   25     -5.22      0.00
    8   12   25    -11.87      0.00
    0   13   25      1.63      0.00
    1   13   25     11.20      0.00
    2   13   25     -8.87      0.00
    3   13   25      0.41      0.00
    4   13   25     -0.05      0.00
    5   13   25      3.73      0.00
    6   13   25     -4.78      0.00
    7   13   25     12.94      0.00
    3   14   25     -6.62      0.00
    4   14   25      6.28      0.00
    5   14   25     -1.53      0.00
    6   14   25      7.75      0.00
    3   15   25      0.98      0.00
    4   15   25      9.15      0.00
    0    2   26     -7.46      0.00
    1    2   26      8.75      0.00
    2    2   26    -24.55      0.00
    1    3   26      3.75      0.00
    2    3   26      1.38      0.00
    3    3   26      0.19      0.00
    0    4   26      1.52      0.00
    1    4   26      0.83      0.00
    2    4   26     10.90      0.00
    3    4   26    -19.53      0.00
    4    4   26    -16.50      0.00
    1    5   26     -7.05      0.00
    2    5   26      0.69      0.00
    3    5   26      1.79      0.00
    4    5   26    -16.67      0.00
    5    5   26     -1.30      0.00
    0    6   26    -21.16      0.00
    1    6   26     -7.41      0.00
    2    6   26     17.05      0.00
    3    6   26      2.89      0.00
    4    6   26     -1.10      0.00
    5    6   26     -7.46      0.00
    6    6   26      3.71      0.00
    1    7   26     -7.74      0.00
    2    7   26     -4.92      0.00
    3    7   26     -7.01      0.00
    4    7   26    -16.08      0.00
    5    7   26     -8.60      0.00
    6    7   26      2.04      0.00
    7    7   26      1.48      0.00
    0    8   26     20.91      0.00
    1    8   26    -28.90      0.00
    2    8   26     -0.66      0.00
    3    8   26      7.45      0.00
    4    8   26    -13.61      0.00
    5    8   26      1.53      0.00
    6    8   26     11.27      0.00
    7    8   26     -5.61      0.00
    8    8   26      2.82      0.00
    1    9   26     -2.11      0.00
    2    9   26     -9.09      0.00
    3    9   26      4.28      0.00
    4    9   26     -8.00      0.00
    5    9   26      2.76      0.00
    6    9   26      5.57      0.00
    7    9   26     -7.34      0.00
    8    9   26      1.15      0.00
    9    9   26     -4.10      0.00
    0   10   26     17.80      0.00
    1   10   26     10.43      0.00
    2   10   26     -8.19      0.00
    3   10   26     -3.22      0.00
    4   10   26    -10.09      0.00
    5   10   26      6.29      0.00
    6   10   26     21.67      0.00
    7   10   26     -8.93      0.00
    8   10   26      8.57      0.00
    9   10   26     17.08      0.00
    1   11   26     -0.77      0.00
    2   11   26      5.15      0.00
    3   11   26     -4.38      0.00
    4   11   26     35.90      0.00
    5   11   26     -8.97      0.00
    6   11   26     10.51      0.00
    7   11   26     -5.13      0.00
    8   11   26     14.16      0.00
    0   12   26     12.88      0.00
    1   12   26      6.94      0.00
    2   12   26      8.45      0.00
    3   12   26      4.30      0.00
    4   12   26     -5.85      0.00
    5   12   26     -7.75      0.00
    6   12   26    -10.57      0.00
    7   12   26      3.14      0.00
    1   13   26     -3.32      0.00
    2   13   26    -13.65      0.00
    3   13   26     12.19      0.00
    4   13   26    -16.30      0.00
    5   13   26     -1.08      0.00
    6   13   26    -20.44      0.00
    3   14   26      7.90      0.00
    4   14   26     -4.68      0.00
    1    2   27     20.29      0.00
    0    3   27     19.07      0.00
    1    3   27     26.01      0.00
    2    3   27    -19.86      0.00
    1    4   27     -8.65      0.00
    2    4   27      5.32      0.00
    3    4   27     -3.01      0.00
    0    5   27    -42.99      0.00
    1    5   27      6.12      0.00
    2    5   27     -7.24      0.00
    3    5   27    -10.96      0.00
    4    5   27     -9.59      0.00
    1    6   27    -19.11      0.00
    2    6   27     17.59      0.00
    3    6   27     24.95      0.00
    4    6   27     14.48      0.00
    5    6   27      0.46      0.00
    0    7   27      9.48      0.00
    1    7   27     -3.44      0.00
    2    7   27    -16.89      0.00
    3    7   27    -13.42      0.00
    4    7   27      3.15      0.00
    5    7   27     12.42      0.00
    6    7   27    -10.23      0.00
    1    8   27     -5.45      0.00
    2    8   27      8.13      0.00
    3    8   27     -2.60      0.00
    4    8   27      2.48      0.00
    5    8   27     14.62      0.00
    6    8   27      6.77      0.00
    7    8   27     -7.37      0.00
    0    9   27     20.27      0.00
    1    9   27      7.54      0.00
    2    9   27    -10.57      0.00
    3    9   27      1.74      0.00
    4    9   27     -7.05      0.00
    5    9   27     -9.12      0.00
    6    9   27     -5.29      0.00
    7    9   27     -4.71      0.00
    8    9   27    -21.53      0.00
    1   10   27    -10.83      0.00
    2   10   27     -1.71      0.00
    3   10   27     -7.17      0.00
    4   10   27     -4.38      0.00
    5   10   27    -10.33      0.00
    6   10   27     -3.87      0.00
    7   10   27     -9.29      0.00
    8   10   27      3.82      0.00
    0   11   27    -44.77      0.00
    1   11   27     -7.13      0.00
    2   11   27      0.10      0.00
    3   11   27     -6.26      0.00
    4   11   27     -0.36      0.00
    5   11   27    -16.50      0.00
    6   11   27      4.44      0.00
    7   11   27     -2.50      0.00
    1   12   27      6.41      0.00
    2   12   27      3.49      0.00
    3   12   27     -1.94      0.00
    4   12   27     -0.93      0.00
    5   12   27     -6.79      0.00
    6   12   27     10.29      0.00
    0   13   27      6.24      0.00
    1   13   27    -26.57      0.00
    2   13   27     -7.60      0.00
    3   13   27     -8.01      0.00
    4   13   27    -11.46      0.00
    0    2   28     23.23      0.00
    1    2   28      3.37      0.00
    2    2   28     18.23      0.00
    1    3   28    -15.97      0.00
    2    3   28      7.00      0.00
    3    3   28      3.36      0.00
    0    4   28     13.13      0.00
    1    4   28     -9.81      0.00
    2    4   28      1.56      0.00
    3    4   28     12.36      0.00
    4    4   28     10.43      0.00
    1    5   28      3.73      0.00
    2    5   28    -18.61      0.00
    3    5   28    -20.27      0.00
    4    5   28     18.41      0.00
    5    5   28      0.86      0.00
    0    6   28     -1.48      0.00
    1    6   28      2.89      0.00
    2    6   28     -0.28      0.00
    3    6   28      5.15      0.00
    4    6   28     -4.49      0.00
    5    6   28      3.07      0.00
    6    6   28    -14.90      0.00
    1    7   28    -12.30      0.00
    2    7   28     20.13      0.00
    3    7   28     -1.11      0.00
    4    7   28     -2.86      0.00
    5    7   28      2.03      0.00
    6    7   28     17.15      0.00
    7    7   28     -9.56      0.00
    0    8   28     11.04      0.00
    1    8   28     10.90      0.00
    2    8   28      6.26      0.00
    3    8   28     13.11      0.00
    4    8   28    -19.25      0.00
    5    8   28      5.47      0.00
    6    8   28     30.23      0.00
    7    8   28     -1.89      0.00
    8    8   28      2.77      0.00
    1    9   28    -17.76      0.00
    2    9   28    -19.97      0.00
    3    9   28     12.95      0.00
    4    9   28     -1.69      0.00
    5    9   28     -5.75      0.00
    6    9   28     18.25      0.00
    7    9   28      5.16      0.00
    8    9   28     -3.47      0.00
    0   10   28    -11.77      0.00
    1   10   28     25.19      0.00
    2   10   28     21.77      0.00
    3   10   28     -7.95      0.00
    4   10   28     -0.75      0.00
    5   10   28    -18.10      0.00
    6   10   28     12.06      0.00
    7   10   28    -10.67      0.00
    1   11   28    -16.43      0.00
    2   11   28      6.45      0.00
    3   11   28      4.77      0.00
    4   11   28     24.16      0.00
    5   11   28     -4.50      0.00
    6   11   28    -12.52      0.00
    0   12   28      6.48      0.00
    1   12   28      6.11      0.00
    2   12   28      7.98      0.00
    3   12   28     -3.85      0.00
    4   12   28      0.46      0.00
    1   13   28    -13.69      0.00
    2   13   28     -3.25      0.00
    1    2   29     -7.29      0.00
    0    3   29      2.55      0.00
    1    3   29      0.88      0.00
    2    3   29      0.46      0.00
    1    4   29      4.05      0.00
    2    4   29     -4.07      0.00
    3    4   29      1.83      0.00
    0    5   29    -13.31      0.00
    1    5   29      7.61      0.00
    2    5   29     -2.30      0.00
    3    5   29     11.77      0.00
    4    5   29      0.92      0.00
    1    6   29      5.45      0.00
    2    6   29     16.80      0.00
    3    6   29     17.96      0.00
    4    6   29      3.39      0.00
    5    6   29     15.99      0.00
    0    7   29    -13.86      0.00
    1    7   29    -12.27      0.00
    2    7   29     -4.82      0.00
    3    7   29     -1.16      0.00
    4    7   29     -4.80      0.00
    5    7   29      0.80      0.00
    6    7   29     -6.72      0.00
    1    8   29     17.79      0.00
    2    8   29     13.14      0.00
    3    8   29     -4.74      0.00
    4    8   29     -5.84      0.00
    5    8   29    -13.44      0.00
    6    8   29     -6.63      0.00
    7    8   29      3.86      0.00
    0    9   29     53.40      0.00
    1    9   29    -49.53      0.00
    3    9   29      4.28      0.00
    4    9   29      2.42      0.00
    5    9   29      7.45      0.00
    6    9   29     -8.67      0.00
    7    9   29    -10.68      0.00
    1   10   29     -4.85      0.00
    2   10   29     -6.21      0.00
    3   10   29     13.87      0.00
    4   10   29    -10.16      0.00
    5   10   29     13.16      0.00
    6   10   29     34.72      0.00
    0   11   29      4.76      0.00
    1   11   29     14.84      0.00
    2   11   29    -11.13      0.00
    3   11   29      2.66      0.00
    4   11   29     -3.66      0.00
    1   12   29      9.30      0.00
    2   12   29     -2.19      0.00
    3   12   29     18.87      0.00
    1   13   29     23.54      0.00
    1    3   30    -12.31      0.00
    2    3   30    -12.49      0.00
    3    3   30     -8.09      0.00
    0    4   30     -5.04      0.00
    1    4   30    -12.59      0.00
    2    4   30    -19.81      0.00
    3    4   30    -19.95      0.00
    4    4   30      8.81      0.00
    1    5   30      6.46      0.00
    2    5   30    -26.37      0.00
    3    5   30     13.45      0.00
    4    5   30     -9.46      0.00
    5    5   30     38.59      0.00
    0    6   30     15.60      0.00
    1    6   30    -10.48      0.00
    2    6   30     12.87      0.00
    3    6   30     10.98      0.00
    4    6   30     17.07      0.00
    5    6   30    -47.41      0.00
    6    6   30     -0.93      0.00
    1    7   30      1.12      0.00
    2    7   30     13.39      0.00
    3    7   30     -2.65      0.00
    4    7   30    -24.66      0.00
    5    7   30      1.14      0.00
    6    7   30      4.99      0.00
    7    7   30     -8.45      0.00
    0    8   30     41.72      0.00
    2    8   30    -12.60      0.00
    3    8   30     -8.21      0.00
    4    8   30     -0.42      0.00
    5    8   30     -5.73      0.00
    6    8   30     -0.82      0.00
    7    8   30     -2.75      0.00
    1    9   30     -6.65      0.00
    2    9   30    -15.80      0.00
    3    9   30      7.13      0.00
    4    9   30     -7.91      0.00
    5    9   30     -5.30      0.00
    6    9   30     25.23      0.00
    0   10   30      4.80      0.00
    1   10   30      1.72      0.00
    2   10   30     -3.49      0.00
    3   10   30      2.66      0.00
    4   10   30     -5.27      0.00
    1   11   30     -9.44      0.00
    2   11   30     -2.02      0.00
    3   11   30      2.28      0.00
    1   12   30     14.75      0.00
    0    3   31     25.12      0.00
    1    3   31    -18.55      0.00
    2    3   31     18.12      0.00
    1    4   31     15.05      0.00
    2    4   31      1.37      0.00
    3    4   31     25.16      0.00
    0    5   31     19.36      0.00
    1    5   31     -2.35      0.00
    2    5   31      7.83      0.00
    3    5   31      9.55      0.00
    4    5   31    -61.77      0.00
    1    6   31      3.34      0.00
    2    6   31    -31.28      0.00
    3    6   31    -12.95      0.00
    4    6   31     17.30      0.00
    5    6   31      1.88      0.00
    0    7   31    -10.89      0.00
    1    7   31     14.22      0.00
    2    7   31     -9.70      0.00
    3    7   31      1.77      0.00
    4    7   31      6.67      0.00
    5    7   31      1.17      0.00
    6    7   31      7.70      0.00
    1    8   31     -2.78      0.00
    2    8   31      5.34      0.00
    3    8   31      3.15      0.00
    4    8   31     21.21      0.00
    5    8   31     -3.25      0.00
    0    9   31      0.04      0.00
    1    9   31      0.51      0.00
    2    9   31     -3.34      0.00
    3    9   31      9.84      0.00
    4    9   31      0.45      0.00
    1   10   31      4.05      0.00
    2   10   31     -0.76      0.00
    3   10   31     -1.32      0.00
    1   11   31     20.65      0.00
    2   11   31      9.08      0.00
    1    3   32    -15.09      0.00
    0    4   32     -3.33      0.00
    1    4   32      9.52      0.00
    2    4   32    -53.25      0.00
    3    4   32      5.29      0.00
    4    4   32      5.70      0.00
    1    5   32      8.23      0.00
    2    5   32     15.11      0.00
    3    5   32     16.64      0.00
    4    5   32     15.40      0.00
    5    5   32     -6.92      0.00
    0    6   32     14.03      0.00
    1    6   32    -16.37      0.00
    2    6   32    -11.55      0.00
    3    6   32     14.47      0.00
    4    6   32     11.27      0.00
    5    6   32     -1.87      0.00
    6    6   32    -24.11      0.00
    1    7   32     -9.25      0.00
    2    7   32      1.92      0.00
    3    7   32      6.47      0.00
    4    7   32    -10.20      0.00
    5    7   32     -6.81      0.00
    0    8   32    -17.89      0.00
    1    8   32      3.67      0.00
    2    8   32    -10.11      0.00
    3    8   32    -11.89      0.00
    4    8   32     -4.86      0.00
    1    9   32     -1.76      0.00
    2    9   32     15.83      0.00
    3    9   32     19.49      0.00
    1   10   32      6.01      0.00
    2   10   32      5.33      0.00
    1    4   33    -43.17      0.00
    2    4   33     10.44      0.00
    3    4   33     -0.47      0.00
    0    5   33    -10.29      0.00
    1    5   33     11.35      0.00
    2    5   33     12.83      0.00
    3    5   33     -2.67      0.00
    4    5   33    -13.55      0.00
    1    6   33      2.79      0.00
    2    6   33    -17.76      0.00
    3    6   33    -14.29      0.00
    4    6   33      3.70      0.00
    0    7   33      3.39      0.00
    1    7   33      6.26      0.00
    2    7   33    -17.91      0.00
    3    7   33      7.76      0.00
    4    7   33      5.23      0.00
    1    8   33      0.28      0.00
    2    8   33    -14.10      0.00
    3    8   33     16.12      0.00
    1    9   33      3.34      0.00
    0    4   34     21.94      0.00
    1    4   34      5.52      0.00
    2    4   34     -8.06      0.00
    3    4   34     -9.09      0.00
    4    4   34      4.04      0.00
    1    5   34     13.49      0.00
    2    5   34      9.33      0.00
    3    5   34     18.10      0.00
    4    5   34      6.40      0.00
    1    6   34      6.35      0.00
    2    6   34     -0.07      0.00
    3    6   34      8.30      0.00
    1    7   34      9.39      0.00
    2    7   34      9.90      0.00
    1    8   34    -15.39      0.00
    1    5   35     -4.28      0.00
    2    5   35     -8.95      0.00
    1    6   35      9.14      0.00
    1    7   35      4.38      0.00
    1    1    0   -131.64      0.00
    1    2    0    263.02      0.00
    2    2    0    232.80      0.00
    3    3    0    168.15      0.00
    4    4    0     26.91      0.00
    4    5    0     48.43      0.00
    5    5    0     78.86      0.00
    5    6    0    -22.06      0.00
    6    6    0     59.72      0.00
    5    7    0    -57.52      0.00
    6    7    0     -4.94      0.00
    7    7    0     45.46      0.00
    6    8    0      3.41      0.00
    7    8    0    -15.44      0.00
    8    8    0    -25.72      0.00
    6    9    0    -16.54      0.00
    7    9    0    -13.31      0.00
    8    9    0      5.52      0.00
    9    9    0     26.57      0.00
    7   10    0     -4.07      0.00
    8   10    0     12.23      0.00
    9   10    0    -19.53      0.00
   10   10    0      8.21      0.00
    7   11    0    -24.41      0.00
    8   11    0    -12.85      0.00
    9   11    0     15.35      0.00
   10   11    0     -7.38      0.00
   11   11    0    -10.85      0.00
    7   12    0     17.34      0.00
    8   12    0     -5.19      0.00
    9   12    0    -18.56      0.00
   10   12    0    -11.76      0.00
   11   12    0    -24.82      0.00
   12   12    0     29.64      0.00
    6   13    0    -19.04      0.00
    7   13    0     31.45      0.00
    8   13    0    -25.58      0.00
    9   13    0    -29.86      0.00
   10   13    0      4.90      0.00
   11   13    0     -2.12      0.00
   12   13    0      2.41      0.00
   13   13    0      3.28      0.00
    8   14    0     20.56      0.00
    9   14    0     -7.60      0.00
   10   14    0      3.12      0.00
   11   14    0     13.01      0.00
   12   14    0     -3.82      0.00
   13   14    0      3.15      0.00
   14   14    0      7.10      0.00
    8   15    0    -10.49      0.00
    9   15    0     13.85      0.00
   10   15    0     -4.22      0.00
   11   15    0     26.82      0.00
   12   15    0     -2.59      0.00
   13   15    0    -10.61      0.00
   14   15    0      5.02      0.00
   15   15    0    -21.88      0.00
    8   16    0     -5.92      0.00
    9   16    0     28.65      0.00
   10   16    0    -12.91      0.00
   11   16    0     -5.71      0.00
   12   16    0      5.30      0.00
   13   16    0     -3.44      0.00
   14   16    0      1.91      0.00
    8   17    0    -49.40      0.00
    9   17    0      2.89      0.00
   10   17    0     -4.11      0.00
   11   17    0      1.93      0.00
   12   17    0      7.63      0.00
   13   17    0      4.13      0.00
    8   18    0      6.58      0.00
    9   18    0      5.72      0.00
   10   18    0      6.04      0.00
   11   18    0      2.12      0.00
   12   18    0     -4.19      0.00
    8   19    0     -4.67      0.00
    9   19    0     14.35      0.00
   10   19    0      0.70      0.00
    7   20    0    -11.44      0.00
    8   20    0     -2.65      0.00
    1   21    0      2.20      0.00
    2   21    0    -17.55      0.00
    3   21    0      4.10      0.00
    4   21    0      0.39      0.00
    5   21    0    -15.90      0.00
    0    1    1   -192.84      0.00
    4    5    1    -43.51      0.00
    5    6    1    -13.37      0.00
    6    7    1     -5.19      0.00
    6    8    1     17.82      0.00
    7    8    1      3.84      0.00
    7    9    1    -22.39      0.00
    8    9    1      0.51      0.00
    7   10    1    -17.54      0.00
    8   10    1     -1.32      0.00
    9   10    1      2.94      0.00
    7   11    1      5.18      0.00
    8   11    1     -0.44      0.00
    9   11    1     -7.58      0.00
   10   11    1      4.90      0.00
    8   12    1     15.13      0.00
    9   12    1      5.09      0.00
   10   12    1     -2.79      0.00
   11   12    1      7.88      0.00
    6   13    1      9.83      0.00
    7   13    1     -7.29      0.00
    8   13    1    -12.28      0.00
    9   13    1    -11.41      0.00
   10   13    1    -12.53      0.00
   11   13    1     12.97      0.00
   12   13    1     -4.75      0.00
    8   14    1      1.34      0.00
    9   14    1      2.46      0.00
   10   14    1    -18.49      0.00
   11   14    1     -5.86      0.00
   12   14    1      9.08      0.00
   13   14    1     13.17      0.00
    8   15    1      8.10      0.00
    9   15    1     17.04      0.00
   10   15    1     -6.14      0.00
   11   15    1     -4.24      0.00
   12   15    1      4.29      0.00
   13   15    1     -0.81      0.00
   14   15    1      1.64      0.00
    8   16    1     10.26      0.00
    9   16    1      7.93      0.00
   10   16    1    -11.23      0.00
   11   16    1     -0.21      0.00
   12   16    1     -0.45      0.00
   13   16    1     -6.60      0.00
   14   16    1     -0.36      0.00
    8   17    1      2.28      0.00
    9   17    1     13.09      0.00
   10   17    1     -2.15      0.00
   11   17    1     -5.02      0.00
   12   17    1     -7.35      0.00
   13   17    1     -5.71      0.00
    8   18    1     -4.84      0.00
    9   18    1     -7.68      0.00
   10   18    1    -10.60      0.00
   11   18    1      1.48      0.00
   12   18    1      2.12      0.00
    8   19    1     -9.03      0.00
    9   19    1    -15.65      0.00
   10   19    1      1.17      0.00
    7   20    1      2.12      0.00
    8   20    1     18.12      0.00
    0   21    1     11.34      0.00
    1   21    1     -1.80      0.00
    2   21    1    -16.78      0.00
    3   21    1      8.15      0.00
    4   21    1     13.11      0.00
    5   21    1     -9.47      0.00
    0    0    2    198.80      0.00
    4    4    2   -106.40      0.00
    4    5    2     19.93      0.00
    5    5    2    -18.37      0.00
    5    6    2    -18.22      0.00
    6    6    2    -10.94      0.00
    6    7    2     14.82      0.00
    7    7    2    -24.59      0.00
    6    8    2     18.15      0.00
    7    8    2     -5.75      0.00
    8    8    2    -15.13      0.00
    7    9    2     10.66      0.00
    8    9    2     -7.44      0.00
    9    9    2    -11.76      0.00
    7   10    2      8.65      0.00
    8   10    2     -2.24      0.00
    9   10    2     -0.73      0.00
   10   10    2    -16.48      0.00
    8   11    2     24.06      0.00
    9   11    2      0.14      0.00
   10   11    2     18.32      0.00
   11   11    2     -4.83      0.00
    8   12    2      4.19      0.00
    9   12    2      5.82      0.00
   10   12    2     16.39      0.00
   11   12    2      7.01      0.00
   12   12    2     -7.45      0.00
    7   13    2     -7.02      0.00
    8   13    2      7.65      0.00
    9   13    2     -2.45      0.00
   10   13    2      7.32      0.00
   11   13    2     -8.46      0.00
   12   13    2     15.07      0.00
   13   13    2     -3.65      0.00
    8   14    2     -3.57      0.00
    9   14    2     -1.17      0.00
   10   14    2     -4.57      0.00
   11   14    2      4.35      0.00
   12   14    2     -9.03      0.00
   13   14    2    -10.86      0.00
   14   14    2     -8.73      0.00
    8   15    2      5.94      0.00
    9   15    2     12.77      0.00
   10   15    2     -7.21      0.00
   11   15    2      2.74      0.00
   12   15    2     -2.75      0.00
   13   15    2      1.38      0.00
   14   15    2     -6.23      0.00
   15   15    2    -11.72      0.00
    8   16    2     -3.82      0.00
    9   16    2     15.95      0.00
   10   16    2     -9.53      0.00
   11   16    2     -0.37      0.00
   12   16    2     -2.74      0.00
   13   16    2     -7.26      0.00
   14   16    2     14.94      0.00
    9   17    2    -12.18      0.00
   10   17    2     -8.69      0.00
   11   17    2     -2.97      0.00
   12   17    2      6.65      0.00
   13   17    2     -1.20      0.00
    9   18    2      3.17      0.00
   10   18    2     -2.23      0.00
   11   18    2      5.56      0.00
   12   18    2      5.20      0.00
    8   19    2     -2.47      0.00
    9   19    2      3.02      0.00
   10   19    2      5.08      0.00
    8   20    2     -1.34      0.00
    1   21    2     14.04      0.00
    2   21    2     -9.66      0.00
    3   21    2      7.38      0.00
    4   21    2      6.36      0.00
    5   21    2    -22.06      0.00
    0    1    3    116.30      0.00
    6    7    3      1.49      0.00
    7    8    3    -14.63      0.00
    7    9    3      3.98      0.00
    8    9    3     13.31      0.00
    8   10    3     -8.07      0.00
    9   10    3    -15.13      0.00
    8   11    3    -13.27      0.00
    9   11    3     23.87      0.00
   10   11    3     -3.45      0.00
    8   12    3      7.12      0.00
    9   12    3     20.06      0.00
   10   12    3     -4.44      0.00
   11   12    3     -3.73      0.00
    7   13    3    -24.00      0.00
    8   13    3     -2.77      0.00
    9   13    3     13.34      0.00
   10   13    3     11.94      0.00
   11   13    3    -16.64      0.00
   12   13    3    -12.86      0.00
    9   14    3      4.70      0.00
   10   14    3      5.33      0.00
   11   14    3     25.27      0.00
   12   14    3     -3.69      0.00
   13   14    3     -1.85      0.00
    9   15    3     -6.07      0.00
   10   15    3     -3.96      0.00
   11   15    3     10.91      0.00
   12   15    3      1.63      0.00
   13   15    3     -6.29      0.00
   14   15    3     -0.41      0.00
    9   16    3    -10.66      0.00
   10   16    3     -4.59      0.00
   11   16    3      8.12      0.00
   12   16    3      7.07      0.00
   13   16    3     -5.66      0.00
   14   16    3     -0.72      0.00
    9   17    3      8.66      0.00
   10   17    3     -2.18      0.00
   11   17    3      4.39      0.00
   12   17    3     15.57      0.00
   13   17    3      6.71      0.00
    9   18    3     15.03      0.00
   10   18    3      0.94      0.00
   11   18    3     -2.39      0.00
    8   19    3      6.58      0.00
    9   19    3      1.44      0.00
   10   19    3     -5.59      0.00
    8   20    3      8.85      0.00
    0   21    3     -7.51      0.00
    1   21    3    -27.37      0.00
    2   21    3     -0.07      0.00
    3   21    3     21.88      0.00
    4   21    3     -9.31      0.00
    5   21    3     -4.58      0.00
    0    0    4     70.77      0.00
    6    6    4     27.75      0.00
    7    7    4      3.14      0.00
    7    8    4     -5.73      0.00
    8    8    4     15.17      0.00
    8    9    4    -10.75      0.00
    9    9    4     30.11      0.00
    8   10    4      8.45      0.00
    9   10    4    -15.41      0.00
   10   10    4    -42.32      0.00
    8   11    4     -4.81      0.00
    9   11    4    -17.61      0.00
   10   11    4     -6.65      0.00
   11   11    4      8.17      0.00
    8   12    4     -7.14      0.00
    9   12    4    -12.87      0.00
   10   12    4     11.16      0.00
   11   12    4    -10.12      0.00
   12   12    4     -5.17      0.00
    7   13    4    -14.70      0.00
    8   13    4      3.77      0.00
    9   13    4     13.79      0.00
   10   13    4     11.20      0.00
   11   13    4     -4.59      0.00
   12   13    4     -1.34      0.00
   13   13    4     18.79      0.00
    9   14    4     -3.18      0.00
   10   14    4     -2.05      0.00
   11   14    4     -4.97      0.00
   12   14    4     -5.56      0.00
   13   14    4    -15.45      0.00
   14   14    4     -2.86      0.00
    9   15    4     -0.87      0.00
   10   15    4      3.98      0.00
   11   15    4      8.63      0.00
   12   15    4      8.17      0.00
   13   15    4     -1.84      0.00
   14   15    4      0.43      0.00
   15   15    4      6.05      0.00
    9   16    4    -11.58      0.00
   10   16    4     -6.64      0.00
   11   16    4      2.63      0.00
   12   16    4      7.70      0.00
   13   16    4     13.09      0.00
   14   16    4      8.41      0.00
    8   17    4     -5.49      0.00
    9   17    4     -1.43      0.00
   10   17    4     -5.65      0.00
   11   17    4     -5.87      0.00
   12   17    4     13.43      0.00
   13   17    4     -6.99      0.00
    8   18    4      9.53      0.00
    9   18    4     -2.33      0.00
   10   18    4     20.99      0.00
   11   18    4     -3.07      0.00
    8   19    4      7.48      0.00
    9   19    4      2.51      0.00
   10   19    4      6.22      0.00
    7   20    4    -19.01      0.00
    8   20    4    -10.58      0.00
    1   21    4      7.38      0.00
    2   21    4     -0.56      0.00
    3   21    4     -9.56      0.00
    4   21    4      6.32      0.00
    8    9    5      6.79      0.00
    8   10    5    -19.75      0.00
    9   10    5     -0.22      0.00
    9   11    5     -8.24      0.00
   10   11    5     -2.22      0.00
    9   12    5      1.81      0.00
   10   12    5     -6.69      0.00
   11   12    5      0.73      0.00
    8   13    5    -12.53      0.00
    9   13    5     -0.04      0.00
   10   13    5     -8.99      0.00
   11   13    5     -2.49      0.00
   12   13    5     25.22      0.00
    9   14    5      0.28      0.00
   10   14    5     -4.56      0.00
   11   14    5     -5.56      0.00
   12   14    5      0.13      0.00
   13   14    5    -14.30      0.00
    8   15    5      6.02      0.00
    9   15    5     -0.92      0.00
   10   15    5      1.23      0.00
   11   15    5      0.34      0.00
   12   15    5    -15.17      0.00
   13   15    5    -11.16      0.00
   14   15    5      1.09      0.00
    8   16    5    -20.27      0.00
    9   16    5     17.89      0.00
   10   16    5    -14.21      0.00
   11   16    5    -10.49      0.00
   12   16    5      4.20      0.00
   13   16    5     -4.76      0.00
   14   16    5     -7.89      0.00
    7   17    5    -12.03      0.00
    8   17    5     -7.15      0.00
    9   17    5     10.03      0.00
   10   17    5     -9.53      0.00
   11   17    5     -2.44      0.00
   12   17    5      6.90      0.00
   13   17    5      5.47      0.00
    7   18    5      6.12      0.00
    8   18    5     14.88      0.00
    9   18    5     -2.79      0.00
   10   18    5      5.61      0.00
   11   18    5      6.97      0.00
    7   19    5     -4.42      0.00
    8   19    5     -1.94      0.00
    9   19    5     -6.52      0.00
   10   19    5     -2.36      0.00
    6   20    5     11.78      0.00
    7   20    5     -5.97      0.00
    0   21    5     23.21      0.00
    1   21    5      9.56      0.00
    2   21    5    -12.10      0.00
    3   21    5    -21.36      0.00
    4   21    5     -5.87      0.00
    8    8    6     17.16      0.00
    8    9    6    -29.75      0.00
    9    9    6     13.45      0.00
    9   10    6     -3.05      0.00
   10   10    6      7.60      0.00
    9   11    6     19.36      0.00
   10   11    6     13.28      0.00
   11   11    6     15.30      0.00
    8   12    6     -0.65      0.00
    9   12    6      7.48      0.00
   10   12    6    -13.44      0.00
   11   12    6     -1.80      0.00
   12   12    6     -2.51      0.00
    8   13    6     -3.02      0.00
    9   13    6    -15.32      0.00
   10   13    6     13.17      0.00
   11   13    6      6.92      0.00
   12   13    6     11.13      0.00
   13   13    6      2.81      0.00
    7   14    6     -9.70      0.00
    8   14    6     -6.75      0.00
    9   14    6     -3.11      0.00
   10   14    6     -7.74      0.00
   11   14    6    -18.62      0.00
   12   14    6      1.84      0.00
   13   14    6     10.68      0.00
   14   14    6      1.20      0.00
    7   15    6     -4.10      0.00
    8   15    6     -4.05      0.00
    9   15    6     15.97      0.00
   10   15    6     11.86      0.00
   11   15    6      0.66      0.00
   12   15    6     -7.09      0.00
   13   15    6     -1.03      0.00
   14   15    6      4.56      0.00
   15   15    6    -18.35      0.00
    7   16    6      8.11      0.00
    8   16    6      5.45      0.00
    9   16    6      1.46      0.00
   10   16    6     12.67      0.00
   11   16    6    -12.81      0.00
   12   16    6    -13.50      0.00
   13   16    6     -3.14      0.00
   14   16    6      0.46      0.00
    7   17    6      9.40      0.00
    8   17    6     14.74      0.00
    9   17    6    -13.08      0.00
   10   17    6      1.12      0.00
   11   17    6    -12.10      0.00
   12   17    6    -13.25      0.00
   13   17    6     -6.04      0.00
    7   18    6     -5.02      0.00
    8   18    6     -4.86      0.00
    9   18    6    -15.84      0.00
   10   18    6      3.56      0.00
   11   18    6     -4.36      0.00
    7   19    6     12.76      0.00
    8   19    6      2.75      0.00
    9   19    6    -14.64      0.00
    5   20    6    -11.85      0.00
    6   20    6    -22.48      0.00
    7   20    6    -16.27      0.00
    1   21    6    -14.81      0.00
    4   21    6      1.50      0.00
    9   10    7     18.42      0.00
    9   11    7    -16.69      0.00
   10   11    7      7.68      0.00
    9   12    7     17.89      0.00
   10   12    7      4.34      0.00
   11   12    7     -9.94      0.00
    8   13    7     29.03      0.00
    9   13    7    -36.97      0.00
   10   13    7     -0.60      0.00
   11   13    7      2.38      0.00
   12   13    7     -4.00      0.00
    8   14    7      2.20      0.00
    9   14    7    -14.08      0.00
   10   14    7      8.95      0.00
   11   14    7    -16.09      0.00
   12   14    7      8.73      0.00
   13   14    7      9.78      0.00
    8   15    7     -6.92      0.00
    9   15    7     11.38      0.00
   10   15    7      2.76      0.00
   11   15    7      0.40      0.00
   12   15    7     17.99      0.00
   13   15    7     10.55      0.00
   14   15    7      6.91      0.00
    8   16    7    -21.05      0.00
    9   16    7     13.72      0.00
   10   16    7     14.68      0.00
   11   16    7      7.67      0.00
   12   16    7     -4.59      0.00
   13   16    7      2.88      0.00
   14   16    7     -6.80      0.00
    8   17    7      2.76      0.00
    9   17    7     -1.93      0.00
   10   17    7    -10.56      0.00
   11   17    7      2.94      0.00
   12   17    7     -8.21      0.00
    7   18    7     11.21      0.00
    8   18    7     -7.64      0.00
    9   18    7    -14.90      0.00
   10   18    7      2.92      0.00
   11   18    7      9.76      0.00
    7   19    7      3.99      0.00
    8   19    7      5.70      0.00
    9   19    7     -2.03      0.00
    4   20    7      5.36      0.00
    5   20    7     22.93      0.00
    6   20    7     -3.06      0.00
    7   20    7      2.19      0.00
    0   21    7     26.53      0.00
    1   21    7      8.30      0.00
    3   21    7    -12.08      0.00
    9    9    8     -6.65      0.00
    9   10    8    -33.02      0.00
   10   10    8    -61.39      0.00
   10   11    8      8.97      0.00
   11   11    8    -37.70      0.00
    9   12    8     -3.79      0.00
   10   12    8      9.29      0.00
   11   12    8     12.07      0.00
   12   12    8      9.79      0.00
    8   13    8      5.24      0.00
    9   13    8      8.05      0.00
   10   13    8    -16.92      0.00
   11   13    8     -2.16      0.00
   12   13    8     13.79      0.00
   13   13    8    -11.64      0.00
    8   14    8     -4.04      0.00
    9   14    8    -11.10      0.00
   10   14    8    -11.21      0.00
   11   14    8    -20.38      0.00
   12   14    8      3.45      0.00
   13   14    8      8.41      0.00
   14   14    8     -7.33      0.00
    8   15    8      9.71      0.00
    9   15    8     14.82      0.00
   10   15    8      5.27      0.00
   11   15    8      1.77      0.00
   12   15    8      1.46      0.00
   13   15    8     10.11      0.00
   14   15    8     -1.26      0.00
    8   16    8      1.91      0.00
    9   16    8     15.04      0.00
   10   16    8     -6.98      0.00
   11   16    8     17.90      0.00
   12   16    8     13.39      0.00
   13   16    8      0.97      0.00
    8   17    8     -4.85      0.00
    9   17    8      4.77      0.00
   10   17    8      6.00      0.00
   11   17    8     -1.62      0.00
   12   17    8      2.08      0.00
    8   18    8     -8.32      0.00
    9   18    8     -1.49      0.00
   10   18    8     29.35      0.00
   11   18    8     -5.50      0.00
    7   19    8      5.89      0.00
    8   19    8     20.94      0.00
    9   19    8     -3.59      0.00
    3   20    8    -16.98      0.00
    4   20    8     -9.05      0.00
    5   20    8    -10.18      0.00
    6   20    8     -5.58      0.00
    7   20    8     -1.95      0.00
    1   21    8     -4.83      0.00
    2   21    8      9.51      0.00
    9   11    9     -3.52      0.00
   10   11    9      2.71      0.00
    8   12    9     27.10      0.00
   10   12    9     18.94      0.00
   11   12    9     30.63      0.00
    8   13    9     11.08      0.00
    9   13    9    -19.68      0.00
   10   13    9      3.46      0.00
   11   13    9      0.73      0.00
   12   13    9    -12.62      0.00
    8   14    9     17.64      0.00
    9   14    9     -6.12      0.00
   10   14    9      4.01      0.00
   11   14    9      4.24      0.00
   12   14    9      1.53      0.00
   13   14    9      5.92      0.00
    8   15    9     -3.99      0.00
    9   15    9      6.14      0.00
   10   15    9     -8.24      0.00
   11   15    9    -26.37      0.00
   12   15    9      1.62      0.00
   13   15    9     13.98      0.00
   14   15    9     -3.42      0.00
    8   16    9     -7.77      0.00
    9   16    9     14.85      0.00
   10   16    9      6.58      0.00
   11   16    9     -7.26      0.00
   12   16    9     -8.67      0.00
   13   16    9      0.33      0.00
    8   17    9     -2.06      0.00
    9   17    9      0.59      0.00
   10   17    9      4.07      0.00
   11   17    9      4.65      0.00
   12   17    9    -11.31      0.00
    8   18    9     -3.17      0.00
    9   18    9     -0.35      0.00
   10   18    9      0.89      0.00
    7   19    9     -8.53      0.00
    8   19    9      5.80      0.00
    9   19    9     13.01      0.00
    3   20    9      3.28      0.00
    4   20    9     -7.09      0.00
    5   20    9     12.82      0.00
    6   20    9      4.75      0.00
    0   21    9    -15.79      0.00
    1   21    9    -13.48      0.00
    9   10   10    -15.99      0.00
   10   10   10      3.18      0.00
    9   11   10     16.78      0.00
   10   11   10     26.45      0.00
   11   11   10     -9.94      0.00
   10   12   10     23.73      0.00
   11   12   10     33.55      0.00
   12   12   10     17.32      0.00
   11   13   10    -11.54      0.00
   12   13   10      8.17      0.00
   13   13   10    -12.25      0.00
    9   14   10     15.38      0.00
   10   14   10     -8.15      0.00
   11   14   10     -0.78      0.00
   12   14   10     -0.87      0.00
   13   14   10     10.05      0.00
   14   14   10     -5.56      0.00
    9   15   10      3.72      0.00
   10   15   10     -1.73      0.00
   11   15   10      1.89      0.00
   12   15   10      5.65      0.00
   13   15   10      3.20      0.00
   14   15   10     -9.94      0.00
    8   16   10     17.62      0.00
    9   16   10     -9.38      0.00
   10   16   10     -3.49      0.00
   11   16   10     11.46      0.00
   12   16   10     -6.06      0.00
   13   16   10     -8.96      0.00
    8   17   10     -0.86      0.00
    9   17   10    -23.64      0.00
   10   17   10     -3.14      0.00
   11   17   10     -8.91      0.00
   12   17   10     -1.94      0.00
    8   18   10    -12.36      0.00
    9   18   10      3.85      0.00
   10   18   10     -2.72      0.00
    7   19   10      4.10      0.00
    8   19   10     -0.59      0.00
    0   20   10     27.39      0.00
    2   20   10     -8.57      0.00
    3   20   10     -9.46      0.00
    4   20   10     -4.31      0.00
    5   20   10      4.82      0.00
    6   20   10     -0.43      0.00
    0    1   11     -7.73      0.00
   11   12   11     -3.48      0.00
   11   13   11     11.76      0.00
   12   13   11    -18.70      0.00
    9   14   11     31.24      0.00
   10   14   11     16.09      0.00
   11   14   11      9.66      0.00
   12   14   11      2.66      0.00
   13   14   11     -1.79      0.00
    9   15   11     -3.75      0.00
   10   15   11     -0.04      0.00
   11   15   11     -4.07      0.00
   12   15   11      8.47      0.00
   13   15   11      1.21      0.00
   14   15   11    -10.39      0.00
    9   16   11      1.41      0.00
   10   16   11     -9.65      0.00
   11   16   11     -2.56      0.00
   12   16   11     -7.53      0.00
   13   16   11      6.49      0.00
    9   17   11    -13.23      0.00
   10   17   11     -7.78      0.00
   11   17   11      4.01      0.00
    8   18   11    -19.40      0.00
    9   18   11      7.58      0.00
   10   18   11     -1.86      0.00
    6   19   11    -12.52      0.00
    7   19   11     -1.62      0.00
    8   19   11      1.61      0.00
    1   20   11     -9.13      0.00
    2   20   11     23.56      0.00
    3   20   11      7.31      0.00
    4   20   11    -24.02      0.00
    5   20   11     -1.27      0.00
    0    0   12     13.09      0.00
   11   11   12     -7.98      0.00
   11   12   12     -0.13      0.00
   12   12   12    -17.89      0.00
   11   13   12    -14.86      0.00
   12   13   12    -18.30      0.00
   13   13   12      6.99      0.00
    9   14   12     14.49      0.00
   10   14   12      7.41      0.00
   11   14   12      6.73      0.00
   12   14   12      6.11      0.00
   13   14   12      0.44      0.00
   14   14   12      2.84      0.00
    9   15   12     -3.48      0.00
   10   15   12    -16.78      0.00
   11   15   12     -8.05      0.00
   12   15   12     -6.96      0.00
   13   15   12      3.36      0.00
   14   15   12     -6.66      0.00
    9   16   12     -6.63      0.00
   10   16   12      7.43      0.00
   11   16   12     -3.99      0.00
   12   16   12     -0.79      0.00
    9   17   12     -4.53      0.00
   10   17   12     12.90      0.00
   11   17   12      3.88      0.00
    9   18   12     -1.90      0.00
    6   19   12    -12.19      0.00
    7   19   12     -1.61      0.00
    0   20   12     29.18      0.00
    1   20   12      7.75      0.00
    2   20   12     -2.60      0.00
    3   20   12    -10.92      0.00
    4   20   12     10.69      0.00
   11   12   13     35.98      0.00
   11   13   13      8.53      0.00
   12   13   13      6.07      0.00
    9   14   13      8.32      0.00
   10   14   13      6.62      0.00
   11   14   13      8.16      0.00
   12   14   13     -8.43      0.00
   13   14   13      4.91      0.00
    9   15   13      9.43      0.00
   10   15   13    -10.97      0.00
   11   15   13     -0.03      0.00
   12   15   13      2.08      0.00
   13   15   13      6.09      0.00
    9   16   13     21.47      0.00
   10   16   13      9.49      0.00
   11   16   13     -0.85      0.00
   12   16   13      2.05      0.00
    9   17   13      1.83      0.00
   10   17   13      8.42      0.00
   11   17   13      7.66      0.00
    9   18   13     -0.77      0.00
    5   19   13     12.71      0.00
    6   19   13     -9.57      0.00
    7   19   13     -7.97      0.00
    1   20   13      2.71      0.00
    2   20   13     -0.23      0.00
    3   20   13     -0.67      0.00
    8    8   14     17.97      0.00
    5   12   14      0.20      0.00
   12   12   14     -0.54      0.00
   12   13   14    -10.00      0.00
   13   13   14      7.92      0.00
   10   14   14     15.47      0.00
   12   14   14     16.51      0.00
   13   14   14      3.09      0.00
   14   14   14     -6.25      0.00
    9   15   14     -6.48      0.00
   10   15   14      7.06      0.00
   11   15   14      1.55      0.00
   12   15   14     -6.32      0.00
   13   15   14     -8.64      0.00
    9   16   14     10.51      0.00
   10   16   14     -7.99      0.00
   11   16   14    -17.81      0.00
   12   16   14      2.19      0.00
    9   17   14     -6.98      0.00
   10   17   14      0.28      0.00
    4   19   14     15.22      0.00
    5   19   14     -2.44      0.00
    6   19   14    -23.47      0.00
    0   20   14     -3.30      0.00
    1   20   14     -1.19      0.00
    2   20   14     -9.90      0.00
    7    8   15     15.65      0.00
    3   12   15     -7.44      0.00
   12   13   15     12.34      0.00
   12   14   15     -5.09      0.00
   13   14   15     -3.19      0.00
    8   15   15    -10.06      0.00
    9   15   15     11.58      0.00
   10   15   15    -11.02      0.00
   11   15   15    -18.18      0.00
   12   15   15      0.34      0.00
   13   15   15     11.78      0.00
    8   16   15      0.30      0.00
    9   16   15     -5.36      0.00
   10   16   15     -3.00      0.00
   11   16   15     10.49      0.00
    8   17   15    -11.58      0.00
    9   17   15     -9.77      0.00
   10   17   15      6.74      0.00
    8   18   15      6.54      0.00
    0   19   15    -30.08      0.00
    1   19   15      9.05      0.00
    2   19   15     10.83      0.00
    3   19   15     -6.06      0.00
    4   19   15    -14.35      0.00
    5   19   15     -4.66      0.00
    7    7   16     27.56      0.00
   12   12   16     35.10      0.00
   12   13   16     -9.17      0.00
   13   13   16    -37.29      0.00
   12   14   16      1.97      0.00
   13   14   16    -15.41      0.00
    7   15   16     -5.66      0.00
    8   15   16    -25.55      0.00
    9   15   16      6.73      0.00
   10   15   16      9.26      0.00
   11   15   16    -12.92      0.00
   12   15   16    -15.80      0.00
    7   16   16     11.70      0.00
    8   16   16      7.82      0.00
    9   16   16     -9.99      0.00
   10   16   16      3.14      0.00
   11   16   16      6.96      0.00
    7   17   16    -13.23      0.00
    8   17   16     -3.42      0.00
    9   17   16     -3.72      0.00
    7   18   16      0.60      0.00
    1   19   16     10.93      0.00
    2   19   16      9.46      0.00
    3   19   16      8.66      0.00
    4   19   16     -4.17      0.00
    6    7   17    -12.13      0.00
    5    8   17      4.06      0.00
   12   13   17      8.16      0.00
   12   14   17    -11.14      0.00
   13   14   17      3.38      0.00
    6   15   17     -4.97      0.00
    7   15   17      4.35      0.00
    8   15   17     11.01      0.00
    9   15   17     -6.71      0.00
   10   15   17      9.71      0.00
   11   15   17     15.95      0.00
   12   15   17     -1.36      0.00
    6   16   17    -20.57      0.00
    7   16   17     16.81      0.00
    8   16   17    -10.96      0.00
    9   16   17     -4.88      0.00
   10   16   17     -4.20      0.00
    6   17   17     -8.31      0.00
    7   17   17      6.09      0.00
    8   17   17     10.79      0.00
    9   17   17     -6.29      0.00
    6   18   17      4.18      0.00
    7   18   17      3.41      0.00
    0   19   17      6.74      0.00
    1   19   17    -15.63      0.00
    2   19   17      2.55      0.00
    3   19   17     10.29      0.00
    0    0   18    -38.90      0.00
    6    6   18    -24.98      0.00
    5    7   18      7.45      0.00
   13   13   18    -16.64      0.00
    5   15   18      7.57      0.00
    6   15   18      3.84      0.00
    7   15   18     14.21      0.00
    8   15   18     10.06      0.00
    9   15   18    -15.64      0.00
   10   15   18      3.84      0.00
   11   15   18      0.98      0.00
    5   16   18     11.97      0.00
    6   16   18      4.11      0.00
    7   16   18     -2.68      0.00
    8   16   18     -2.56      0.00
    9   16   18     12.90      0.00
   10   16   18      9.92      0.00
    5   17   18      7.92      0.00
    6   17   18      8.41      0.00
    7   17   18     -7.09      0.00
    8   17   18    -10.12      0.00
    5   18   18    -16.30      0.00
    6   18   18     11.31      0.00
    5    6   19     -8.53      0.00
   12   14   19    -27.40      0.00
    4   15   19      7.97      0.00
    5   15   19     -5.89      0.00
    6   15   19     -3.95      0.00
    7   15   19      5.23      0.00
    8   15   19      3.62      0.00
   11   15   19      9.72      0.00
    4   16   19     -7.08      0.00
    5   16   19     -2.95      0.00
    6   16   19      7.23      0.00
    7   16   19     16.87      0.00
    8   16   19    -15.18      0.00
    9   16   19    -11.32      0.00
    4   17   19     -9.26      0.00
    5   17   19      9.93      0.00
    6   17   19     -4.56      0.00
    7   17   19     11.62      0.00
    4   18   19     -1.43      0.00
    5   18   19    -27.34      0.00
    0    0   20     11.06      0.00
    5    5   20    -11.66      0.00
    4    6   20    -10.92      0.00
    7    7   20    -40.65      0.00
   12   13   20     -2.80      0.00
    2   15   20    -23.62      0.00
    3   15   20      8.42      0.00
    4   15   20    -14.00      0.00
    5   15   20     -0.60      0.00
    6   15   20    -18.66      0.00
    2   16   20     -0.01      0.00
    3   16   20     -1.31      0.00
    4   16   20     -7.50      0.00
    5   16   20    -11.16      0.00
    6   16   20     -0.84      0.00
    7   16   20    -15.32      0.00
    8   16   20     -9.88      0.00
    3   17   20     -9.16      0.00
    4   17   20     -0.47      0.00
    5   17   20     -4.43      0.00
    6   17   20     11.74      0.00
    0   18   20    -16.64      0.00
    2   18   20      0.56      0.00
    3   18   20      0.39      0.00
    4    5   21    -10.67      0.00
   12   13   21      5.55      0.00
   11   14   21      3.83      0.00
    2   15   21      6.40      0.00
    3   15   21     -5.78      0.00
    4   15   21     -5.19      0.00
    2   16   21     -2.32      0.00
    3   16   21     -4.96      0.00
    4   16   21      5.21      0.00
    5   16   21     -3.68      0.00
    6   16   21    -10.94      0.00
    7   16   21     -1.03      0.00
    8   16   21     -9.35      0.00
    2   17   21     -1.28      0.00
    3   17   21      7.81      0.00
    4   17   21     22.16      0.00
    5   17   21      3.44      0.00
    0    0   22     19.13      0.00
   12   12   22      7.14      0.00
   11   13   22     -9.08      0.00
    0   14   22     -9.67      0.00
    1   14   22     60.60      0.00
   10   14   22      9.93      0.00
    1   15   22      9.73      0.00
    2   15   22     -5.96      0.00
    9   15   22      0.30      0.00
    0   16   22    -15.72      0.00
    1   16   22    -19.13      0.00
    2   16   22      2.49      0.00
    3   16   22      1.44      0.00
    4   16   22     15.46      0.00
    5   16   22     -1.84      0.00
    6   16   22      4.90      0.00
    7   16   22      5.62      0.00
    1   17   22     -5.41      0.00
    2   17   22      9.79      0.00
    3   17   22      0.51      0.00
    4   17   22      5.53      0.00
   11   12   23      8.86      0.00
    0   13   23     15.30      0.00
    1   13   23     -4.94      0.00
   10   13   23    -17.07      0.00
   11   13   23     -0.68      0.00
    1   14   23     -6.18      0.00
    9   14   23     -5.20      0.00
    0   15   23     33.50      0.00
    1   15   23    -14.34      0.00
    2   15   23     22.19      0.00
    8   15   23    -17.63      0.00
    1   16   23      6.92      0.00
    2   16   23     -3.94      0.00
    3   16   23    -11.47      0.00
    4   16   23      2.02      0.00
    5   16   23     -3.63      0.00
    6   16   23    -25.02      0.00
    0   17   23     -1.25      0.00
    1   17   23     -1.04      0.00
    0    0   24     49.67      0.00
    0    4   24     -2.35      0.00
   11   11   24    -10.04      0.00
   10   12   24     24.85      0.00
   11   12   24     -0.54      0.00
    9   13   24      0.46      0.00
   10   13   24      4.64      0.00
    0   14   24    -22.69      0.00
    1   14   24     17.52      0.00
    8   14   24      8.04      0.00
    1   15   24     -0.01      0.00
    7   15   24      1.42      0.00
    0   16   24      6.93      0.00
    1   16   24     -9.94      0.00
    2   16   24      0.00      0.00
    3   16   24     -4.36      0.00
    4   16   24     -5.98      0.00
    0    1   25    -37.10      0.00
    0    3   25    -13.38      0.00
   10   11   25     -4.91      0.00
    9   12   25     -1.27      0.00
   10   12   25     12.08      0.00
    8   13   25      8.60      0.00
    9   13   25     -3.49      0.00
    1   14   25    -24.19      0.00
    2   14   25     35.34      0.00
    7   14   25      2.09      0.00
    8   14   25    -10.23      0.00
    0   15   25     -2.11      0.00
    1   15   25     12.49      0.00
    2   15   25     14.93      0.00
    5   15   25      6.34      0.00
    1   16   25      1.16      0.00
    2   16   25      8.87      0.00
    0    0   26      4.57      0.00
    1    1   26    -38.30      0.00
   10   10   26     -6.58      0.00
    9   11   26     20.14      0.00
   10   11   26    -14.52      0.00
   11   11   26    -23.31      0.00
    8   12   26      3.05      0.00
    9   12   26     -9.33      0.00
    7   13   26     -3.17      0.00
    8   13   26     15.41      0.00
    0   14   26     19.15      0.00
    1   14   26     20.39      0.00
    2   14   26     -3.96      0.00
    5   14   26    -27.87      0.00
    6   14   26     14.41      0.00
    1   15   26     -4.84      0.00
    2   15   26    -17.71      0.00
    3   15   26     -5.70      0.00
    4   15   26     11.69      0.00
    0    1   27     26.33      0.00
    9   10   27      4.40      0.00
    8   11   27     15.89      0.00
    9   11   27    -14.76      0.00
   10   11   27      8.60      0.00
    7   12   27    -29.33      0.00
    8   12   27    -16.32      0.00
    9   12   27     11.83      0.00
    5   13   27     18.57      0.00
    6   13   27      3.65      0.00
    7   13   27      4.86      0.00
    1   14   27     -4.49      0.00
    2   14   27    -16.20      0.00
    3   14   27     -3.02      0.00
    4   14   27     -1.84      0.00
    5   14   27      3.09      0.00
    0   15   27     -3.29      0.00
    0    0   28     46.74      0.00
    1    1   28      7.06      0.00
    9    9   28      1.97      0.00
    8   10   28    -13.29      0.00
    9   10   28      0.44      0.00
   10   10   28     -0.71      0.00
    7   11   28      6.89      0.00
    8   11   28      8.75      0.00
    9   11   28     -7.03      0.00
    5   12   28     -2.56      0.00
    6   12   28     11.84      0.00
    7   12   28      4.91      0.00
    3   13   28      4.32      0.00
    4   13   28      9.10      0.00
    5   13   28     -0.14      0.00
    6   13   28      0.57      0.00
    0   14   28     18.09      0.00
    1   14   28     -5.70      0.00
    2   14   28     -8.28      0.00
    3   14   28     28.94      0.00
    0    1   29    -30.45      0.00
    2    9   29     -3.23      0.00
    8    9   29      7.36      0.00
    7   10   29      8.91      0.00
    8   10   29      7.04      0.00
    9   10   29     -1.85      0.00
    5   11   29     -7.07      0.00
    6   11   29      8.25      0.00
    7   11   29     17.72      0.00
    8   11   29      3.70      0.00
    4   12   29      4.40      0.00
    5   12   29     -7.36      0.00
    6   12   29    -15.36      0.00
    0   13   29    -10.50      0.00
    2   13   29      8.27      0.00
    3   13   29     -5.17      0.00
    4   13   29      4.03      0.00
    0    0   30    -25.52      0.00
    1    1   30    -28.47      0.00
    0    2   30     18.88      0.00
    1    2   30      6.90      0.00
    2    2   30     36.10      0.00
    1    8   30      4.28      0.00
    8    8   30     15.29      0.00
    7    9   30     -9.51      0.00
    8    9   30     -0.03      0.00
    9    9   30      6.67      0.00
    5   10   30    -13.26      0.00
    6   10   30      0.88      0.00
    7   10   30    -16.55      0.00
    8   10   30    -13.41      0.00
    4   11   30      4.62      0.00
    5   11   30      1.18      0.00
    6   11   30     -3.29      0.00
    0   12   30     39.73      0.00
    2   12   30    -11.48      0.00
    3   12   30    -10.79      0.00
    4   12   30      6.00      0.00
    0    1   31     -1.65      0.00
    1    2   31      4.04      0.00
    6    8   31     -9.56      0.00
    7    8   31      4.41      0.00
    5    9   31     -1.88      0.00
    6    9   31     -7.73      0.00
    7    9   31     -2.22      0.00
    8    9   31      1.88      0.00
    4   10   31     -2.25      0.00
    5   10   31     18.08      0.00
    6   10   31     -8.10      0.00
    0   11   31    -17.59      0.00
    3   11   31      2.21      0.00
    4   11   31    -15.19      0.00
    5   11   31     -5.23      0.00
    1   12   31      0.16      0.00
    0    0   32     12.78      0.00
    1    1   32     -7.38      0.00
    0    2   32      7.22      0.00
    1    2   32     16.95      0.00
    2    2   32     21.43      0.00
    2    3   32      1.53      0.00
    3    3   32     -1.47      0.00
    6    7   32     20.20      0.00
    7    7   32     -3.98      0.00
    5    8   32      2.23      0.00
    6    8   32      9.55      0.00
    7    8   32    -14.93      0.00
    4    9   32      2.56      0.00
    5    9   32      4.93      0.00
    6    9   32     10.26      0.00
    0   10   32      2.94      0.00
    3   10   32     14.23      0.00
    4   10   32    -11.71      0.00
    5   10   32      0.23      0.00
    1   11   32     -6.49      0.00
    2   11   32    -18.67      0.00
    0    1   33     17.57      0.00
    1    2   33    -12.80      0.00
    0    3   33     -8.65      0.00
    1    3   33      6.38      0.00
    2    3   33     -2.50      0.00
    5    6   33     23.01      0.00
    5    7   33    -18.17      0.00
    6    7   33    -10.72      0.00
    4    8   33      1.74      0.00
    5    8   33      0.75      0.00
    6    8   33      3.82      0.00
    0    9   33      2.16      0.00
    2    9   33     -4.93      0.00
    3    9   33     -2.15      0.00
    4    9   33     -4.00      0.00
    1   10   33     -5.01      0.00
    2   10   33    -10.19      0.00
    0    0   34     16.98      0.00
    1    1   34      0.33      0.00
    0    2   34      3.18      0.00
    1    2   34      2.81      0.00
    2    2   34      2.38      0.00
    1    3   34      2.22      0.00
    2    3   34    -16.15      0.00
    3    3   34     46.43      0.00
    5    5   34    -12.36      0.00
    0    6   34    -27.85      0.00
    4    6   34      2.80      0.00
    5    6   34     -3.07      0.00
    6    6   34      7.80      0.00
    3    7   34     13.06      0.00
    4    7   34    -12.34      0.00
    5    7   34     -6.49      0.00
    0    8   34    -13.10      0.00
    2    8   34     -1.06      0.00
    3    8   34     -1.10      0.00
    4    8   34    -14.86      0.00
    0    1   35     -5.55      0.00
    1    2   35     -6.13      0.00
    0    3   35     24.13      0.00
    1    3   35      9.52      0.00
    2    3   35     12.28      0.00
    1    4   35     -3.30      0.00
    2    4   35      4.38      0.00
    3    4   35    -10.11      0.00
    0    5   35     41.18      0.00
    3    5   35    -23.51      0.00
    4    5   35      5.36      0.00
    2    6   35    -15.71      0.00
    3    6   35      5.11      0.00
    4    6   35     12.36      0.00
    0    7   35    -14.32      0.00
    2    7   35      9.10      0.00
    3    7   35      5.56      0.00
    0    0    0      0.00      0.00
# SQUEEZE RESULTS (Version =  70515)
# Note: Data are Listed for all Voids in the P1 Unit Cell
# i.e. Centre of Gravity, Solvent Accessible Volume,
# Recovered number of Electrons in the Void and
# Details about the Squeezed Material
loop_
  _platon_squeeze_void_nr
  _platon_squeeze_void_average_x
  _platon_squeeze_void_average_y
  _platon_squeeze_void_average_z
  _platon_squeeze_void_volume
  _platon_squeeze_void_count_electrons
  _platon_squeeze_void_content
   1 -0.012  0.397 -0.003      8685      3275 ' '
# Missing Reflections Below sin(th)/lambda = 0.25
loop_
  _platon_missing_refln_index_h
  _platon_missing_refln_index_k
  _platon_missing_refln_index_l
  _platon_missing_refln_theta
    1    1    0     1.456
    1    2    0     2.302
    2    2    0     2.913
    3    3    0     4.371
    4    4    0     5.833
    4    5    0     6.605
    5    5    0     7.298
    5    6    0     8.066
    6    6    0     8.768
    5    7    0     8.890
    6    7    0     9.534
    0    1    1     1.190
    4    5    1     6.633
    5    6    1     8.088
    6    7    1     9.553
    0    0    2     1.195
    4    4    2     5.955
    4    5    2     6.714
    5    5    2     7.396
    5    6    2     8.155
    6    6    2     8.851
    6    7    2     9.610
    0    1    3     2.067
    6    7    3     9.704
    0    0    4     2.391
    6    6    4     9.093
    0    1   11     6.667
    0    0   12     7.188
_platon_squeeze_void_probe_radius                  1.20
_platon_squeeze_details
)
TITL g2yy_14xneP 4/m n cl   R = 0.27
CELL   19.1734   19.1734   33.0320     90.00     90.00     90.00
SPGR P4/mnc
# Solvent Accessible Volume =    8762.4
# Electrons Found in S.A.V. =    3209.5
# Note: Atoms in Void as Cxxx and Qxxx all others
C101 1.000 0.977 0.206 !       2.76 eA-3
C102 1.000 1.002 0.172 !       2.64 eA-3
C103 0.297 0.406 0.402 !       2.24 eA-3
C104 0.018 0.422 0.502 !       2.07 eA-3
Q105 0.173 0.484 0.499 !       2.03 eA-3
Q106 0.790 0.453 0.498 !       2.00 eA-3
C107 0.046 0.642 0.416 !       1.95 eA-3
C108 0.528 0.109 0.497 !       1.85 eA-3
C109 0.098 0.672 0.005 !       1.83 eA-3
C110 1.000 0.500 0.000 !       1.82 eA-3
C111 0.936 0.438 0.503 !       1.81 eA-3
Q112 0.681 0.986 0.030 !       1.74 eA-3
C113 0.812 0.298 0.043 !       1.72 eA-3
Q114 0.500 0.493 0.445 !       1.69 eA-3
C115 0.515 0.132 0.470 !       1.67 eA-3
C116 0.794 0.107 0.188 !       1.66 eA-3
C117 0.299 0.999 0.325 !       1.66 eA-3
C118 0.797 0.144 0.217 !       1.64 eA-3
C119 0.485 0.172-0.002 !       1.63 eA-3
C120 0.781 0.796 0.367 !       1.63 eA-3
C121 0.627 0.235 0.430 !       1.62 eA-3
C122 0.623 0.202 0.381 !       1.62 eA-3
C123 0.314 0.089 0.398 !       1.61 eA-3
C124 0.608 0.172 0.000 !       1.60 eA-3
C125 0.948 0.968 0.191 !       1.59 eA-3
C126 0.106 0.184 0.155 !       1.58 eA-3
C127 1.000 0.491 0.430 !       1.58 eA-3
C128 0.500 0.991 0.930 !       1.57 eA-3
C129 0.341 0.330 0.140 !       1.56 eA-3
Q130 0.318 0.748 0.455 !       1.55 eA-3
Q131 0.871 0.203 0.002 !       1.55 eA-3
C132 0.704 0.287 0.185 !       1.55 eA-3
C133 0.675 0.630 0.239 !       1.54 eA-3
C134 0.748 0.936 0.331 !       1.53 eA-3
Q135 0.547 0.205 0.477 !       1.52 eA-3
C136 0.090 0.160 0.237 !       1.51 eA-3
Q137 0.325 0.391 0.392 !       1.51 eA-3
C138 0.971 0.359 0.003 !       1.51 eA-3
C139 0.161 0.319 0.366 !       1.50 eA-3
Q140 0.721 0.669 0.440 !       1.50 eA-3
Q141 0.020 0.028 0.078 !       1.49 eA-3
C142 0.214 0.732 0.374 !       1.46 eA-3
C143 0.421 0.076 0.436 !       1.46 eA-3
C144 0.624 0.282 0.368 !       1.46 eA-3
C145 0.138 0.453 0.008 !       1.46 eA-3
Q146 0.500 0.499 0.406 !       1.46 eA-3
C147 0.921 0.420 0.939 !       1.45 eA-3
C148 0.136 0.958 0.246 !       1.45 eA-3
C149 0.124 0.219 0.866 !       1.45 eA-3
C150 0.965 0.911 0.250 !       1.44 eA-3
Q151 0.789 0.584 0.445 !       1.44 eA-3
C152 0.504 0.765 0.188 !       1.43 eA-3
Q153 0.956 0.106 0.018 !       1.43 eA-3
Q154 0.044 0.887 0.013 !       1.43 eA-3
C155 1.000 0.558 0.022 !       1.43 eA-3
Q156 0.639 0.266 0.496 !       1.43 eA-3
Q157 0.158 0.422 0.500 !       1.42 eA-3
C158 0.846 0.378 0.476 !       1.42 eA-3
C159 0.310 0.125 0.450 !       1.41 eA-3
C160 0.886 0.275 0.418 !       1.41 eA-3
C161 0.598 0.626 0.163 !       1.40 eA-3
C162 0.306 0.844 0.258 !       1.40 eA-3
C163 0.612 0.770 0.016 !       1.40 eA-3
C164 0.721 0.735 0.443 !       1.40 eA-3
C165 0.197 0.344 0.002 !       1.40 eA-3
C166 0.622 0.601 0.223 !       1.40 eA-3
C167 0.868 0.168 0.270 !       1.39 eA-3
C168 0.781 0.185 0.886 !       1.39 eA-3
C169 0.219 0.815 0.114 !       1.39 eA-3
Q170 0.843 0.160 0.188 !       1.38 eA-3
C171 0.887 0.876 0.304 !       1.38 eA-3
C172 0.460 0.999 0.473 !       1.38 eA-3
C173 0.453 0.824 0.410 !       1.37 eA-3
C174 0.757 0.735 0.133 !       1.36 eA-3
C175 0.206 0.263 0.350 !       1.36 eA-3
C176 0.718 0.054 0.290 !       1.36 eA-3
C177 0.543 0.952 0.092 !       1.36 eA-3
C178 0.034 0.326 0.359 !       1.36 eA-3
C179 0.831 0.733 0.320 !       1.36 eA-3
C180 0.689 0.254 0.251 !       1.36 eA-3
C181 0.081 0.505 0.103 !       1.36 eA-3
C182 0.092 0.438-0.001 !       1.36 eA-3
C183 0.763 0.701 0.853 !       1.36 eA-3
C184 0.408 0.889 0.088 !       1.35 eA-3
C185 0.778 0.437 0.077 !       1.35 eA-3
C186 0.229 0.750 0.399 !       1.35 eA-3
C187 0.717 0.328 0.157 !       1.35 eA-3
C188 0.329 0.050 0.447 !       1.34 eA-3
Q189 0.457 0.281 0.502 !       1.34 eA-3
C190 0.704 0.236 0.212 !       1.34 eA-3
C191 0.751 0.703 0.336 !       1.33 eA-3
C192 0.466 0.483 0.179 !       1.32 eA-3
C193 0.271 0.906 0.103 !       1.32 eA-3
C194 0.727 0.392 0.045 !       1.32 eA-3
Q195 0.350 0.203 0.499 !       1.31 eA-3
C196 0.746 0.656 0.066 !       1.31 eA-3
C197 0.349 0.204 0.465 !       1.30 eA-3
C198 0.335 0.902 0.038 !       1.30 eA-3
C199 0.359 0.809 0.483 !       1.30 eA-3
)
;
_shelx_shelxl_version_number     2014/7
_olex2_submission_special_instructions 'No special instructions were received'
loop_
_space_group_symop_operation_xyz
'x, y, z'
'-x, -y, z'
'-y, x, z'
'y, -x, z'
'-x+1/2, y+1/2, -z+1/2'
'x+1/2, -y+1/2, -z+1/2'
'y+1/2, x+1/2, -z+1/2'
'-y+1/2, -x+1/2, -z+1/2'
'-x, -y, -z'
'x, y, -z'
'y, -x, -z'
'-y, x, -z'
'x-1/2, -y-1/2, z-1/2'
'-x-1/2, y-1/2, z-1/2'
'-y-1/2, -x-1/2, z-1/2'
'y-1/2, x-1/2, z-1/2'
loop_
_atom_site_label
_atom_site_type_symbol
_atom_site_fract_x
_atom_site_fract_y
_atom_site_fract_z
_atom_site_U_iso_or_equiv
_atom_site_adp_type
_atom_site_occupancy
_atom_site_site_symmetry_order
_atom_site_calc_flag
_atom_site_refinement_flags_posn
_atom_site_refinement_flags_adp
_atom_site_refinement_flags_occupancy
_atom_site_disorder_assembly
_atom_site_disorder_group
Zr1 Zr 0.12316(14) 0.04336(16) 0.0000 0.0613(14) Uani 1 2 d S TU P . .
Zr2 Zr 0.0000 0.0000 0.07382(11) 0.0514(16) Uani 1 4 d S TU P . .
O5 O -0.0286(6) 0.0925(6) 0.1096(3) 0.111(4) Uiso 1 1 d . U . . .
O2 O 0.1723(6) 0.0620(5) -0.0608(4) 0.126(4) Uiso 1 1 d . U . . .
O4 O 0.0400(6) 0.0825(5) 0.0361(3) 0.128(4) Uiso 1 1 d . U . . .
O3 O 0.1682(10) 0.1489(10) 0.0000 0.173(8) Uiso 1 2 d S TU P . .
O1 O 0.2262(9) -0.0223(10) 0.0000 0.167(8) Uiso 1 2 d S TU P . .
C11 C -0.0247(9) 0.4152(8) 0.2226(5) 0.145(7) Uiso 1 1 d D U . . .
C3 C -0.0428(8) 0.1978(12) 0.1711(8) 0.210(9) Uiso 1 1 d D U . . .
H3 H -0.0247 0.1532 0.1749 0.252 Uiso 1 1 calc R . . . .
C12 C -0.0285(7) 0.4715(7) 0.2500 0.128(9) Uiso 1 2 d DS TU P . .
C1 C -0.0574(7) 0.1522(13) 0.1013(7) 0.163(8) Uiso 1 1 d D U . . .
C4 C -0.0442(10) 0.2388(14) 0.2059(7) 0.213(9) Uiso 1 1 d D U . . .
H4 H -0.0306 0.2264 0.2319 0.256 Uiso 1 1 calc R . . . .
C8 C -0.0770(8) 0.3640(11) 0.2219(6) 0.160(7) Uiso 1 1 d D U . . .
C13 C 0.0360(8) 0.4113(9) 0.1933(5) 0.159(8) Uiso 1 1 d D U . . .
H13A H 0.0604 0.4550 0.1931 0.238 Uiso 1 1 calc GR . . . .
H13B H 0.0189 0.4015 0.1665 0.238 Uiso 1 1 calc GR . . . .
H13C H 0.0672 0.3748 0.2015 0.238 Uiso 1 1 calc GR . . . .
C2 C -0.0640(7) 0.2120(13) 0.1310(8) 0.204(8) Uiso 1 1 d D U . . .
C5 C -0.0708(10) 0.3034(12) 0.1927(8) 0.218(9) Uiso 1 1 d D U . . .
C7 C -0.0910(10) 0.2745(15) 0.1157(8) 0.263(11) Uiso 1 1 d D U . . .
H7 H -0.1043 0.2871 0.0896 0.316 Uiso 1 1 calc R . . . .
C9 C -0.1324(10) 0.3676(10) 0.2500 0.165(10) Uiso 1 2 d DS TU P . .
C6 C -0.0916(10) 0.3124(14) 0.1523(9) 0.268(11) Uiso 1 1 d D U . . .
H6 H -0.1117 0.3561 0.1486 0.321 Uiso 1 1 calc R . . . .
C10 C -0.1877(10) 0.3123(10) 0.2500 0.203(13) Uiso 1 2 d DS TU P . .
H10A H -0.1777 0.2787 0.2292 0.304 Uiso 0.5 1 calc R . . A -1
H10B H -0.1885 0.2895 0.2759 0.304 Uiso 0.5 1 calc R . . A -1
H10C H -0.2323 0.3333 0.2449 0.304 Uiso 0.5 1 calc R . . A -1
loop_
_atom_site_aniso_label
_atom_site_aniso_U_11
_atom_site_aniso_U_22
_atom_site_aniso_U_33
_atom_site_aniso_U_23
_atom_site_aniso_U_13
_atom_site_aniso_U_12
Zr1 0.054(2) 0.089(3) 0.041(3) 0.000 0.000 -0.003(2)
Zr2 0.063(2) 0.063(2) 0.027(3) 0.000 0.000 0.000
loop_
_atom_type_symbol
_atom_type_description
_atom_type_scat_dispersion_real
_atom_type_scat_dispersion_imag
_atom_type_scat_source
C C 0.0030 0.0010 'International Tables Vol C Tables 4.2.6.8 and 6.1.1.4'
H H 0.0000 0.0000 'International Tables Vol C Tables 4.2.6.8 and 6.1.1.4'
O O 0.0110 0.0060 'International Tables Vol C Tables 4.2.6.8 and 6.1.1.4'
Zr Zr -11.6050 0.5510 'International Tables Vol C Tables 4.2.6.8 and 6.1.1.4'
loop_
_geom_angle_atom_site_label_1
_geom_angle_atom_site_label_2
_geom_angle_atom_site_label_3
_geom_angle
_geom_angle_site_symmetry_1
_geom_angle_site_symmetry_3
Zr1 Zr1 Zr1 90.0 3 11
Zr2 Zr1 Zr1 59.57(3) 9 3
Zr2 Zr1 Zr1 59.57(3) 9 11
Zr2 Zr1 Zr1 59.57(3) . 11
Zr2 Zr1 Zr1 59.57(3) . 3
Zr2 Zr1 Zr2 88.49(11) . 9
O2 Zr1 Zr1 108.0(3) 10 3
O2 Zr1 Zr1 108.0(3) . 3
O2 Zr1 Zr1 108.9(3) 10 11
O2 Zr1 Zr1 108.9(3) . 11
O2 Zr1 Zr2 72.4(3) . 9
O2 Zr1 Zr2 72.4(3) 10 .
O2 Zr1 Zr2 160.9(3) 10 9
O2 Zr1 Zr2 160.9(3) . .
O2 Zr1 O2 126.7(6) 10 .
O2 Zr1 O1 74.4(3) 10 .
O2 Zr1 O1 74.4(3) . .
O4 Zr1 Zr1 34.1(3) . 3
O4 Zr1 Zr1 33.9(3) 11 11
O4 Zr1 Zr1 89.7(3) 4 3
O4 Zr1 Zr1 89.7(3) 10 11
O4 Zr1 Zr1 34.1(3) 10 3
O4 Zr1 Zr1 89.7(3) 11 3
O4 Zr1 Zr1 33.9(3) 4 11
O4 Zr1 Zr1 89.7(3) . 11
O4 Zr1 Zr2 35.6(3) 10 9
O4 Zr1 Zr2 88.2(3) 10 .
O4 Zr1 Zr2 88.2(3) . 9
O4 Zr1 Zr2 35.6(3) . .
O4 Zr1 Zr2 88.0(3) 4 9
O4 Zr1 Zr2 88.0(3) 11 .
O4 Zr1 Zr2 35.7(3) 11 9
O4 Zr1 Zr2 35.7(3) 4 .
O4 Zr1 O2 75.9(4) . 10
O4 Zr1 O2 140.3(4) 11 10
O4 Zr1 O2 76.9(4) 11 .
O4 Zr1 O2 139.4(4) . .
O4 Zr1 O2 76.9(4) 4 10
O4 Zr1 O2 139.4(4) 10 10
O4 Zr1 O2 75.9(4) 10 .
O4 Zr1 O2 140.3(4) 4 .
O4 Zr1 O4 107.7(6) . 11
O4 Zr1 O4 71.2(5) . 4
O4 Zr1 O4 71.2(5) 10 11
O4 Zr1 O4 67.7(6) 11 4
O4 Zr1 O4 107.7(6) 10 4
O4 Zr1 O4 68.2(6) . 10
O4 Zr1 O3 146.0(3) 4 .
O4 Zr1 O3 146.0(3) 11 .
O4 Zr1 O3 88.3(5) . .
O4 Zr1 O3 88.3(5) 10 .
O4 Zr1 O1 145.2(3) 10 .
O4 Zr1 O1 84.6(4) 4 .
O4 Zr1 O1 145.2(3) . .
O4 Zr1 O1 84.6(4) 11 .
O3 Zr1 Zr1 177.5(5) . 11
O3 Zr1 Zr1 87.5(5) . 3
O3 Zr1 Zr2 119.0(3) . .
O3 Zr1 Zr2 119.0(3) . 9
O3 Zr1 O2 71.9(3) . .
O3 Zr1 O2 71.9(3) . 10
O3 Zr1 O1 99.4(6) . .
O1 Zr1 Zr1 173.1(5) . 3
O1 Zr1 Zr1 83.1(5) . 11
O1 Zr1 Zr2 116.2(3) . .
O1 Zr1 Zr2 116.2(3) . 9
Zr1 Zr2 Zr1 60.87(6) 9 11
Zr1 Zr2 Zr1 91.51(11) . 9
Zr1 Zr2 Zr1 60.87(6) . 3
Zr1 Zr2 Zr1 60.87(6) 9 3
Zr1 Zr2 Zr1 60.87(6) . 11
Zr1 Zr2 Zr1 91.51(11) 11 3
O5 Zr2 Zr1 76.7(3) 3 9
O5 Zr2 Zr1 76.7(3) . 3
O5 Zr2 Zr1 76.7(3) 2 11
O5 Zr2 Zr1 113.4(3) . 9
O5 Zr2 Zr1 113.4(3) 3 11
O5 Zr2 Zr1 168.1(3) 2 3
O5 Zr2 Zr1 113.4(3) 2 .
O5 Zr2 Zr1 110.6(3) 2 9
O5 Zr2 Zr1 110.6(3) 4 11
O5 Zr2 Zr1 113.4(3) 4 3
O5 Zr2 Zr1 168.1(3) 4 9
O5 Zr2 Zr1 76.7(3) 4 .
O5 Zr2 Zr1 168.1(3) . 11
O5 Zr2 Zr1 110.6(3) . .
O5 Zr2 Zr1 168.1(3) 3 .
O5 Zr2 Zr1 110.6(3) 3 3
O5 Zr2 O5 73.2(3) . 4
O5 Zr2 O5 73.2(3) 4 2
O5 Zr2 O5 73.2(3) 3 2
O5 Zr2 O5 115.1(6) 4 3
O5 Zr2 O5 115.1(6) . 2
O5 Zr2 O5 73.2(3) . 3
O4 Zr2 Zr1 90.7(3) . 9
O4 Zr2 Zr1 35.1(3) 3 3
O4 Zr2 Zr1 35.1(3) 2 9
O4 Zr2 Zr1 90.5(3) 2 3
O4 Zr2 Zr1 35.5(3) . 3
O4 Zr2 Zr1 90.5(3) 4 9
O4 Zr2 Zr1 90.7(3) 2 .
O4 Zr2 Zr1 90.5(3) 3 .
O4 Zr2 Zr1 35.1(3) . .
O4 Zr2 Zr1 90.7(3) 4 3
O4 Zr2 Zr1 90.5(3) . 11
O4 Zr2 Zr1 35.5(3) 2 11
O4 Zr2 Zr1 90.7(3) 3 11
O4 Zr2 Zr1 35.5(3) 3 9
O4 Zr2 Zr1 35.5(3) 4 .
O4 Zr2 Zr1 35.1(3) 4 11
O4 Zr2 O5 144.4(4) 4 3
O4 Zr2 O5 80.8(4) . 4
O4 Zr2 O5 80.8(4) 3 .
O4 Zr2 O5 78.9(4) 2 2
O4 Zr2 O5 144.4(4) 2 .
O4 Zr2 O5 141.3(4) 2 4
O4 Zr2 O5 144.4(4) . 2
O4 Zr2 O5 141.3(4) . 3
O4 Zr2 O5 78.9(4) . .
O4 Zr2 O5 80.8(4) 4 2
O4 Zr2 O5 80.8(4) 2 3
O4 Zr2 O5 78.9(4) 3 3
O4 Zr2 O5 141.3(4) 4 .
O4 Zr2 O5 78.9(4) 4 4
O4 Zr2 O5 141.3(4) 3 2
O4 Zr2 O5 144.4(4) 3 4
O4 Zr2 O4 70.5(3) 2 3
O4 Zr2 O4 70.5(3) 4 .
O4 Zr2 O4 70.5(3) 2 4
O4 Zr2 O4 70.5(3) 3 .
O4 Zr2 O4 109.4(6) 2 .
O4 Zr2 O4 109.4(6) 3 4
C1 O5 Zr2 134.6(13) . .
C1 O2 Zr1 136.9(13) 11 .
Zr1 O4 Zr1 112.0(5) . 3
Zr1 O4 Zr2 108.9(5) 3 .
Zr1 O4 Zr2 109.4(4) . .
C12 C11 C13 119.1(13) . .
C8 C11 C12 120.6(17) . .
C8 C11 C13 120.3(12) . .
C4 C3 H3 114.4 . .
C4 C3 C2 131(2) . .
C2 C3 H3 114.4 . .
C11 C12 C11 119.3(19) . 7_455
C11 C12 C12 120.3(10) . 2_565
C11 C12 C12 120.3(10) 7_455 2_565
O5 C1 O2 118.2(19) . 12
O5 C1 C2 124(2) . .
O2 C1 C2 114(2) 12 .
C3 C4 H4 127.8 . .
C3 C4 C5 104(2) . .
C5 C4 H4 127.8 . .
C11 C8 C5 119.3(14) . .
C11 C8 C9 120(2) . .
C9 C8 C5 121.0(16) . .
C11 C13 H13A 109.5 . .
C11 C13 H13B 109.5 . .
C11 C13 H13C 109.5 . .
H13A C13 H13B 109.5 . .
H13A C13 H13C 109.5 . .
H13B C13 H13C 109.5 . .
C3 C2 C1 116(2) . .
C7 C2 C3 128(3) . .
C7 C2 C1 116(3) . .
C4 C5 C8 120(3) . .
C6 C5 C4 120(2) . .
C6 C5 C8 119(2) . .
C2 C7 H7 131.1 . .
C2 C7 C6 98(2) . .
C6 C7 H7 131.1 . .
C8 C9 C8 120(3) 7_455 .
C8 C9 C10 119.8(14) . .
C8 C9 C10 119.8(14) 7_455 .
C5 C6 C7 138(3) . .
C5 C6 H6 110.8 . .
C7 C6 H6 110.8 . .
C9 C10 H10A 109.5 . .
C9 C10 H10B 109.5 . .
C9 C10 H10C 109.5 . .
H10A C10 H10B 109.5 . .
H10A C10 H10C 109.5 . .
H10B C10 H10C 109.5 . .
loop_
_geom_bond_atom_site_label_1
_geom_bond_atom_site_label_2
_geom_bond_distance
_geom_bond_site_symmetry_2
Zr1 Zr1 3.540(4) 11
Zr1 Zr1 3.540(4) 3
Zr1 Zr2 3.495(3) .
Zr1 Zr2 3.495(3) 9
Zr1 O2 2.248(12) .
Zr1 O2 2.248(12) 10
Zr1 O4 2.128(11) 10
Zr1 O4 2.128(11) .
Zr1 O4 2.142(11) 11
Zr1 O4 2.142(11) 4
Zr1 O3 2.200(19) .
Zr1 O1 2.343(17) .
Zr2 Zr1 3.495(3) 9
Zr2 Zr1 3.495(3) 11
Zr2 Zr1 3.495(3) 3
Zr2 O5 2.200(11) 2
Zr2 O5 2.200(11) 4
Zr2 O5 2.200(11) 3
Zr2 O5 2.200(11) .
Zr2 O4 2.155(10) 4
Zr2 O4 2.155(10) 3
Zr2 O4 2.155(10) .
Zr2 O4 2.155(10) 2
O5 C1 1.30(2) .
O2 C1 1.39(2) 11
O4 Zr1 2.142(11) 3
C11 C12 1.412(11) .
C11 C8 1.403(11) .
C11 C13 1.516(7) .
C3 H3 0.9300 .
C3 C4 1.394(7) .
C3 C2 1.411(10) .
C12 C11 1.412(11) 7_455
C12 C12 1.55(4) 2_565
C1 O2 1.39(2) 12
C1 C2 1.515(10) .
C4 H4 0.9300 .
C4 C5 1.408(10) .
C8 C5 1.515(7) .
C8 C9 1.412(11) .
C13 H13A 0.9600 .
C13 H13B 0.9600 .
C13 H13C 0.9600 .
C2 C7 1.399(7) .
C5 C6 1.404(7) .
C7 H7 0.9300 .
C7 C6 1.411(10) .
C9 C8 1.412(11) 7_455
C9 C10 1.499(10) .
C6 H6 0.9300 .
C10 H10A 0.9600 .
C10 H10B 0.9600 .
C10 H10C 0.9600 .
loop_
_geom_torsion_atom_site_label_1
_geom_torsion_atom_site_label_2
_geom_torsion_atom_site_label_3
_geom_torsion_atom_site_label_4
_geom_torsion
_geom_torsion_site_symmetry_1
_geom_torsion_site_symmetry_4
Zr2 O5 C1 O2 -14(2) . 12
Zr2 O5 C1 C2 -172.3(6) . .
O5 C1 C2 C3 -6.1(11) . .
O5 C1 C2 C7 174.5(13) . .
O2 C1 C2 C3 -164.8(12) 12 .
O2 C1 C2 C7 15.7(11) 12 .
C11 C8 C5 C4 98(2) . .
C11 C8 C5 C6 -82(3) . .
C11 C8 C9 C8 1.2(13) . 7_455
C11 C8 C9 C10 -178.8(13) . .
C3 C4 C5 C8 -177.1(14) . .
C3 C4 C5 C6 3(2) . .
C3 C2 C7 C6 -2.3(15) . .
C12 C11 C8 C5 -178.7(18) . .
C12 C11 C8 C9 -2(3) . .
C1 C2 C7 C6 177.0(9) . .
C4 C3 C2 C1 -177.2(13) . .
C4 C3 C2 C7 2(2) . .
C4 C5 C6 C7 -5(4) . .
C8 C11 C12 C11 1.2(13) . 7_455
C8 C11 C12 C12 -178.8(13) . 2_565
C8 C5 C6 C7 175(2) . .
C13 C11 C12 C11 -180(2) . 7_455
C13 C11 C12 C12 0(2) . 2_565
C13 C11 C8 C5 2(3) . .
C13 C11 C8 C9 178.6(15) . .
C2 C3 C4 C5 -2(2) . .
C2 C7 C6 C5 4(3) . .
C5 C8 C9 C8 177(2) . 7_455
C5 C8 C9 C10 -3(2) . .
C9 C8 C5 C4 -78(2) . .
C9 C8 C5 C6 102(2) . .
