#------------------------------------------------------------------------------
#$Date: 2019-11-25 22:30:06 +0200 (Mon, 25 Nov 2019) $
#$Revision: 241967 $
#$URL: file:///home/coder/svn-repositories/cod/cif/4/13/18/4131836.cif $
#------------------------------------------------------------------------------
#
# This file is available in the Crystallography Open Database (COD),
# http://www.crystallography.net/
#
# All data on this site have been placed in the public domain by the
# contributors.
#
data_4131836
loop_
_publ_author_name
'Yan, Yong'
'O'Connor, Alice E'
'Kanthasamy, Gopikkaa'
'Atkinson, George'
'Allan, David R.'
'Blake, Alexander J.'
'Schr\"oder, Martin'
_publ_section_title
;
 Unusual and Tunable Negative Linear Compressibility in the Metal-Organic
 Framework MFM-133(M) (M = Zr, Hf).
;
_journal_issue                   11
_journal_name_full               'Journal of the American Chemical Society'
_journal_page_first              3952
_journal_page_last               3958
_journal_paper_doi               10.1021/jacs.7b11747
_journal_volume                  140
_journal_year                    2018
_chemical_formula_moiety         'C88 H72 Hf6 O32'
_chemical_formula_sum            'C88 H72 Hf6 O32'
_chemical_formula_weight         2708.36
_space_group_crystal_system      tetragonal
_space_group_IT_number           128
_space_group_name_Hall           '-P 4 2n'
_space_group_name_H-M_alt        'P 4/m n c'
_atom_sites_solution_hydrogens   geom
_audit_creation_date             2017-02-05
_audit_creation_method
;
Olex2 1.2
(compiled 2015.09.30 svn.r3233 for OlexSys, GUI svn.r5103)
;
_cell_angle_alpha                90
_cell_angle_beta                 90
_cell_angle_gamma                90
_cell_formula_units_Z            2
_cell_length_a                   19.465(2)
_cell_length_b                   19.465(2)
_cell_length_c                   32.371(5)
_cell_measurement_reflns_used    1524
_cell_measurement_temperature    293(2)
_cell_measurement_theta_max      21.3200
_cell_measurement_theta_min      1.8840
_cell_volume                     12265(3)
_computing_cell_refinement       'CrysAlisPro 1.171.38.41 (Rigaku OD, 2015)'
_computing_data_collection       'CrysAlisPro 1.171.38.41 (Rigaku OD, 2015)'
_computing_data_reduction        'CrysAlisPro 1.171.38.41 (Rigaku OD, 2015)'
_computing_molecular_graphics    'Olex2 (Dolomanov et al., 2009)'
_computing_publication_material  'Olex2 (Dolomanov et al., 2009)'
_computing_structure_refinement  'ShelXL (Sheldrick, 2015)'
_computing_structure_solution    'ShelXT (Sheldrick, 2015)'
_diffrn_ambient_temperature      293(2)
_diffrn_detector                 'CCD plate'
_diffrn_measured_fraction_theta_full 0.737
_diffrn_measured_fraction_theta_max 0.737
_diffrn_measurement_details
;
List of Runs (angles in degrees, time in seconds):

  # Type    Start    End  Width  t~exp~   \w     \q     \k     \f   Frames
--------------------------------------------------------------------------
  1  \w   -105.00 -85.00   0.20    0.20    --   20.00  70.00 155.77  100
  2  \w   -105.00 -74.00   0.20    0.20    --   20.00  70.00 -24.23  155
  3  \w   -106.00 -66.00   0.20    0.20    --  -20.00 -70.00-155.77  200
  4  \w   -106.00 -66.00   0.20    0.20    --  -20.00 -70.00  24.23  200
  5  \w   -150.00 -94.00   0.20    0.20    --  -20.00  70.00 -24.23  280
  6  \w   -146.60 -94.00   0.20    0.20    --  -20.00  70.00 155.77  263
  7  \w    -96.00 -30.00   0.20    0.20    --   20.00 -70.00  24.23  330
  8  \w    -96.00 -30.00   0.20    0.20    --   20.00 -70.00-155.77  330
;
_diffrn_measurement_device       'abstract diffractometer'
_diffrn_measurement_device_type
'dectris-CrysAlisPro-abstract goniometer imported dectris images'
_diffrn_measurement_method       '\w scans'
_diffrn_orient_matrix_type
'CrysAlisPro convention (1999,Acta A55,543-557)'
_diffrn_orient_matrix_UB_11      0.0014124000
_diffrn_orient_matrix_UB_12      0.0295240000
_diffrn_orient_matrix_UB_13      0.0117227000
_diffrn_orient_matrix_UB_21      0.0257472000
_diffrn_orient_matrix_UB_22      -0.0141130000
_diffrn_orient_matrix_UB_23      0.0118798000
_diffrn_orient_matrix_UB_31      0.0242569000
_diffrn_orient_matrix_UB_32      0.0134676000
_diffrn_orient_matrix_UB_33      -0.0132054000
_diffrn_radiation_monochromator  synchrotron
_diffrn_radiation_probe          x-ray
_diffrn_radiation_wavelength     0.6889
_diffrn_reflns_av_R_equivalents  0.7718
_diffrn_reflns_av_unetI/netI     0.4696
_diffrn_reflns_Laue_measured_fraction_full 0.737
_diffrn_reflns_Laue_measured_fraction_max 0.737
_diffrn_reflns_limit_h_max       21
_diffrn_reflns_limit_h_min       -21
_diffrn_reflns_limit_k_max       15
_diffrn_reflns_limit_k_min       -15
_diffrn_reflns_limit_l_max       32
_diffrn_reflns_limit_l_min       -32
_diffrn_reflns_number            24509
_diffrn_reflns_point_group_measured_fraction_full 0.737
_diffrn_reflns_point_group_measured_fraction_max 0.737
_diffrn_reflns_theta_full        22.743
_diffrn_reflns_theta_max         22.743
_diffrn_reflns_theta_min         1.883
_diffrn_source                   synchrotron
_exptl_absorpt_coefficient_mu    2.327
_exptl_absorpt_correction_type   none
_exptl_crystal_density_diffrn    0.733
_exptl_crystal_F_000             2568
_refine_diff_density_max         5.145
_refine_diff_density_min         -3.066
_refine_diff_density_rms         0.373
_refine_ls_extinction_coef       0.009(2)
_refine_ls_extinction_expression Fc^*^=kFc[1+0.001xFc^2^\l^3^/sin(2\q)]^-1/4^
_refine_ls_extinction_method     'SHELXL-2014/7 (Sheldrick 2014'
_refine_ls_goodness_of_fit_ref   1.244
_refine_ls_hydrogen_treatment    constr
_refine_ls_matrix_type           full
_refine_ls_number_parameters     77
_refine_ls_number_reflns         3425
_refine_ls_number_restraints     73
_refine_ls_restrained_S_all      3.305
_refine_ls_R_factor_all          0.4150
_refine_ls_R_factor_gt           0.2877
_refine_ls_shift/su_max          0.320
_refine_ls_shift/su_mean         0.053
_refine_ls_structure_factor_coef Fsqd
_refine_ls_weighting_details
'w=1/[\s^2^(Fo^2^)+(0.2000P)^2^] where P=(Fo^2^+2Fc^2^)/3'
_refine_ls_weighting_scheme      calc
_refine_ls_wR_factor_gt          0.5240
_refine_ls_wR_factor_ref         0.6662
_reflns_Friedel_coverage         0.000
_reflns_number_gt                1034
_reflns_number_total             3425
_reflns_threshold_expression     'I > 2\s(I)'
_cod_data_source_file            HfMOF_All.cif
_cod_data_source_block           HfMOF_9.1kbar
_cod_original_cell_volume        12264(3)
_cod_database_code               4131836
_chemical_oxdiff_formula         'C88 H72 Hf6 O32'
_shelx_space_group_comment
;
The symmetry employed for this shelxl refinement is uniquely defined
by the following loop, which should always be used as a source of
symmetry information in preference to the above space-group names.
They are only intended as comments.
;
_reflns_odcompleteness_completeness 53.69
_reflns_odcompleteness_iscentric 1
_reflns_odcompleteness_theta     25.50
_olex2_refinement_description
;
1. Fixed Uiso
 At 1.2 times of:
  All C(H) groups
 At 1.5 times of:
  All C(H,H,H) groups
2. Restrained distances
 O13-C12
 1.41 with sigma of 0.01
 C12-O1
 1.41 with sigma of 0.01
 C6-C12 = C9-C3
 1.41 with sigma of 0.02
 C6-C12 = C9-C3
 1.41 with sigma of 0.01
 C9-C3 = C6-C12
 1.41 with sigma of 0.01
 Hf1-O13 = Hf2-O1
 2.11 with sigma of 0.02
 O1-C12 = O13-C12
 1.41 with sigma of 0.02
 C9-C15 = C9-C10
 1.41 with sigma of 0.02
 C10-C11 = C16-C17
 1.45 with sigma of 0.005
 C4-C5 = C7-C8
 1.39 with sigma of 0.01
 C6-C12 \\sim C9-C3
 with sigma of 0.01
 C9-C3 \\sim C6-C12
 with sigma of 0.01
 C11-C10 \\sim C16-C15 \\sim C17-C15
 with sigma of 0.01
 C9-C17 \\sim C15-C17 \\sim C9-C11 \\sim C11-C9D
 with sigma of 0.005
 C3-C7 \\sim C8-C6 \\sim C7-C5 \\sim C6-C4 \\sim C5-C3 \\sim C4-C8
 with sigma of 0.01
3. Restrained planarity
 C12, C6, C5, C4, C3, C9, C8, C7
 with sigma of 0.01
 C9, C3, C8, C7, C6, C12, C5, C4
 with sigma of 0.01
 C9, C3, C8, C4
 with sigma of 0.01
 C17, C15, C16, C10, C9, C11
 with sigma of 0.01
4. Rigid bond restraints
 C6, Hf2, Hf1, C8, C3, C5, C4, C7, C9, C10, C11, C12, C15, C16, C17, O1, O4,
 O13, O19, O20
 with sigma for 1-2 distances of 0.01 and sigma for 1-3 distances of 0.01
5. Uiso/Uaniso restraints and constraints
C6 \\sim Hf2 \\sim Hf1 \\sim C8 \\sim C3 \\sim C5 \\sim C4 \\sim C7 \\sim C9
\\sim C10 \\sim C11 \\sim C12 \\sim C15 \\sim C16 \\sim C17 \\sim O1 \\sim O4
\\sim O13 \\sim O19 \\sim O20: within 1.7A with sigma of 0.04 and sigma for
terminal atoms of 0.08
6. Others
 Fixed Sof: C16(0.5) C15(0.5) C15D(0.00001) C9D(0.00001) C10(0.5) C11(0.5)
 H11A(0.5) H11B(0.5) H11C(0.5)
 Fixed Uiso: C15D(0.05) C9D(0.05)
7.a Aromatic/amide H refined with riding coordinates:
 C4(H4), C5(H5), C7(H7), C8(H8)
7.b Fitted hexagon refined as free rotating group:
 C9(C16,C15,C15D,C9D,C10)
7.c Idealised Me refined as rotating group:
 C11(H11A,H11B,H11C), C17(H,HA,HB)
;
_shelx_res_file
;
    gkme_1_.res created by SHELXL-2014/7

TITL gkme_1__a.res in P4/mnc
REM Old TITL GKME_1_ in P4/mnc #128
REM SHELXT solution in P4/mnc
REM R1 0.344, Rweak 0.071, Alpha 0.106, Orientation as input
REM Formula found by SHELXT: C170 O8 Hf3
CELL 0.6889 19.464504 19.464504 32.370931 90 90 90
ZERR 2 0.001995 0.001995 0.005174 0 0 0
LATT 1
SYMM -X,-Y,+Z
SYMM -Y,+X,+Z
SYMM +Y,-X,+Z
SYMM 0.5-X,0.5+Y,0.5-Z
SYMM 0.5+X,0.5-Y,0.5-Z
SYMM 0.5+Y,0.5+X,0.5-Z
SYMM 0.5-Y,0.5-X,0.5-Z
SFAC C H Hf O
DISP C 0.003 0.001 10.848
DISP H -0 0 0.623
DISP Hf -0.293 6.108 23452.874
DISP O 0.011 0.006 30.192
UNIT 176 136 12 64
DFIX 1.41 0.01 O13 C12
DFIX 1.41 0.01 C12 O1
DFIX 1.41 C6 C12 C9 C3
DFIX 1.41 0.01 C6 C12 C9 C3
DFIX 1.41 0.01 C9 C3 C6 C12
DFIX 2.11 Hf1 O13 Hf2 O1
DFIX 1.41 O1 C12 O13 C12
DFIX 1.41 C9 C15 C9 C10
DFIX 1.45 0.005 C10 C11 C16 C17
DFIX 1.39 0.01 C4 C5 C7 C8
SADI 0.01 C6 C12 C9 C3
SADI 0.01 C9 C3 C6 C12
SADI 0.01 C11 C10 C16 C15 C17 C15
SADI 0.005 C9 C17 C15 C17 C9 C11 C11 C9D
SADI 0.01 C3 C7 C8 C6 C7 C5 C6 C4 C5 C3 C4 C8
FLAT 0.01 C12 C6 C5 C4 C3 C9 C8 C7
FLAT 0.01 C9 C3 C8 C7 C6 C12 C5 C4
FLAT 0.01 C9 C3 C8 C4
FLAT 0.01 C17 C15 C16 C10 C9 C11
DELU C6 Hf2 Hf1 C8 C3 C5 C4 C7 C9 C10 C11 C12 C15 C16 C17 O1 O4 O13 O19 O20
SIMU 0.04 0.08 1.7 C6 Hf2 Hf1 C8 C3 C5 C4 C7 C9 C10 C11 C12 C15 C16 C17 O1 =
 O4 O13 O19 O20

L.S. 6
PLAN  9
MPLA 6 C3 C4 C5 C6 C7 C8
MPLA 4 C9 C10 C15 C16
CONN 1 0 C17
FREE C17 C15D
FREE C17 C15
BIND C9D C10
BIND Hf1 Hf2
BIND C16 C17
BOND
MORE -1
BOND $H
CONF
fmap 2
acta 52
OMIT -4 52
OMIT 2 3 0
OMIT 2 2 2
OMIT 1 6 0
OMIT 4 5 5
OMIT 8 9 7
OMIT 8 8 8
OMIT 1 2 0
OMIT 3 5 3
OMIT 7 8 9
OMIT 8 9 9
OMIT 3 8 1
OMIT 0 3 3
REM <olex2.extras>
REM <HklSrc "%.\\GKME_1_.hkl">
REM </olex2.extras>

WGHT    0.200000
EXTI    0.009172
FVAR       0.09150
HF1   3   -0.041311    0.121340    0.000000    10.50000    0.11624    0.10140 =
         0.04117    0.00000    0.00000    0.01511
HF2   3    0.000000    0.000000    0.076072    10.25000    0.08938    0.08938 =
         0.03901    0.00000    0.00000    0.00000
O1    4   -0.017387    0.093206    0.109930    11.00000    0.04862
O4    4   -0.069715    0.031050    0.038405    11.00000    0.07733
O13   4   -0.064989    0.163356    0.060117    11.00000    0.10250
O19   4   -0.153440    0.160139    0.000000    10.50000    0.05554
O20   4   -0.002610    0.227950    0.000000    10.50000    0.07065
C3    1   -0.064341    0.308922    0.191773    11.00000    0.06452
C4    1   -0.081458    0.323540    0.150197    11.00000    0.10915
SPEC 0.3
AFIX  43
H4    2   -0.094277    0.367610    0.142212    11.00000   -1.20000
AFIX   0
C5    1   -0.078618    0.270402    0.121644    11.00000    0.12408
AFIX  43
H5    2   -0.089783    0.279413    0.094241    11.00000   -1.20000
AFIX   0
C6    1   -0.059929    0.205339    0.132600    11.00000    0.11781
C7    1   -0.042771    0.190654    0.174211    11.00000    0.10132
AFIX  43
H7    2   -0.029927    0.146589    0.182192    11.00000   -1.20000
AFIX   0
C8    1   -0.045652    0.243881    0.202779    11.00000    0.10083
AFIX  43
H8    2   -0.034519    0.234908    0.230192    11.00000   -1.20000
AFIX  66
C9    1   -0.066720    0.361786    0.221585    11.00000    0.06466
PART -2
C16   1   -0.015622    0.411386    0.218375    10.50000    0.04632
PART 0
C15   1   -0.013404    0.465518    0.246349    10.50000    0.04909
PART 3
C15D  1   -0.062285    0.470051    0.277534    10.00001   10.05000
C9D   1   -0.113384    0.420452    0.280744    10.00001   10.05000
PART 0
PART -1
C10   1   -0.115602    0.366320    0.252770    10.50000    0.06716
AFIX   0
C11   1   -0.168415    0.314999    0.256059    10.50000    0.14205
AFIX 137
H11A  2   -0.209368    0.331114    0.242672    10.50000   -1.50000
H11B  2   -0.177941    0.306217    0.284673    10.50000   -1.50000
H11C  2   -0.153209    0.273386    0.243027    10.50000   -1.50000
AFIX   0
PART 0
C12   1   -0.057529    0.152425    0.102865    11.00000    0.08393
PART -2
C17   1    0.034659    0.413459    0.189930    11.00000    0.13727
PART 0
AFIX 137
H     2    0.037925    0.369666    0.176430    11.00000   -1.50000
HA    2    0.077538    0.423879    0.203176    11.00000   -1.50000
HB    2    0.024418    0.448313    0.169870    11.00000   -1.50000
AFIX   0
HKLF 4

REM  gkme_1__a.res in P4/mnc
REM R1 =  0.2877 for    1034 Fo > 4sig(Fo)  and  0.4150 for all    3425 data
REM     77 parameters refined using     73 restraints

END

WGHT      0.2000      0.0000

REM Highest difference peak  5.145,  deepest hole -3.066,  1-sigma level  0.373
Q1    1   0.0000  0.0000  0.0112  10.25000  0.05    2.23
Q2    1  -0.0965  0.0453  0.0349  11.00000  0.05    1.84
Q3    1  -0.1104  0.0618  0.0385  11.00000  0.05    1.77
Q4    1  -0.0407  0.2118  0.0271  11.00000  0.05    1.65
Q5    1  -0.1207  0.0647  0.0677  11.00000  0.05    1.50
Q6    1  -0.0069  0.1434  0.1470  11.00000  0.05    1.30
Q7    1  -0.0046  0.1207  0.1189  11.00000  0.05    1.27
Q8    1  -0.0010  0.0828  0.1026  11.00000  0.05    1.27
Q9    1   0.0986  0.3037  0.0990  11.00000  0.05    1.12
;
_shelx_res_checksum              21210
_shelx_hkl_file
;
   0   0   3   -1.47    2.13
   0   0  -3   -2.16    2.21
   0   0   4  125.93  118.36
   0   0   5   -2.47    3.43
   0   1  -2   -0.88    1.67
   1   0  -3 1927.80 1808.44
   1   0  -4    1.94    3.34
   1   0  -4   -1.48    2.93
   0  -1   4   -5.91    3.71
  -1   0   4   -2.02    2.72
   0   1  -4   -1.34    3.22
   1   0  -5  109.05  127.08
  -1   0   5   27.69  126.99
   0   1  -6    2.07    4.04
   0  -1   6   -2.95    4.29
  -1   0   6    3.02    3.41
   1   0  -6   -2.91    4.84
  -1   0   7   14.10  135.30
   1   0  -7  183.70  135.89
   0  -1   7  475.88  136.64
   0  -1   8   11.95   12.83
   0   1  -8   11.55   12.85
   0  -1   9 1077.51 1011.25
   0   1 -10   -4.86   12.45
   0   1 -11 4577.42 3940.00
   0   1 -11 3969.84 3939.75
   0  -1  12   12.12   11.81
   0   1 -12    4.45   11.11
   0   1 -12   -5.81   15.86
   0   1 -13 2950.33 1046.48
   0   1 -13 3528.77 1047.36
   0  -1  13  282.03 1045.08
   0   1 -14  -13.53   20.96
   0   1 -14   -5.18   11.84
   0  -1  14    7.05   11.42
   0  -1  15   82.97  438.62
   0   1 -15 3610.64  445.54
  -1   1  -2 5119.00 5604.49
  -1  -1   2 9999.00 5604.64
   1   1  -2 5226.05 5604.44
   1  -1   3    1.49    2.66
  -1  -1   3   -1.64    2.93
   1   1  -3   -1.91    4.36
   1   1  -3    1.13    2.68
  -1   1  -3    6.97    4.20
  -1   1  -3    4.13    2.84
   1   1  -4  439.46  167.48
  -1  -1   4   11.14  167.12
  -1  -1   4  327.71  167.52
   1  -1   4  379.03  167.57
   1   1  -4  196.91  167.20
  -1  -1   4  253.46  167.23
   1   1  -4  231.97  167.47
  -1   1  -4  289.10  167.35
   1   1  -4   24.28  167.10
  -1  -1   5    2.50    3.73
   1   1  -5    1.72    3.56
   1   1  -5   -1.23    2.00
   1   1  -5   -2.63    5.20
  -1   1  -5   -2.49    5.45
  -1   1  -5   -3.40    3.77
   1  -1   5   -2.37    3.56
   1   1  -6  272.90  218.39
  -1  -1   6  273.82  218.35
  -1   1  -6  289.33  218.37
   1   1  -6  192.07  218.12
  -1   1  -6  226.81  218.17
   1  -1   6  213.63  218.23
   1  -1   7    3.44    6.05
  -1   1  -7    9.97    7.22
   1   1  -7   10.56    9.76
   1   1  -7   -2.53    6.52
  -1   1  -7   -3.40    8.81
  -1  -1   7    7.12    7.72
  -1   1  -8  995.38  736.79
   1   1  -8  911.73  736.85
   1  -1   8  581.63  736.57
   1  -1   9    9.02    8.62
  -1  -1   9   13.88    9.98
   1   1  -9   -3.28    8.80
   1   1 -10 2191.26 2056.04
  -1  -1  11   -5.62    8.76
   1  -1  11    5.51    9.31
   1   1 -11  -10.78   13.23
   1   1 -11    4.08    9.17
  -1   1 -11  -10.57   12.97
  -1   1 -11   -4.04    8.71
   1   1 -12 2429.78  861.10
  -1  -1  12  568.96  860.18
   1  -1  12  240.51  859.94
  -1   1 -12 3256.46  862.18
  -1   1 -13   -6.24   16.65
  -1   1 -13   -4.78    9.36
  -1  -1  13   -6.61    8.93
   1   1 -13    6.34   16.92
   1  -1  13    6.51   11.05
   1   1 -13   -4.85   10.50
   1   1 -14 1731.74  413.28
   1  -1  14   98.08  410.15
  -1  -1  14  127.89  410.25
  -1   1 -14 2095.95  414.52
   1   1 -15  -14.58   18.99
  -1   1 -15    7.19   19.59
  -1  -1  15    7.59   11.65
  -2   0   0 8835.30 6568.76
   2   0   0 5941.69 6568.70
   2   0  -1    1.15    2.22
   2   0   1    1.11    2.35
   2   0   1    2.53    2.63
  -2   0  -1    1.57    3.35
   2   0  -2 1058.99  805.69
  -2   0   2  637.64  805.67
   2   0   3   -1.34    2.25
  -2   0  -3   -1.72    2.46
   2   0  -3   -1.77    3.20
   2   0  -3    1.14    2.41
  -2   0   3   -3.14    2.31
   2   0  -3   -1.51    3.07
   0   2  -3   -1.55    3.05
   2   0  -3   -1.47    2.84
  -2   0   3   -4.64    5.27
  -2   0   4   93.04  105.80
   2   0  -4    3.90  105.63
  -2   0   5   -2.57    3.55
   0  -2   5   -2.78    4.94
   2   0  -5   -2.48    4.56
   2   0  -5    1.89    3.01
   0   2  -5    3.93    4.70
  -2   0   6   15.36  160.89
   0  -2   6  346.56  161.66
   0   2  -6  334.88  161.38
   2   0  -6  167.05  161.10
   2   0  -6  183.83  161.29
   0   2  -7   -4.85    5.92
  -2   0   7    7.16    4.96
   0  -2   7    3.56    6.36
   2   0  -7   -3.45    7.46
   0  -2   8   63.80   74.75
   0   2  -8  111.29   74.86
   2   0  -8   51.26   74.71
   0   2  -8   63.28   75.65
   0  -2  11    5.63   10.70
   0   2 -11   -4.00   11.36
   0   2 -11    5.82   16.31
   0   2 -12 1595.31 1480.44
   0   2 -12 1567.63 1480.16
   0  -2  13  -13.42   16.76
   0   2 -13  -19.84   22.08
   0   2 -13   -4.76   14.34
   0   2 -14 1398.84 1025.89
   0  -2  14  712.14 1025.74
   0   2 -14 1275.88 1026.29
   0  -2  15   -7.67   13.77
   0   2 -15   -5.56   14.32
   0   2 -15    7.56   22.06
   0  -2  16   73.35  231.13
   0   2 -16  425.42  231.99
   0   2 -16  329.34  233.08
   0  -2  17   25.87   24.08
   0   2 -17   25.31   23.96
   0   2 -17   -8.50   31.86
   0   2 -18   60.02   28.07
   0  -2  18   -9.09   28.23
   0   2 -18    8.96   35.33
   0   2 -19   18.83   30.06
   0  -2  19   19.10   21.51
   0   2 -19    7.01   19.56
   0  -2  20   10.00   17.01
   0   2 -20   -9.86   33.83
  -2   1   0    3.95   15.50
   2   1   0   10.04   15.23
   2  -1   0   23.87   15.44
   2  -1   0   17.51   15.42
  -2  -1   0   24.56   15.75
   2  -1   1 2132.08  799.73
  -2   1  -1 1719.80  799.78
  -2  -1   1 2654.65  800.02
   2   1  -1 1773.88  799.68
  -2  -1  -1    9.82  799.37
   2  -1   1 2260.72  799.70
   2   1  -2   57.35   38.29
   2   1  -2   17.08   38.39
  -2  -1   2   35.28   38.42
   2  -1   2   25.78   38.25
   1  -2   2    2.18   38.21
   2   1  -2   56.66   38.34
   2   1  -2   29.81   38.16
  -1  -2   2    2.39   38.18
  -2   1  -2   69.78   38.42
  -2  -1   2   57.59   38.51
  -1   2  -2   -2.16   38.26
   1   2  -2    2.37   38.24
   2  -1   2   59.40   38.24
   1   2  -3   13.15  258.47
   1   2  -3   19.39  258.49
   2  -1   3 1578.31  259.17
   1  -2   3  649.96  259.16
  -2   1  -3 1123.20  259.29
   1   2  -3   13.62  258.57
   2   1  -3 1219.39  259.53
  -2   1  -3 1147.37  259.15
  -1  -2   3    5.18  258.46
   2   1  -3 1505.30  259.38
  -2   1  -3 1252.08  258.97
   2   1  -3 1274.40  259.11
  -1   2  -3   61.30  258.51
   2  -1   3 1257.54  258.96
  -1   2  -3   15.10  258.53
   2  -1   3 1125.24  259.13
  -2   1  -4   37.25   19.47
   2   1  -4   16.55   19.31
  -1   2  -4   24.08   19.47
  -1  -2   4   20.70   20.55
  -2  -1   4   37.88   19.81
   2   1  -4   21.42   19.31
   1   2  -4   14.68   19.45
  -1   2  -4   23.54   20.67
  -2  -1   4   32.19   20.09
   2   1  -4   28.67   19.37
  -2   1  -4   20.17   19.76
   1   2  -4   20.39   19.20
  -1  -2   4   25.85   19.34
   2   1  -4   23.85   20.03
   1   2  -4   15.71   20.90
   2  -1   4    4.28   19.04
   2  -1   4   57.78   19.77
   1   2  -4   11.26   19.04
  -2   1  -4   -1.42   19.19
   2  -1   4   30.62   19.26
  -2  -1   5   12.38  113.42
   2  -1   5  148.84  113.56
   2   1  -5   20.64  113.25
   2   1  -5  129.12  113.42
   1   2  -5  127.85  113.32
  -1   2  -5  212.38  113.64
   2   1  -5  194.47  113.86
  -2  -1   5  164.04  113.64
  -2   1  -5  180.02  113.76
  -2   1  -5  199.31  113.54
   2   1  -5  178.65  113.62
   2  -1   5    5.70  113.20
  -1  -2   5  176.77  113.78
  -1  -2   5  216.60  113.49
  -1   2  -5  153.86  113.99
   1   2  -5  123.57  113.86
   1  -2   5  175.69  113.68
   1   2  -5  151.43  113.59
  -1  -2   6   46.41   23.48
   2   1  -6   28.53   24.35
   1   2  -6   13.43   23.60
  -1  -2   6   19.34   23.76
   1   2  -6   43.01   25.58
   2   1  -6    2.05   23.47
   2   1  -6   18.66   23.35
   1   2  -6   27.43   23.11
  -2  -1   6   49.20   24.19
  -2   1  -6   18.52   23.48
   1  -2   6   21.57   23.78
  -2   1  -6   57.29   24.59
  -1  -2   6    7.77   23.56
   1   2  -6   -1.18   23.14
   2   1  -6   47.47   23.76
  -1   2  -6   32.50   25.53
   2  -1   6   34.80   23.79
  -1   2  -6   35.70   23.66
  -2   1  -7  122.62   84.84
  -1   2  -7  123.68   84.84
   1   2  -7   98.85   84.89
   1   2  -7  119.71   84.46
   2  -1   7   76.07   84.78
  -1   2  -7  114.78   85.60
  -1  -2   7   94.35   84.96
  -2  -1   7  105.19   84.96
   1  -2   7   87.34   84.96
   1   2  -7  166.36   85.94
   2   1  -7  121.15   84.92
   2   1  -7  138.69   85.30
   1   2  -7   -1.32   84.33
  -2   1  -7  113.70   85.17
  -2   1  -8  106.14   66.77
   2  -1   8   47.49   66.06
  -2   1  -8   68.82   66.09
  -1   2  -8   57.82   67.10
  -2  -1   8   57.51   66.40
   2   1  -8   81.28   66.95
   2   1  -8   95.38   66.36
   1  -2   8   87.35   66.39
   1   2  -8   96.20   66.38
  -1   2  -8  112.23   66.42
  -1  -2   8   64.86   66.53
   1   2  -8   45.82   65.78
  -2   1  -9   -6.46    8.10
   2  -1   9   -8.92    8.57
   1   2  -9   -1.37    5.09
   1   2 -10   21.62   21.63
  -1   2 -10   -5.27   20.34
   2   1 -10   20.10   19.73
   1   2 -10   17.87   17.16
  -1  -2  10   15.28   17.67
  -1   2 -11  950.61  598.60
  -2   1 -11  916.55  598.43
  -2  -1  11  261.42  597.73
   1   2 -11  933.69  598.24
  -2   1 -11  805.47  598.05
   2   1 -11  853.74  598.12
   1   2 -11  807.24  598.61
   1  -2  11  990.80  598.46
  -1   2 -11 1228.99  598.32
   2  -1  11   76.51  597.52
   2   1 -12   17.94   11.66
  -1   2 -12  -12.15   17.44
  -1  -2  12    6.16   12.34
  -2  -1  12    6.18    9.43
  -1   2 -12   -8.76   11.21
   2  -1  12   -5.97   10.27
   1   2 -12   -6.38   18.31
  -2   1 -12   11.44   14.87
   1   2 -12   13.13   10.84
   1  -2  12   -6.04   10.02
   2   1 -12   -5.99   15.32
  -2   1 -12   -8.75    9.44
  -1   2 -13  845.25  508.97
   2   1 -13 1118.97  509.84
   1  -2  13  805.38  509.33
  -1  -2  13  812.74  509.32
   2  -1  13   25.87  508.12
  -2   1 -13 1059.97  509.77
   1   2 -13 1144.51  509.38
  -2  -1  13  126.78  508.27
  -2   1 -14   13.35   20.37
  -1  -2  14   14.51   15.30
  -2  -1  14  -14.33   13.61
  -1   2 -14   41.40   13.69
   2   1 -14   -5.26   10.59
   1  -2  14  -14.28   15.76
   2   1 -14   -6.95   19.17
  -1   2 -14  -14.07   20.97
   1   2 -14  -10.30   13.42
  -1   2 -15  165.20  195.82
  -2   1 -15  393.31  196.31
  -2  -1  15   15.30  194.52
   1   2 -15  302.80  195.65
   1  -2  15  106.71  194.93
  -1  -2  15  224.19  195.37
   2   1 -15  393.20  196.69
  -1   2 -15  254.10  195.44
   2   1 -16   31.55   33.95
  -1  -2  16   32.82   27.55
   1  -2  16   32.40   28.22
  -1   2 -16   55.87   33.75
  -1   2 -16   29.35   28.03
   1   2 -16   11.90   27.59
  -2  -1  16    8.14   26.72
   1  -2  17    8.58   31.17
   1   2 -17   44.58   32.89
  -1   2 -17   37.74   32.02
  -1   2 -17   67.60   39.05
  -1  -2  17    8.68   32.47
  -1   2 -18   -8.91   26.69
   1   2 -18   46.97   15.96
  -1   2 -18   -6.63   14.88
   1  -2  18  -18.09   14.66
  -1  -2  18   -9.14   13.57
   1  -2  19    9.51   17.80
  -1  -2  19    9.60   16.82
  -1   2 -19   -9.37   30.66
   1   2 -19   14.09   16.37
  -1   2 -20   -9.82   30.04
  -1  -2  20  -10.05   19.10
  -2  -2   1    2.21    2.51
   2   2  -1   -1.72    2.12
   2  -2   2    2.08    6.73
   2   2  -2    2.48    7.05
  -2   2  -2   -2.06    6.64
   2   2  -2   -1.66    6.17
   2  -2   2    4.24    6.26
   2   2  -2    1.62    6.05
  -2  -2   2    2.50    7.07
   2  -2   3    2.35    5.12
   2   2  -3    3.19    2.86
   2   2  -3   -1.68    3.61
   2  -2   3    1.24    2.81
   2  -2   3    2.04    2.76
  -2  -2   3    2.76    6.09
  -2   2  -3    3.26    4.62
   2   2  -3    5.66    6.37
   2   2  -3    1.62    3.88
  -2   2  -3   -4.83    6.22
  -2  -2   3   -2.05    4.80
  -2   2  -3    1.44    3.73
  -2   2  -4   51.25   78.04
   2   2  -4  114.80   77.74
  -2  -2   4   48.88   78.01
   2   2  -4   77.67   77.81
   2   2  -4   45.59   78.07
   2   2  -4   92.53   77.76
  -2  -2   4  211.10   78.24
  -2   2  -4   76.51   77.77
  -2   2  -4   39.35   77.70
   2  -2   4   96.38   78.13
   2  -2   4   60.72   77.61
   2   2  -5    7.26   10.18
  -2  -2   5    2.93    5.63
  -2  -2   5    1.93    5.48
  -2   2  -5   -1.81    4.51
   2   2  -5    2.79    3.28
   2   2  -5    1.63    3.73
  -2   2  -5    9.77    9.39
   2  -2   5   -2.63    4.47
   2   2  -5   -2.07    4.96
  -2  -2   6 4653.72 2650.03
  -2  -2   6 2733.55 2650.05
   2   2  -6 3522.71 2650.00
  -2   2  -6 3288.93 2649.97
   2   2  -6 1889.01 2650.01
  -2   2  -6 2570.94 2650.11
   2  -2   6 2842.74 2650.04
   2   2  -6 1992.14 2649.81
   2   2  -7   -5.04    7.39
  -2   2  -7    4.67    6.48
   2   2  -7   -4.35   12.42
  -2  -2   7   -3.70    8.01
   2  -2   7  -17.15    7.48
  -2  -2   7   -5.30    9.68
   2   2  -7   -1.53    4.97
  -2   2  -7   -3.89   10.85
   2   2  -7    2.01    5.72
   2   2  -8   72.00   45.36
  -2  -2   8  111.36   46.06
   2  -2   8   86.03   45.59
  -2  -2   8   -2.81   45.18
  -2   2  -8  113.17   45.40
   2   2  -8   -2.16   44.55
  -2   2  -8   61.30   46.38
   2   2  -8   90.60   44.73
   2  -2   8   13.86   44.29
   2   2  -9   -4.64    6.12
  -2   2  -9   15.60    9.59
   2  -2   9   -4.45    9.77
   2   2  -9    7.39    6.84
   2   2 -10   36.23   20.24
   2   2 -10   16.22   18.26
  -2   2 -10   10.42   23.78
   2   2 -10    5.48   23.17
  -2  -2  10   10.33   19.65
  -2  -2  11   -5.62   10.01
   2  -2  11   11.03    9.82
   2   2 -11   -2.20    5.83
  -2   2 -11   -5.70   16.37
  -2   2 -11  -11.73   10.02
   2   2 -11    8.18   11.14
   2   2 -11   17.90   17.77
   2   2 -12  632.40  234.47
  -2   2 -12  572.15  234.45
   2  -2  12  379.30  233.33
  -2   2 -12  516.33  233.42
  -2  -2  12  485.73  233.74
   2   2 -12   54.27  232.18
   2   2 -12  411.59  233.14
  -2   2 -13   -6.50   22.76
   2  -2  13   -6.61   14.82
  -2   2 -13   -9.57   14.60
  -2  -2  13  -26.79   15.59
   2   2 -13   27.76   21.93
   2   2 -13   -4.86   13.72
  -2  -2  14  146.37  140.63
   2   2 -14  145.56  140.44
  -2   2 -14  184.98  140.61
  -2   2 -14  244.44  142.26
   2  -2  14   78.02  140.25
   2   2 -14  133.68  141.95
  -2  -2  15   -7.79   13.93
  -2   2 -15   -5.49   12.93
  -2   2 -15  -22.39   23.54
   2  -2  15    7.58   11.62
   2   2 -15    5.66   13.32
   2   2 -15    7.69   22.38
  -2   2 -16   11.82   17.87
  -2   2 -16   15.87   27.49
  -2  -2  16   -8.27   17.78
   2   2 -16   65.24   29.31
   2  -2  16    8.06   17.94
   2   2 -16   24.00   20.01
   2   2 -17   -6.42   14.47
  -2   2 -17   -6.26   13.83
  -2  -2  17   -8.74   17.76
   2  -2  17    8.54   13.93
  -2   2 -17    8.41   24.93
   2   2 -17   -8.62   25.23
   2   2 -18  381.25  136.88
  -2   2 -18  452.56  139.05
   2   2 -18  283.76  133.66
  -2  -2  18    9.20  132.25
   2  -2  18   -9.01  132.02
  -2   2 -19  -18.67   27.25
   2  -2  19   -9.47   15.91
  -2  -2  19   -9.66   16.81
   2   2 -19    7.09   15.50
   2   2 -19    9.53   27.47
  -2  -2  20   10.11  144.95
   2   2 -20  199.51  148.93
  -2   2 -20  538.27  150.51
   2   2 -21   20.83   39.06
   3   0   0   -1.61    2.99
   3   0   0    1.91    3.86
  -3   0   0    4.26    5.20
   3   0   1 1124.15 1114.59
  -3   0  -1 1375.59 1114.73
   3   0   1 1141.23 1114.62
   3   0   2    7.63    4.21
   3   0   2    1.83    3.05
  -3   0   2   -3.04    7.05
   3   0  -2   -1.82    3.15
  -3   0  -2   -2.40    5.14
   3   0  -2    2.12    4.11
  -3   0  -3    2.50    9.57
  -3   0   3   12.89   11.58
   3   0  -3   11.84    9.45
  -3   0   3    4.87    8.69
   3   0  -3   26.44    9.69
   3   0  -3    8.25    8.84
   3   0  -3   25.97    9.99
   3   0   3   -1.89    8.87
  -3   0   4   -2.12    3.09
   3   0   4    3.97    3.03
   3   0  -4    1.56    2.38
   0   3  -4    2.23    4.60
   3   0  -4   -2.16    3.72
  -3   0   4   -6.81    7.83
   0  -3   4    3.72    7.25
  -3   0  -4   -2.56    2.89
   3   0  -4   -2.58    4.44
   3   0  -4    4.09    5.64
   3   0  -5    4.58   15.76
   0  -3   5   36.55   18.40
   0   3  -5   12.50   18.85
   3   0  -5   38.57   16.02
   3   0  -5    5.54   15.97
  -3   0   5   13.12   15.71
   3   0   5    4.11   15.48
   0   3  -5   14.83   16.30
   3   0  -5   48.02   16.75
   3   0  -6    2.95    4.75
   0   3  -6    9.23   13.16
   0  -3   6    4.33   10.81
   3   0  -6   -4.60    4.10
  -3   0   6    3.13    4.34
   0   3  -6    8.05    6.70
   3   0  -6   -3.01    6.81
   0   3  -7 1758.76  408.87
   0   3  -7 1507.41  409.88
   3   0  -8   -8.00   10.97
   0   3  -9   -5.77   20.57
   0   3 -10   -7.03   10.32
   0  -3  10   -5.16   11.90
   0   3 -10   -6.07   18.55
   3   0 -10    4.97   11.52
   0  -3  11   27.90   26.62
   0   3 -11   19.46   25.73
   0   3 -11   32.80   31.37
   0   3 -12   -1.00    3.15
   0  -3  12   12.15   13.96
   0   3 -12   12.57   13.20
   0   3 -12   -7.06   21.77
   0  -3  13  259.32  288.24
   0   3 -13  303.05  288.10
   0   3 -13  423.15  289.26
   0   3 -14   10.32   14.43
   0   3 -14   -7.78   24.78
   0  -3  14   -7.09   14.58
   0  -3  15  154.44  139.09
   0   3 -15  148.05  138.81
   0   3 -15  124.05  140.29
   0  -3  16   -8.17   15.54
   0   3 -16    5.93   15.21
   0   3 -16    8.76   30.92
   0  -3  17   17.61   43.98
   0   3 -17   83.14   52.79
   0   3 -17   56.25   44.74
   0   3 -18    6.71   17.73
   0   3 -18    9.72   33.11
   0  -3  18   -9.26   16.48
   0  -3  19  194.23  341.66
   0   3 -19  502.45  343.28
   0   3 -19  450.62  342.08
   0   3 -20  -14.72   20.10
   0  -3  20   10.16   17.27
   0   3 -20  -10.30   37.48
   0  -3  21  -10.59  116.87
   0   3 -21  186.49  118.14
   0   3 -21  311.68  122.82
   0   3 -22   -8.09   18.94
   0  -3  22   11.02   18.25
   0   3 -23   11.61   44.36
   0   3 -24  149.25   45.36
   0  -3  24  -59.25   23.10
  -3   1   0  325.63  247.37
   3  -1   0  261.74  247.18
  -3  -1   0  351.68  247.43
   3   1   0  208.50  247.12
  -3  -1   1    1.44   76.92
   3  -1  -1  117.89   77.38
  -3  -1   1  377.78   78.46
   3  -1   1  305.64   77.82
   3   1  -1  214.24   77.59
   3  -1  -1  110.44   77.23
   3   1  -1   -2.86   76.94
  -3   1  -1  335.63   78.35
   3   1   1   10.36   76.93
   3  -1   1  317.38   77.63
  -3   1   1   15.29   77.35
   3   1  -1   -0.85   76.90
  -3  -1  -1   38.28   77.18
   3   1  -1  267.45   77.58
   3   1  -2  171.12  106.96
  -3  -1   2  261.08  107.35
   3   1  -2  166.68  106.85
   3  -1   2  169.62  106.90
  -3  -1  -2    2.80  106.57
   3   1   2    2.18  106.57
   3   1  -2  128.25  106.68
  -3   1  -2  196.70  107.04
   3   1  -2    7.23  106.70
   3  -1   2  164.19  106.81
  -3  -1   2   62.06  106.71
  -1   3  -3   -3.32   78.77
  -3   1  -3  118.25   78.75
   1  -3   3    3.35   78.86
  -1  -3   3    3.56   78.75
   3   1  -3  109.78   78.91
  -3  -1   3   81.60   78.83
   3  -1   3  129.41   78.94
   3   1  -3   95.37   79.13
  -3   1  -3  101.62   79.08
  -3  -1   3  132.32   79.22
   3  -1   3  104.84   78.80
  -3   1  -3   47.39   78.82
   3  -1   3  102.56   78.83
   3  -1  -3   -2.67   78.66
   1   3  -3   -7.06   78.86
   3   1  -3   71.51   78.73
   3   1  -4  205.79  131.07
   3   1  -4  296.69  131.44
   1   3  -4    3.87  131.01
   3  -1   4   98.00  130.88
   3  -1   4  194.99  131.04
  -1   3  -4   -3.66  131.04
   1   3  -4   -4.59  130.81
  -1   3  -4    2.17  130.82
  -3   1  -4  255.25  131.24
   3   1  -4  137.76  131.19
   1  -3   4   36.15  130.96
  -1  -3   4  110.79  131.20
  -3  -1   4  232.74  131.20
  -3  -1   4  218.03  131.57
  -3   1  -4  252.58  131.01
  -3   1  -4  150.60  131.07
   3  -1   4  303.10  131.20
  -3   1  -5  293.98  117.70
   1   3  -5   12.81  117.51
   3   1  -5  273.81  117.44
   3   1  -5  310.68  117.43
   3  -1   5  198.23  117.39
   3   1  -5  133.28  117.29
  -1   3  -5   24.13  117.05
   1  -3   5  213.97  118.12
   1   3  -5   30.40  117.09
  -3   1  -5    9.05  116.97
  -1  -3   5  253.89  118.13
  -3  -1   5  286.88  117.66
   3   1  -5  300.99  117.91
   3  -1   5  207.83  117.31
  -3   1  -5  219.32  117.26
  -1   3  -5   40.67  117.57
  -3  -1   5  129.46  117.66
   3  -1   5   -1.71  116.90
  -1   3  -6  271.00  117.39
  -1  -3   6  734.03  119.10
   1   3  -6  278.24  117.66
  -3  -1   6   10.72  116.41
  -3   1  -6  831.00  118.13
  -1  -3   6   16.18  115.81
   1   3  -6    1.12  115.76
   3   1  -6  363.68  117.26
   3   1  -6  181.48  116.36
  -3   1  -6  529.11  116.80
   3   1  -6  550.20  116.96
  -3  -1   7  147.86   79.15
  -1  -3   7  106.26   79.50
   3   1  -7  215.51   79.24
   1  -3   7  102.09   79.22
  -1  -3   7   91.95   78.57
   3   1  -7    5.78   78.55
  -3  -1   7   -7.53   79.16
   3  -1   7    1.86   78.35
   1   3  -7  144.88   80.60
  -3   1  -7  223.77   79.80
   1   3  -7   41.58   78.36
   1   3  -7   79.76   78.48
   3   1  -7  186.03   79.91
  -1   3  -7  129.53   80.66
  -3   1  -7   98.60   78.75
   1   3  -7  196.28   79.32
   3  -1   7   81.70   78.86
   3   1  -7  113.44   78.80
  -1   3  -7  144.54   79.22
  -3  -1   8  334.09  186.50
  -1  -3   8   39.38  185.69
   1   3  -8  477.41  185.84
  -3   1  -8  564.74  187.11
   3   1  -8  536.50  186.65
  -3   1  -8  410.18  186.24
   3   1  -8  166.62  185.89
   3   1  -8  563.47  187.25
   1   3  -8    3.91  185.56
  -1   3  -8  603.98  186.73
  -1  -3   8  731.82  186.22
   3   1  -8  -18.37  185.61
   3  -1   8  160.17  185.91
   1  -3   8  505.52  186.90
   3  -1   8  -11.68  185.54
  -1  -3   9  292.96  127.86
  -3   1  -9  142.25  127.83
   3   1  -9   32.03  127.48
   1   3  -9    1.41  127.33
  -1   3  -9  199.16  129.59
   3  -1   9   13.23  127.45
   1   3  -9  240.32  129.92
   1   3  -9  300.99  127.57
  -1   3 -10   45.09   18.47
   1   3 -10    7.91   14.53
   1   3 -10    6.36   23.43
   3   1 -10   20.37   21.74
  -1  -3  10   13.32   15.43
  -1   3 -10   17.96   23.87
   1  -3  10    5.10   18.18
   1   3 -10   17.80   17.49
  -1  -3  10   57.50   18.52
  -3   1 -11   15.90   15.09
  -3  -1  11    5.75   17.13
  -1   3 -11    6.49   23.44
   3   1 -11   27.87   20.10
   1   3 -11   19.70   17.57
  -1  -3  11   16.94   18.51
  -3   1 -11   31.16   18.86
  -1   3 -11   15.40   16.37
   3  -1  11    5.42   15.16
   3   1 -11   16.70   16.90
   1  -3  11   16.75   17.30
   1   3 -11   11.37   13.69
  -1   3 -12   73.24   69.70
   3   1 -12   27.21   69.14
   3   1 -12   30.27   70.65
   1  -3  12   66.17   70.07
  -3  -1  12   24.98   69.15
   3  -1  12   17.78   68.90
  -1   3 -12   76.89   72.57
   1   3 -12   94.33   68.61
  -1  -3  12  110.51   70.49
  -3   1 -12   79.50   70.80
   1   3 -12  101.64   69.98
   3   1 -13   45.74   20.18
  -1  -3  13   13.43   15.78
   1   3 -13   -4.71   15.05
   3   1 -13    9.90   10.51
  -3  -1  13   -6.74   12.83
   1   3 -13   -1.62    5.67
  -1   3 -13   -9.24   13.98
  -3   1 -13   30.80   17.95
  -1   3 -13    7.23   25.11
   1  -3  13   -6.59   12.91
  -1  -3  14  128.78  114.80
  -3  -1  14   28.92  113.97
  -1   3 -14  240.59  115.20
   1  -3  14  137.01  114.68
  -3   1 -14  205.84  116.04
   1   3 -14  182.30  115.12
   1   3 -14   88.96  113.55
  -1   3 -14  138.94  116.95
   3   1 -14  132.81  114.62
   3   1 -14  147.23  115.64
  -1  -3  15  124.53  131.95
  -3   1 -15  227.72  133.39
  -1   3 -15  172.37  134.16
  -1   3 -15  185.04  131.92
   3   1 -15  119.75  132.73
   1  -3  15  138.01  132.05
   1   3 -15  193.52  132.31
  -3  -1  15   -7.72  130.97
  -1   3 -16   -5.88   17.70
   1  -3  16   24.88   20.69
  -1   3 -16   17.39   30.40
  -1  -3  16   16.47   19.13
  -3  -1  16   16.40   16.69
   1   3 -16   -5.97   17.02
   3   1 -16   55.67   26.86
  -1   3 -17   55.08   63.26
   3   1 -17  101.01   61.31
   1  -3  17   26.27   57.45
  -1   3 -17   86.97   58.59
  -1  -3  17   26.60   57.94
   1   3 -17   69.24   58.32
   1  -3  18  257.98  327.07
  -1  -3  18  251.59  327.26
   1   3 -18  419.01  327.25
  -1   3 -18  387.28  327.27
  -1   3 -18  467.10  328.34
   1  -3  19   -9.67   27.17
  -1   3 -19   28.02   27.80
  -1   3 -19   19.60   38.68
  -1  -3  19    9.76   29.06
   1   3 -19   56.66   28.30
   1   3 -20  481.13  279.75
  -1   3 -20  635.79  282.38
  -1  -3  20   61.24  278.89
   1  -3  20   70.78  278.60
  -1   3 -20  474.64  279.71
   1  -3  21  -21.10   21.88
   1   3 -21   31.24   17.39
  -1  -3  21  -21.28   22.05
  -1   3 -21    7.74   19.96
  -1   3 -21   32.10   36.57
  -1   3 -22  193.26  137.46
  -1  -3  22   66.40  137.23
   1   3 -22  276.18  137.76
   1  -3  22  -10.98  136.26
  -1   3 -23   23.14   46.54
  -1  -3  24  -35.67   34.48
  -1   3 -24  -11.99   49.09
   3   2   0   -2.37    4.03
  -3  -2   0   -3.05    4.39
   3  -2   0   -2.41    4.50
  -3  -2   1   14.88    6.20
   3  -2   1    5.54    4.73
  -3   2  -1   -5.83    7.80
   3   2  -1   -2.26    4.34
   3  -2   1    2.23    5.09
   3   2  -1    6.97    5.32
  -3  -2   2  402.51   70.68
   3  -2   2    1.97   68.61
   3   2  -2  122.88   69.04
   3   2  -2   -2.58   68.74
   3  -2   2  166.21   69.16
  -3   2  -2    3.49   68.58
   3  -2   2  343.45   69.48
  -3   2  -2   38.06   69.01
   3   2  -2   84.52   69.01
  -3  -2   2    2.61   68.67
  -3   2  -2   -1.95   68.63
  -3  -2   3  222.14   46.86
   2   3  -3    3.64   45.39
   3  -2   3  122.94   45.71
  -3   2  -3    2.31   45.44
   3   2  -3    2.94   45.61
   3   2  -3   40.68   45.50
   3  -2   3   77.55   45.59
  -3   2  -3   61.87   45.31
   3   2  -3   98.97   45.71
   2   3  -3   -1.92   45.01
   3   2  -3   24.38   45.19
  -2   3  -3    3.22   45.34
  -2  -3   3   -3.67   45.55
   2  -3   3    6.49   45.22
  -3  -2   3   20.30   45.46
  -3   2  -3  101.90   46.01
  -2  -3   4    7.14   43.40
  -3  -2   4   28.82   44.10
  -3   2  -4   74.15   44.46
   3   2  -4   76.72   44.13
   3   2  -4   96.36   43.92
  -3  -2   4   79.28   44.52
   3  -2   4   59.45   44.20
   3   2  -4   31.29   43.68
   3   2  -4    6.72   44.21
  -3   2  -4   70.39   43.88
  -3   2  -4   24.84   44.35
   3  -2   4   65.27   43.89
   3  -2   4   78.03   43.63
   2   3  -4   -2.36   43.59
  -2   3  -4   -3.56   44.26
   2  -3   4   17.87   44.06
  -2  -3   4    3.99   43.95
   2   3  -4   -3.98   44.17
  -3   2  -4   59.92   43.64
  -2   3  -4   -4.23   43.56
   3  -2   4   43.18   43.62
  -3  -2   5  643.92  294.32
  -2   3  -5  148.38  293.78
  -2   3  -5   67.47  293.94
   2   3  -5  189.67  293.73
  -3   2  -5  615.13  294.09
   3  -2   5  702.37  293.96
   3  -2   5  821.07  294.10
   2  -3   5  380.70  293.72
   2   3  -5    8.76  293.83
   3   2  -5  363.12  294.26
   2   3  -5    8.88  293.60
  -2  -3   5  477.93  294.51
  -3   2  -5  805.68  294.12
   2  -3   5  440.89  294.39
   3   2  -5  620.36  294.23
  -3  -2   5  888.34  294.57
   3  -2   5  606.45  294.21
  -2  -3   5  123.50  293.74
   2   3  -5   57.13  293.71
  -3   2  -5  437.04  294.29
  -2   3  -6   97.28  150.56
  -3   2  -6  346.31  150.16
  -2  -3   6  280.01  150.86
   3   2  -6  193.37  150.03
   2   3  -6   91.62  150.54
   2   3  -6   35.41  149.69
  -3  -2   6  222.75  150.35
   3   2  -6  281.58  150.17
   3  -2   6  354.37  150.00
   2  -3   6  327.57  150.77
   3  -2   6  200.04  150.13
   3   2  -6  200.81  150.60
  -3  -2   6  283.60  150.65
  -2   3  -6  128.40  149.91
  -3   2  -6  210.85  150.49
  -2  -3   6  263.39  150.08
  -3  -2   6  398.62  150.51
   2   3  -6  117.78  150.01
   3  -2   6   57.90  149.66
  -3   2  -6   21.70  149.68
   2   3  -6  141.91  149.86
   3   2  -7 3011.56 1276.64
   2  -3   7 2248.19 1276.21
   3   2  -7 3341.02 1276.18
  -2  -3   7 2451.15 1276.31
  -2  -3   7 3667.12 1276.17
   3  -2   7 3574.12 1275.93
  -2   3  -7 1726.34 1276.29
  -3   2  -7 2503.88 1276.35
   2   3  -7 2455.11 1276.07
   2   3  -7 1755.49 1275.73
   3  -2   7 2829.36 1276.28
  -3   2  -7    4.02 1275.45
  -2   3  -8    2.87    8.14
  -3   2  -8    4.31   14.01
   3  -2   8    3.94    7.46
  -2  -3   8    2.34    8.04
   2   3  -8   -1.57    4.38
  -3   2  -8    2.76    7.71
   3   2  -8    5.86    8.20
  -3  -2   8   -4.20    8.41
  -2  -3   8  -16.14   11.86
   2  -3   8   12.65    9.69
   3   2  -8   -6.52    5.99
   3  -2   8    7.81    6.22
  -3  -2   8  -15.02   13.91
   3   2  -8    2.85    8.58
   2   3  -8   -3.87    6.54
   3   2  -9   -6.03  236.74
  -2  -3   9   11.26  236.92
   3  -2   9  329.74  237.46
   3   2  -9  437.44  237.17
  -2   3  -9  286.21  238.07
   3   2  -9  420.29  238.50
   2   3  -9  394.65  237.45
  -3  -2   9   -7.85  236.99
   2   3  -9  410.86  238.48
   2   3  -9  567.51  237.06
   2   3  -9   10.71  236.72
  -2  -3   9  697.53  237.48
  -2  -3   9  396.22  237.92
  -2   3 -10  230.70  164.28
  -3  -2  10  303.74  163.83
   3  -2  10   13.68  162.30
   2   3 -10  293.79  162.61
  -2   3 -10  337.08  163.33
   3   2 -10  350.78  164.50
   2   3 -10   -2.27  162.34
  -2  -3  10  418.73  163.02
   2  -3  10  367.58  163.73
   2   3 -10  245.24  164.50
   3   2 -10  197.21  162.69
   3   2 -10    3.18  162.36
   3   2 -10  249.98  163.12
   2   3 -10  310.62  163.33
  -2  -3  10  270.33  163.55
  -3   2 -10  247.29  163.75
   3   2 -11   30.22   32.64
   3  -2  11   27.89   27.37
   2  -3  11   38.68   27.80
   3  -2  11    1.81   25.25
  -2   3 -11    7.61   27.15
  -3   2 -11   67.23   28.45
  -2   3 -11    6.42   32.58
  -3  -2  11   -5.69   28.09
   2   3 -11   33.63   33.39
  -3   2 -11   50.83   31.86
   3   2 -11   33.18   27.63
  -2  -3  11   45.73   28.11
   3   2 -11   15.94   25.86
   2   3 -11   42.58   25.57
   2   3 -11   23.95   26.81
   2  -3  12   24.36   28.49
   2   3 -12   43.34   34.25
   3   2 -12   11.45   25.81
   2   3 -12   19.17   25.33
  -2   3 -12   42.67   27.88
  -3  -2  12    6.30   27.10
   3   2 -12   65.31   33.37
   2   3 -12   25.71   27.56
   3  -2  12   18.21   26.78
  -2  -3  12   43.46   28.78
  -3   2 -12   47.78   31.97
   3   2 -12   35.84   27.67
  -3   2 -12   43.03   27.72
  -2   3 -12   48.46   33.41
   3   2 -13   58.95   35.28
  -2   3 -13   80.83   36.22
   2   3 -13   54.06   43.81
   3  -2  13   78.72   35.22
   3   2 -13  112.28   40.95
  -3   2 -13   85.52   34.05
  -2   3 -13   78.85   41.86
   2  -3  13   71.92   35.95
   3   2 -13   60.94   32.82
   2   3 -13   67.06   32.20
  -3  -2  13   33.85   33.66
   2  -3  13   -6.27   31.06
   2   3 -13   80.92   35.64
  -2  -3  13   81.40   37.24
  -3   2 -13   19.37   39.46
   2  -3  14   42.96   19.85
  -2  -3  14    7.22   18.85
  -3   2 -14   13.88   24.27
   3   2 -14   -7.50   24.53
   2   3 -14    9.19   11.88
   2   3 -14   -5.26   16.67
   3  -2  14    7.05   15.42
   3   2 -14   36.76   16.48
   3   2 -14    3.21   13.17
  -3  -2  14   -7.39   16.60
  -2   3 -14   -7.66   28.23
  -2   3 -14   15.24   17.26
   2   3 -14   31.73   27.72
  -3   2 -14   15.32   16.34
   3   2 -15  -15.97   24.61
   3   2 -15   -6.74    8.19
  -2   3 -15    5.52   14.56
   2   3 -15   -8.41   27.88
  -3  -2  15    7.87   13.52
  -3   2 -15   -5.52   13.19
  -2  -3  15    7.85   14.43
  -2   3 -15   -8.15   28.77
   3   2 -15    5.71   13.12
  -3   2 -15   22.26   23.87
   2  -3  15   -7.62   16.42
   3  -2  15    7.54   12.49
   2   3 -15   11.16   15.17
  -2   3 -16  251.52  192.76
  -2   3 -16  285.22  194.32
   3  -2  16    8.02  191.60
   2   3 -16  385.32  193.20
   3   2 -16  457.19  195.05
   3   2 -16  169.47  192.32
  -2  -3  16  224.07  192.84
  -3   2 -16  188.14  192.30
  -3   2 -16  236.94  193.88
   2  -3  16  189.70  192.75
   2   3 -16  355.83  195.15
  -3  -2  16   83.37  192.02
   2  -3  17  252.64  434.50
  -2   3 -17  630.00  435.93
   2   3 -17  666.05  434.90
   3   2 -17  688.56  436.14
   2   3 -17  815.55  436.42
  -3   2 -17  828.75  435.84
   3  -2  17   68.01  433.95
   3   2 -17  698.67  434.92
  -2  -3  17  384.02  434.67
  -3  -2  17  158.50  434.15
  -3   2 -17  479.77  434.52
  -2   3 -17  713.21  434.96
   2  -3  18    9.17   25.84
  -3  -2  18   -9.27   24.52
   3   2 -18    6.81   24.27
  -2  -3  18   46.91   27.81
   3   2 -18  -18.83   36.83
  -3   2 -18   61.88   34.52
   2   3 -18   53.31   26.85
   3  -2  18   17.95   23.53
  -2   3 -18   92.97   38.68
   2   3 -18   59.09   38.05
  -2   3 -18   -6.64   25.93
  -2   3 -19  956.33  482.04
  -3  -2  19   58.34  479.36
   2   3 -19 1052.33  482.55
   2  -3  19  317.69  480.03
  -2  -3  19  402.90  480.26
  -3   2 -19 1246.45  482.37
   3   2 -19 1126.03  482.52
  -2   3 -20   44.32   32.67
   2   3 -20  129.36   46.73
   2   3 -20   44.69   32.59
  -2   3 -20   61.29   45.06
  -2  -3  20   20.53   30.89
   2  -3  20   10.08   31.42
   3   2 -20   93.01   43.12
  -3   2 -20   29.27   39.39
  -3  -2  20  -30.52   30.81
   2   3 -21  707.76  382.22
   2  -3  21   84.14  378.83
   3   2 -21  690.18  381.87
  -2   3 -21  593.68  379.96
  -2   3 -21  789.11  382.00
   2   3 -21  691.28  380.06
  -2  -3  21   53.49  378.69
   2  -3  22   21.90   26.94
  -2   3 -23   34.61   65.99
   2   3 -23   72.72   64.76
  -2  -3  24  -11.94   36.92
   2   3 -24  -50.18   56.45
  -3  -3   2   -6.60    6.11
   3   3  -2   -2.57    5.70
  -3   3  -3   -1.85    4.11
  -3  -3   3    3.78    6.98
   3   3  -3    2.45    3.23
   3  -3   3    3.14    5.80
  -3  -3   3    3.23    5.17
  -3   3  -3   -3.11    6.42
   3   3  -3   -3.75    8.46
  -3  -3   4   78.01   82.70
   3   3  -4   12.13   81.88
   3   3  -4   31.49   81.83
   3   3  -4  141.16   82.28
   3  -3   4   -1.97   81.72
   3  -3   4   65.98   82.41
  -3   3  -4   10.28   81.82
   3   3  -4   -4.09   82.31
  -3   3  -4   -3.46   82.13
   3  -3   5    3.61    5.17
  -3   3  -5    4.73    8.02
  -3   3  -5    2.25    6.86
   3   3  -5    7.99    7.00
  -3   3  -5   -3.87   11.57
   3   3  -5   -2.44    7.03
   3   3  -5    2.41    5.00
  -3  -3   5    6.20    9.45
   3  -3   5    1.40    4.63
   3   3  -5    4.49   13.68
   3  -3   5   -3.77   10.73
  -3  -3   5   -4.37   11.55
   3  -3   6 1312.27  675.01
  -3   3  -6  799.71  675.08
   3  -3   6 1335.12  675.76
   3  -3   6  402.74  674.86
   3  -3   6 1177.23  675.40
  -3  -3   6 1482.84  675.57
  -3  -3   6  591.46  675.36
   3   3  -6  739.20  675.02
  -3   3  -6  935.15  675.00
  -3   3  -6  450.15  675.17
   3   3  -6  172.59  675.11
   3   3  -6  960.11  675.13
  -3   3  -6   72.23  674.81
   3  -3   7    3.75    9.72
   3   3  -7   -2.19    5.26
   3  -3   7    1.30    3.98
   3  -3   7   -4.49    5.74
  -3   3  -7   10.42    7.81
   3   3  -7    3.00    7.83
  -3   3  -7    9.60   16.87
  -3  -3   7    3.08    9.73
   3   3  -7    9.81    7.54
  -3   3  -7    2.05    9.88
  -3  -3   7   -4.24    9.26
  -3   3  -7    1.75    7.00
  -3   3  -8 2685.92  297.03
   3   3  -8 1575.10  296.66
  -3  -3   8 3478.66  299.83
   3  -3   8 3269.09  296.68
   3   3  -9   -5.60    9.22
  -3  -3   9    9.12   11.20
   3   3  -9  -18.71   20.68
   3   3  -9   -2.16    5.41
   3  -3   9    5.09    4.89
   3   3  -9   -6.80    8.87
  -3  -3   9   -3.80   14.00
  -3  -3   9   -9.94   11.22
   3   3 -10    5.98  180.06
  -3  -3  10   19.66  180.48
   3  -3  10  250.46  180.12
  -3  -3  10  268.86  180.96
   3  -3  10  231.69  180.84
  -3   3 -10  218.61  180.62
   3   3 -10  223.60  180.58
   3   3 -10  213.45  180.23
  -3  -3  10  320.55  180.69
   3   3 -10  137.57  181.62
  -3   3 -10   60.50  181.30
   3  -3  11    5.47   12.13
  -3  -3  11   24.37   12.71
  -3   3 -11  -12.70   22.55
   3   3 -11   16.18   12.22
   3  -3  11   -1.32    6.65
   3   3 -11    2.32    7.61
  -3  -3  11    5.79   12.78
  -3   3 -11   11.75   12.00
   3   3 -11   -3.14    9.13
   3   3 -11    7.06   24.99
   3   3 -12  101.59   80.35
   3   3 -12   39.05   80.78
   3   3 -12  124.34   84.08
   3  -3  12   96.50   80.04
   3  -3  12  144.93   82.11
   3   3 -12   -3.28   80.16
  -3   3 -12  105.72   81.05
  -3   3 -12  102.92   83.45
  -3  -3  12  131.98   81.85
   3  -3  13   -4.41    7.25
   3   3 -13   -7.81   27.79
   3   3 -13   -2.57    9.05
  -3   3 -13    4.72   14.30
  -3   3 -13    7.11   24.91
   3   3 -13    9.63   14.58
  -3  -3  13  -13.72   16.13
   3  -3  13  -19.95   14.74
  -3  -3  14   36.48   41.31
   3   3 -14   52.64   39.98
   3   3 -14   24.94   47.11
  -3   3 -14   45.40   41.85
   3  -3  14   35.56   40.80
   3   3 -14   31.90   41.82
  -3   3 -14   15.22   45.73
   3   3 -15  -16.90   17.80
   3  -3  15   -7.74   18.94
  -3   3 -15    5.48   16.27
   3   3 -15    8.50   29.64
  -3  -3  15  -23.78   18.63
  -3   3 -15    8.10   27.61
  -3   3 -16  337.39  351.96
   3  -3  16  213.38  351.91
  -3   3 -16  533.01  353.38
   3   3 -16  448.88  353.85
   3   3 -16  528.62  352.37
  -3  -3  16  326.48  352.26
   3   3 -17  -12.80   18.39
   3  -3  17    8.67   19.03
  -3   3 -17  -18.18   31.12
   3   3 -17   18.91   33.18
  -3   3 -17  -12.56   16.16
  -3  -3  17   -9.00   18.77
  -3   3 -18 1243.80  916.42
  -3   3 -18 1589.25  917.50
   3   3 -18 1399.71  917.44
  -3  -3  18  671.12  916.16
   3  -3  18  447.71  915.90
   3   3 -18 1215.66  916.47
  -3   3 -19  -14.06   17.43
  -3   3 -19   58.34   40.36
  -3  -3  19   -9.90   17.36
   3  -3  19    9.60   17.45
   3   3 -19  -21.55   20.61
   3   3 -19  -20.79   42.56
   3  -3  20   90.42  612.15
  -3  -3  20  434.00  612.83
  -3   3 -20 1578.27  615.08
  -3   3 -20 1627.18  614.04
   3  -3  21  -62.95   27.73
   3   3 -21  -11.31   43.73
  -3   3 -21   -7.69   27.80
  -3  -3  21  -10.76   27.66
   3   3 -21   -7.91   26.78
  -3   3 -21  -31.90   43.33
   3  -3  22   10.93   21.98
  -3  -3  23   11.60   24.42
   3   3 -23   17.04   24.39
   3   3 -23   60.94   43.10
  -3   3 -23  -23.02   42.35
   3   3 -24  264.89  295.07
  -3  -3  24  324.12  291.06
  -4   0   1    2.92    7.53
   4   0   1    2.54    5.84
   4   0  -1    2.22    4.99
   4   0   1    4.32    5.18
  -4   0  -1    3.25    7.85
   4   0   2   14.24    8.23
   4   0  -2    9.57    7.71
  -4   0   2   -1.18    6.54
   4   0  -2   14.58    6.72
   4   0  -2   -2.78    8.50
   4   0   2   -5.10    8.74
  -4   0  -2    6.44    8.80
   4   0  -2    6.97    7.50
   4   0   3    7.68    6.32
   4   0  -3    1.23    2.78
   4   0   3    2.52    3.46
  -4   0  -3   -3.25    7.03
  -4   0   3   -1.67    3.21
   4   0  -3    9.89    5.68
  -4   0   3   -4.13   10.69
   0  -4   3   -4.35    5.53
   4   0  -3    1.62    5.31
   4   0  -3   -2.96    6.28
   0   4  -4   -4.59  181.18
   4   0   4   22.82  180.98
  -4   0   4  104.38  181.07
   0  -4   4    4.63  181.12
  -4   0   4  384.66  182.27
  -4   0  -4  167.63  181.35
   4   0  -5   -3.44    7.61
   0   4  -5    2.92    7.16
   4   0  -5    5.91    5.10
   4   0  -5    5.65    6.84
   4   0  -5   10.28    7.81
  -4   0   5   -4.51   12.05
   0   4  -5   -4.92   12.30
  -4   0  -5    3.42    5.72
   4   0   5    2.65    6.26
  -4   0   5   -2.68    4.65
   0  -4   5   14.83   10.55
   4   0  -6  119.44   56.65
   0   4  -6   -9.45   56.07
  -4   0   6   18.83   57.34
  -4   0   6    9.55   55.67
   4   0  -6   68.53   56.33
   4   0   6   -2.71   55.75
  -4   0   7   -3.69    4.81
   4   0  -7   -3.12    6.43
   4   0  -7    3.56    8.19
   4   0  -7   11.36    8.88
   0   4  -8  370.90 1378.63
   4   0  -8 1940.08 1378.94
   0  -4   8 3113.56 1379.81
   0   4  -9    6.63   21.11
   0   4  -9    3.70   10.89
   0  -4   9   -6.24   19.23
   0  -4   9   -5.22   12.00
   0   4 -10   38.62   42.32
   0   4 -10   49.86   47.81
   0  -4  10   55.58   42.73
   4   0 -10   30.19   42.40
   0   4 -11  -22.32   26.53
   0   4 -11  -12.17   16.17
   4   0 -11   -5.52   16.46
   0  -4  11   -5.94   14.26
   0   4 -12   21.57   21.76
   0   4 -12   39.71   32.67
   0  -4  12    6.34   23.37
   0   4 -13  -57.42   46.47
   0  -4  13   -6.74   23.22
   0   4 -13  -18.36   24.13
   0   4 -14   34.90   52.59
   0   4 -14   26.10   59.42
   0  -4  14   94.00   53.82
   0   4 -15    5.48   16.54
   0  -4  15  -15.29   17.44
   0   4 -15  -18.40   33.50
   0  -4  16    8.23   24.99
   0   4 -16   23.09   23.72
   0   4 -16   28.11   36.26
   0   4 -17  -12.60   25.55
   0   4 -17   -9.85   38.92
   0  -4  17   86.56   30.45
   0   4 -18  686.72  657.92
   0  -4  18  725.32  658.34
   0   4 -18  692.14  659.00
   0   4 -19  -21.61   40.04
   0  -4  19   19.45   17.34
   0   4 -19  -14.10   23.38
   0   4 -20  913.03  746.55
   0  -4  20  600.95  745.53
   0   4 -20  897.13  745.46
   0  -4  21  -10.79   21.23
   0   4 -21   -7.82   23.19
   0   4 -21   35.20   43.57
   0  -4  23  -11.61   23.30
   0   4 -23    8.42   22.60
   0   4 -23   12.63   43.08
   0  -4  24   48.03   45.40
   0   4 -24   13.07   61.40
   0   4 -24   35.24   44.12
   0   4 -25  -18.19   20.37
   0   4 -25  -26.98   46.94
   0  -4  25   24.79   21.62
   0   4 -26  -27.81   56.87
   0  -4  26   12.77   20.55
   0  -4  27   39.42   36.86
   0   4 -27   14.31   63.10
  -4   1   0 1465.48 1511.47
  -4  -1   0 2217.88 1511.60
   4   1   0 1253.25 1511.29
   4  -1   0 1855.27 1511.36
   4  -1   0 1590.74 1511.38
   4   1  -1   93.99   44.25
   4   1  -1  109.71   44.44
   4  -1  -1   96.08   44.54
   4  -1  -1   63.27   43.99
   4  -1   1   64.84   44.21
   4   1   1   16.53   43.89
  -4  -1  -1   66.00   44.53
  -4   1  -1  137.79   45.89
   4   1   1   18.85   43.80
  -4  -1   1  129.44   45.45
  -4   1   1   27.84   44.97
   4  -1   1  102.52   44.18
   4   1  -1    3.61   43.55
  -4  -1   1   -1.54   43.56
   4   1  -2   85.05   61.64
   4   1   2    2.72   61.08
   4  -1   2  104.05   61.67
  -4   1  -2   86.17   61.82
   4   1  -2  109.54   61.55
   4  -1   2   89.93   61.42
  -4  -1  -2   39.45   61.46
  -4  -1   2   93.92   61.90
  -4  -1   2    1.88   61.17
   4   1  -2  106.05   61.20
   4   1  -2    5.71   61.25
   4  -1  -2   26.01   61.35
  -4  -1   3  518.95  254.27
   4   1  -3  434.98  253.73
  -1  -4   3    4.46  253.55
   4  -1   3  373.79  253.70
  -4  -1   3  321.15  253.76
  -4   1  -3  298.97  253.76
   4   1   3    2.84  253.54
   4   1  -3  151.47  253.76
   4  -1   3  508.91  254.03
  -4   1  -3  414.46  254.17
   4  -1  -3   90.92  253.67
  -4  -1  -3   10.95  253.54
   4  -1   3  394.42  253.86
  -4   1  -3  290.94  253.61
   4   1  -3  468.08  253.98
   4   1  -4    9.18    6.06
   4   1  -4    8.20    9.56
   4  -1   4   12.97    5.84
  -4  -1   4   12.64    8.71
   4   1  -4   11.44    8.31
  -4  -1   4   -4.15   12.68
  -1  -4   4   -4.74    9.49
   4  -1   4   -2.38    7.33
  -4   1  -4    3.01    8.74
  -4  -1   4    8.98    6.51
   1  -4   4    4.53    8.92
  -4   1  -4    1.87    7.87
  -4   1  -4    1.31    5.56
   4   1  -4    9.60    6.85
   4   1   4   -2.90    6.75
   4  -1  -4   -3.49    8.08
   4  -1   4    2.21    5.96
   1   4  -4   -4.69   10.36
  -1   4  -4   -4.48    9.32
   4   1  -5 1376.02  394.29
   4   1  -5 1048.37  394.09
   4  -1   5  719.92  393.44
  -4   1  -5 1927.70  394.31
   4   1  -5 2047.15  394.48
   1   4  -5    5.97  393.03
  -4  -1   5 1971.73  394.52
   4  -1   5 1988.88  394.42
  -1  -4   5  217.13  393.53
   1  -4   5  314.65  393.60
  -1   4  -5   14.47  393.12
   4  -1  -5   25.75  393.02
   1   4  -5   -5.03  393.17
  -1   4  -5    2.86  393.03
  -4   1  -5  700.52  393.60
   4  -1   6   -2.35  121.02
   1   4  -6    3.21  121.23
  -4   1  -6  185.32  121.40
   4   1  -6  132.38  121.52
   4  -1   6  225.31  121.65
  -1   4  -6   10.41  122.11
  -4  -1   6  139.81  122.40
  -1   4  -6   18.54  121.23
  -4   1  -6  593.80  122.65
   4   1  -6  518.76  123.05
  -4   1  -6    9.35  121.11
  -4  -1   6  520.62  122.63
   4   1  -6  405.25  122.19
   1   4  -6   -1.45  121.02
   1  -4   6  354.69  123.30
   4  -1   6  136.56  121.41
   4   1  -6  503.35  122.14
   4  -1   7  227.73  304.54
  -4  -1   7   93.62  304.71
   1   4  -7  108.01  304.31
  -4   1  -7    3.18  304.26
   4   1  -7 1251.49  305.61
   4   1  -7 1428.81  306.47
  -4   1  -7  546.97  304.75
   4   1  -7 1559.55  305.76
   4   1  -7  500.24  304.95
   1  -4   8  197.03   53.03
  -4   1  -8   78.27   49.72
   1   4  -8   62.30   48.42
   4  -1   8   -2.51   48.39
   4   1  -8  115.49   50.91
  -4   1  -8   33.89   48.40
   4   1  -8  111.04   49.28
   1   4  -8   60.76   49.69
   4  -1   8    7.71   48.34
  -4  -1   8   -4.87   50.22
  -4  -1   8  101.92   49.54
   4   1  -8    3.72   48.58
   4   1  -8   74.66   49.03
  -1   4  -8   24.35   51.89
   4   1  -9    3.91  115.18
   4  -1   9   -2.59  115.01
  -4   1  -9  179.00  115.56
   1  -4   9  683.15  119.70
   4   1  -9  197.60  115.88
  -1  -4   9  498.16  117.93
   1   4  -9   82.56  115.10
   4  -1   9   21.82  115.14
   1   4  -9  364.12  116.60
  -1   4  -9  350.21  116.51
   1  -4   9  479.28  117.86
  -1   4  -9  300.83  118.68
  -1  -4   9    1.62  114.94
  -4   1  -9  497.19  117.40
  -1   4 -10  293.65   69.18
   1   4 -10    2.83   66.74
  -1   4 -10  210.99   73.37
   1   4 -10  289.59   69.41
   1   4 -10    3.75   66.64
   1  -4  10  236.11   69.48
  -4  -1  10  159.79   68.62
  -1  -4  10  422.33   71.47
  -1  -4  10   53.71   66.84
   4   1 -10  309.50   69.25
  -1  -4  10   -7.33   67.09
   4   1 -10  161.47   67.84
   4   1 -10  404.61   71.15
   4   1 -11    8.46   12.71
  -1   4 -11    7.36   26.94
  -4   1 -11   -5.15   16.96
  -1  -4  11   13.15    9.88
   4   1 -11    5.74   18.49
  -1   4 -11   16.04   13.24
   1   4 -11  -12.32   15.07
  -4  -1  11   -5.82   12.79
  -1  -4  11   30.03   15.93
   1  -4  11    5.87   15.66
   1   4 -11   10.32    8.95
   4   1 -12   60.37   32.17
  -4   1 -12   73.33   34.90
  -1   4 -12   29.89   32.35
  -1  -4  12   25.81   30.45
   1  -4  12   50.18   33.45
   1   4 -12   30.80   29.80
  -1  -4  12   12.81   31.63
  -1   4 -12   23.58   40.55
   4   1 -12   36.76   33.98
  -4  -1  12    6.32   31.17
   1   4 -12   30.53   32.47
   1   4 -13   37.08   20.49
   4   1 -13    6.61   24.37
   1  -4  13    6.68   22.78
  -1   4 -13   -4.66   21.74
   4   1 -13   35.04   18.18
  -1   4 -13   -8.13   40.48
  -4   1 -13   30.63   22.57
  -1  -4  13    9.21   16.06
  -4  -1  13  -13.62   17.27
  -1  -4  13   27.22   21.54
   4   1 -14  339.97  237.65
  -1   4 -14  258.79  238.51
  -4  -1  14   14.60  236.17
   1  -4  14  351.43  237.47
  -1  -4  14  291.78  237.43
  -1   4 -14  360.92  237.15
  -4   1 -14  264.29  237.50
   1   4 -14  231.48  236.78
   4   1 -14  279.08  236.81
   1   4 -15   16.57   20.85
   1  -4  15   15.51   19.17
  -1   4 -15   -5.44   20.19
  -1  -4  15   15.41   21.28
   4   1 -15   45.34   26.13
  -1   4 -15   54.77   34.42
  -4   1 -15   42.52   24.90
  -4  -1  15   -7.79   19.54
  -4  -1  16   16.54  251.04
   1  -4  16  302.66  252.38
  -1   4 -16  400.14  254.01
  -1   4 -16  366.91  252.16
   1   4 -16  325.81  252.10
   4   1 -16  337.05  252.65
  -1  -4  16  298.63  252.52
  -1   4 -17  657.19  527.48
   1  -4  17  581.91  527.66
  -1   4 -17  548.21  528.13
   1   4 -17  513.87  527.31
   4   1 -17  466.89  527.78
  -1  -4  17  557.72  527.59
   1   4 -18  425.41  339.97
  -1   4 -18  328.65  341.22
  -1   4 -18  367.65  339.80
   1  -4  18  323.70  340.03
  -1  -4  18  318.13  340.07
  -1   4 -19 1156.88  974.50
  -1   4 -19  859.71  975.10
   1   4 -19 1297.86  974.61
   1  -4  19  840.04  974.54
  -1  -4  19  909.52  974.59
  -1   4 -20   33.65   48.90
  -1   4 -20   29.27   31.38
  -1  -4  20   41.66   33.74
   1   4 -20   14.79   31.14
   1  -4  20   20.63   31.87
  -1   4 -21  700.97  474.90
   1  -4  21  182.62  472.04
   1   4 -21  723.03  473.10
  -1   4 -21  809.51  472.90
  -1  -4  21  346.78  472.32
   1   4 -23   33.81   44.32
  -1   4 -23  113.28   63.60
  -1  -4  23   23.31   44.19
   1  -4  24   11.97   74.67
  -1   4 -24  247.47   92.63
  -1   4 -24   61.46   75.50
   1   4 -24   97.30   76.22
  -1  -4  24   84.36   78.71
   1   4 -25   73.03   31.11
  -1   4 -25   -9.07   29.56
   1  -4  25   12.36   29.31
  -1   4 -25   94.17   57.49
  -1  -4  25  -12.44   30.49
   1  -4  26  -12.74   20.22
   1   4 -26   37.61   25.02
  -1  -4  26   25.63   28.79
  -1   4 -26  -55.47   51.22
  -1  -4  27   13.18   26.61
  -1   4 -27   42.81   56.76
  -4  -2   0   49.74   37.60
   4  -2   0   96.30   37.45
  -4   2   0   -4.00   37.76
   4   2   0   -2.90   36.70
   4  -2   0   48.76   37.21
  -4   2  -1   45.78  134.53
   4   2  -1   73.55  134.31
   4  -2  -1   28.98  134.20
   4   2  -1   34.53  134.21
  -4  -2  -1   85.58  134.43
   4  -2   1  556.00  135.41
   4  -2   1  594.26  135.27
   4   2  -2  134.58   57.98
   4   2  -2   90.51   57.74
   4  -2  -2   -3.40   57.16
  -4  -2   2   -2.72   57.13
   4   2  -2   -3.19   57.05
  -4   2  -2  123.92   58.50
   4   2  -2   -2.69   57.18
   4  -2   2  285.37   58.27
  -4  -2   2  350.95   59.93
   4  -2   2  245.22   58.64
  -4   2  -2    3.28   57.03
  -4   2  -3    2.20  276.97
   4  -2   3 1089.50  277.97
  -4  -2   3   15.28  277.04
   4  -2   3 1029.03  277.73
   4  -2   3   13.24  276.95
   4   2  -3   -9.13  277.02
  -4  -2   3 1423.40  279.01
   4   2  -3  739.05  277.81
   4   2  -3  169.59  277.05
  -4   2  -3  778.16  278.17
   4   2  -4 1022.93  241.83
  -2  -4   4   -4.85  240.57
   2   4  -4   -4.81  240.67
  -4  -2   4  459.57  241.31
  -2   4  -4   -2.61  240.47
  -2   4  -4    4.38  240.61
   4  -2   4  840.17  241.25
   4  -2   4  745.07  241.50
  -4   2  -4  273.61  241.00
   4   2  -4   76.31  240.74
   4  -2   4  911.53  241.44
   2  -4   4   -4.43  240.54
   4   2  -5   38.32   23.21
   4   2  -5   48.18   22.26
   2   4  -5    6.10   22.29
   2   4  -5   -2.11   21.54
   2   4  -5    5.14   26.10
   4   2  -5  -11.78   24.53
   4  -2   5   20.76   21.50
  -4   2  -5   12.29   24.03
  -4   2  -5   22.79   22.99
   4  -2   5   17.21   21.92
  -2   4  -5    4.72   24.51
   2  -4   5   14.22   23.95
  -4  -2   5   55.42   24.20
  -2  -4   5    5.16   23.41
  -4  -2   5   87.22   24.08
  -4   2  -5   18.46   21.70
   4  -2   5   22.13   21.91
  -4  -2   5   24.72   22.23
   4   2  -5   32.69   21.85
  -2   4  -5    8.41   22.15
  -4   2  -6  976.63  687.56
  -4   2  -6 3129.21  688.06
  -4  -2   6 2337.79  688.41
  -4   2  -6 2817.17  688.69
  -2   4  -6    5.11  687.21
  -2   4  -6   39.43  687.12
   4   2  -6 2549.64  688.33
   4   2  -6 3326.18  688.36
   2   4  -6   19.65  687.10
  -4   2  -7    5.68  101.95
   4   2  -7  120.52  102.46
   4  -2   7  260.99  102.76
  -4   2  -7  139.72  103.06
  -2   4  -7   32.23  102.13
   4   2  -7  131.43  103.59
  -4   2  -7  186.72  102.27
   4  -2   7   17.25  101.79
  -2  -4   7  185.23  104.18
  -4  -2   7  195.19  103.49
  -4  -2   7  204.85  103.06
  -4  -2   7  177.26  102.81
   2   4  -7   11.85  101.84
   4   2  -7  203.46  102.44
   4  -2   7  311.50  102.58
   4   2  -7  173.42  102.44
  -2  -4   7    7.68  101.73
  -4   2  -8    2.87  354.57
  -4   2  -8 1259.40  355.77
  -2   4  -8  437.54  356.14
   2   4  -8  501.44  354.91
   4   2  -8  522.56  355.23
  -2  -4   8 1824.27  358.27
   2   4  -8   17.39  354.56
   4   2  -8 1550.25  356.02
   4  -2   8 1938.57  355.88
  -2  -4   8  394.41  354.90
   2   4  -8  159.72  355.65
  -4  -2   8  419.17  355.59
  -4   2  -8 1536.48  356.76
  -2   4  -9  164.50  124.69
   2   4  -9   23.24  123.92
   2  -4   9  273.25  127.25
   2   4  -9   61.73  126.04
  -2  -4   9  161.37  125.06
   2   4  -9  186.77  124.81
  -2  -4   9  289.30  126.70
  -4   2  -9  302.81  124.88
   4   2  -9  276.24  124.64
  -2  -4   9  143.20  124.34
  -4  -2   9    4.87  125.02
  -2   4  -9  109.69  126.17
   4   2  -9  243.76  126.43
   2   4  -9   63.92  124.09
   4   2  -9   36.94  124.18
   4  -2   9  111.23  124.62
   2  -4   9  157.69  125.02
   4  -2   9  235.63  124.41
  -2  -4  10  262.57  189.28
   2   4 -10  321.44  189.57
   4   2 -10  541.12  189.85
  -4  -2  10  504.85  190.27
   4  -2  10  118.51  188.77
   2   4 -10  201.42  188.68
   2   4 -10   16.53  188.56
  -2   4 -10  361.34  190.84
   4   2 -10   -7.75  188.68
  -2   4 -10  406.93  189.64
  -4   2 -10  397.43  190.41
   2   4 -10  226.92  190.54
  -4  -2  10   25.22  189.16
  -2  -4  10  468.05  190.35
   2  -4  10  347.34  190.03
   4   2 -10  414.43  190.74
   2   4 -11  521.95  379.64
  -4  -2  11  597.02  380.55
   2  -4  11  644.99  380.55
   2   4 -11  602.97  380.18
   4   2 -11  548.97  379.89
  -2  -4  11  462.17  380.39
  -4   2 -11  587.56  380.75
  -2   4 -11  589.45  381.28
   4   2 -11  754.09  381.11
  -2   4 -11  495.90  380.06
   2   4 -11  389.06  381.04
  -2  -4  11    2.96  379.58
  -4   2 -11  524.99  380.01
   4  -2  11  348.29  379.99
   2   4 -11    4.55  379.40
   4   2 -11  550.78  380.19
  -2  -4  11  776.13  380.03
   4   2 -12   -9.07   14.15
   4  -2  12   24.09   13.48
  -4   2 -12   -6.10   22.18
  -2   4 -12  -12.69   15.85
   2  -4  12  -12.43   16.06
   2   4 -12  -13.24   16.50
   4   2 -12   -6.84   26.17
  -4   2 -12   -4.36   13.78
  -2  -4  12   -6.48   18.94
  -2   4 -12  -23.35   35.59
   2   4 -12  -16.60   11.54
  -4  -2  12   -6.38   13.92
   2   4 -12  -73.12   43.36
  -2  -4  12   29.05   12.78
   4  -2  12   -2.44    9.01
   2   4 -12    1.85    7.96
  -2  -4  13  295.67  227.99
  -2  -4  13  463.32  227.20
  -4   2 -13  188.73  227.06
  -4   2 -13  352.73  228.39
   4   2 -13  313.14  227.67
   4  -2  13   78.22  226.88
  -2   4 -13  272.50  227.42
   4  -2  13    2.54  226.52
   2   4 -13  276.10  229.58
  -2   4 -13  233.63  228.79
   2   4 -13  337.66  226.81
   2   4 -13  365.45  227.52
   4   2 -13  319.49  228.44
  -4  -2  13  195.75  227.50
   2  -4  13  355.19  227.97
   4   2 -14    7.58   28.10
  -4   2 -14    6.90   25.31
  -4  -2  14   14.94   20.18
   2   4 -14   25.41   21.16
  -2   4 -14    5.10   21.07
   4  -2  14   28.05   19.88
   2  -4  14   28.48   21.81
  -2  -4  14   22.09   21.43
   4   2 -14  -10.62   19.02
  -4   2 -14   25.68   19.65
  -2   4 -14    8.56   33.63
   2   4 -14   62.08   36.03
   2   4 -15  393.23  331.93
   4  -2  15   30.01  329.80
   4   2 -15  621.20  331.97
   4   2 -15  357.63  330.62
  -4   2 -15  420.82  331.24
  -4  -2  15  142.97  330.20
   2   4 -15  579.76  330.85
  -2   4 -15  616.39  332.85
   2  -4  15  446.81  331.05
  -2  -4  15  443.15  331.31
  -2   4 -15  394.01  330.49
  -4   2 -15  346.25  330.30
  -2  -4  16  125.45   51.63
   4   2 -16   48.88   48.94
   4   2 -16    4.02   47.42
  -2   4 -16   70.96   49.51
   2   4 -16  108.43   57.88
  -4   2 -16   62.91   54.83
   2   4 -16   99.76   49.68
   4   2 -16   85.47   54.89
  -2   4 -16  129.46   59.39
   2  -4  16   73.19   50.38
   4  -2  16    7.99   47.61
  -4  -2  16    8.41   48.25
   4   2 -17  620.06  475.29
  -4  -2  17   62.17  474.44
  -2   4 -17  728.09  475.42
  -2   4 -17  749.52  476.65
   4  -2  17   25.42  474.32
   4   2 -17  830.07  476.53
  -2  -4  17  597.05  475.60
   2   4 -17  710.09  477.12
  -4   2 -17  892.34  476.35
   2   4 -17  844.05  475.66
   2  -4  17  649.02  475.60
   4   2 -18 1328.98 1106.23
   2   4 -18 1456.09 1106.50
  -4   2 -18 1656.79 1106.13
  -4  -2  18  140.12 1104.77
  -2   4 -18 1526.85 1105.67
   4   2 -18 1510.45 1105.58
  -2   4 -18  837.87 1105.88
   2   4 -18 1727.50 1105.77
   2  -4  18 1132.26 1105.62
  -2  -4  18 1488.69 1105.93
   4   2 -19   72.00  200.15
  -2   4 -19  385.12  204.75
   4   2 -19  438.08  204.27
  -4  -2  19   29.39  200.20
   2   4 -19  264.19  201.58
  -2  -4  19  196.87  200.92
  -2   4 -19  335.01  201.57
   2  -4  19  177.15  201.43
   2   4 -19  350.24  206.66
  -4   2 -19  380.33  203.38
   2   4 -20  924.03  724.35
  -2   4 -20 1228.36  723.88
  -2  -4  20  859.22  723.75
   2   4 -20 1324.64  723.88
   4   2 -20 1468.02  725.04
  -2   4 -20 1430.05  725.53
  -4   2 -20 1362.91  724.75
   2  -4  20  483.03  723.19
  -4  -2  20   20.49  722.31
  -2  -4  21   65.38  146.88
   2   4 -21  201.21  147.50
   2  -4  21   85.64  146.89
  -2   4 -21  170.62  146.90
   4   2 -21  282.35  150.79
  -2   4 -21  244.42  153.35
   2   4 -23  186.90   88.98
  -2   4 -23  -12.55   95.02
  -2  -4  23   11.71   87.87
   2   4 -23  102.05   96.41
  -2   4 -24  -25.98   47.18
  -2   4 -24   17.51   22.93
   2   4 -24  -13.19   47.48
  -2  -4  24  -36.31   30.39
   2  -4  24   23.89   25.12
   2   4 -24   53.33   25.93
   2   4 -25   45.84   30.48
   2   4 -25  108.85   50.98
   2  -4  25  -24.68   29.46
  -2   4 -25   18.09   30.27
  -2   4 -25   26.84   56.45
  -2  -4  25   12.49   28.50
  -2   4 -26  -13.84   50.57
   2   4 -26   -9.44   27.14
  -2  -4  26  -12.86   23.58
   2  -4  26  -12.72   24.12
   2   4 -26  -42.04   55.43
   2   4 -27   86.44   55.68
  -2  -4  27  -13.22   26.24
   4   3  -1   -3.23    5.32
   4  -3   1    3.14    6.75
  -4  -3   1    8.29    5.56
   4  -3   2  279.10   91.79
   4   3  -2    9.29   90.99
   4  -3   2   29.68   91.13
   4   3  -3    3.14   12.71
   4  -3   3   45.80   12.70
   4   3  -3   -3.07   11.82
   4  -3   3   16.79   12.86
   4   3  -3    2.29   12.21
   4   3  -3    3.86   13.95
  -4   3  -3   -7.33   16.06
  -4  -3   3   36.32   15.03
  -4  -3   3   -3.90   12.93
   4  -3   3   -3.03   12.20
  -4   3  -3    8.94   12.09
   4   3  -4   21.03   42.25
  -3  -4   4   -4.97   41.42
  -4   3  -4    6.95   41.83
  -3   4  -4   12.85   41.35
  -4  -3   4    4.22   41.68
   3  -4   4    4.33   41.09
   3   4  -4   -4.92   41.77
   4   3  -4  171.15   41.96
  -3   4  -4   -5.09   40.70
   4  -3   4   10.16   41.19
   4   3  -4   -2.49   40.83
  -4   3  -4   -3.35   41.35
   4  -3   4  232.53   42.51
   3   4  -4   -2.77   40.56
   3   4  -4   -5.84   40.92
   4   3  -4  118.18   42.03
  -4   3  -4   15.95   40.76
   4   3  -5 1250.79  260.64
   4  -3   5  933.01  260.97
  -4   3  -5    7.54  259.33
  -3  -4   5  125.38  259.30
  -4  -3   5  890.08  260.95
   4   3  -5 1130.72  260.56
   4   3  -5  422.93  259.68
  -4   3  -5  274.45  259.70
  -3   4  -5   -2.75  259.13
   4   3  -5   23.02  259.45
  -3   4  -5   13.87  259.31
   3  -4   5  116.72  259.44
   3   4  -5    6.23  259.14
   4  -3   6    3.33    8.77
   3   4  -6   -2.61    6.43
  -4   3  -6  -11.78    8.98
   4  -3   6    9.24    8.06
   4   3  -6    5.74    9.75
  -4  -3   6   43.21   16.25
  -3  -4   6   -3.43    8.95
  -4  -3   6   19.66   12.23
   4   3  -6    2.91    8.59
  -3   4  -6    5.01   15.76
  -4   3  -6   -4.74    9.84
   4  -3   6   16.02    7.18
   3  -4   6   14.85   14.55
  -4   3  -6   -4.23   15.40
   3   4  -6    5.31    9.06
   4   3  -6   -3.09   10.01
   4   3  -6   -5.04   17.76
   4  -3   6    8.06   13.15
  -4   3  -6    3.16   13.31
   3  -4   6   13.52    6.82
  -3   4  -6   -5.95   10.65
  -3  -4   7 2048.80 1025.88
   3   4  -7  723.86 1025.34
  -4   3  -7 2147.86 1025.69
   4   3  -7 2792.46 1025.98
  -4  -3   7 4576.40 1027.05
  -4   3  -7 2700.34 1025.97
   3   4  -7   72.66 1025.11
   4  -3   7 3466.26 1025.91
  -4   3  -7 1290.88 1025.88
  -4   3  -7 1541.07 1025.54
   4  -3   7 2642.18 1026.24
   3   4  -7   18.16 1025.27
  -4  -3   7 1949.36 1026.09
   4   3  -7 2838.40 1026.03
  -3  -4   7 3108.02 1027.12
  -3   4  -8  197.54  343.62
  -4   3  -8  719.87  344.26
  -4   3  -8  574.39  344.03
   4  -3   8  763.75  344.01
  -3  -4   8  767.10  345.46
   3  -4   8  719.45  343.72
   3   4  -8   84.51  344.24
  -3  -4   8  655.11  344.28
   3   4  -8  111.65  343.58
  -4   3  -8   41.32  343.60
   4  -3   8  201.80  343.62
   3   4  -8  170.10  343.87
   4   3  -8  317.42  344.72
  -4  -3   8  639.35  344.87
   3   4  -8  281.99  343.80
   4   3  -8  356.08  343.92
   4  -3   8  603.68  344.40
  -4  -3   8  943.57  344.86
  -4  -3   9 1968.04  301.56
   3   4  -9  552.46  299.21
   4   3  -9 1624.80  300.87
   4  -3   9    5.84  298.68
  -3  -4   9 1314.65  300.47
   4   3  -9  300.78  299.24
  -4  -3   9  965.58  300.85
   3   4  -9  620.20  301.02
   3  -4   9 1833.97  303.23
   4   3  -9  932.20  301.89
   3   4  -9  817.10  299.98
  -3   4  -9   10.48  298.70
  -3   4  -9  613.44  300.79
   3   4  -9  493.68  299.23
  -3  -4   9 1880.98  303.50
   3  -4   9  292.07  298.79
   4  -3   9 1553.81  299.86
  -4   3  -9   -2.59  298.72
  -4   3 -10   11.96   47.04
  -3  -4  10   76.84   46.44
  -4  -3  10   60.05   43.60
   3   4 -10   60.40   43.01
   4   3 -10   82.24   47.71
  -4  -3  10   66.15   43.31
   4   3 -10   10.85   42.20
   4   3 -10   70.19   41.85
   4  -3  10  128.81   41.99
  -4   3 -10   65.16   42.53
   4   3 -10   63.28   42.59
  -4  -3  10   24.56   45.88
  -3  -4  10   46.32   43.46
   3   4 -10    7.43   49.54
   3  -4  10   -1.16   40.89
   3  -4  10   69.59   43.63
   3   4 -10   47.59   41.56
  -3   4 -10   48.07   49.08
  -3  -4  10  114.73   43.31
   3   4 -10   19.00   41.97
  -3   4 -10   14.62   42.19
   4  -3  10   69.72   43.08
  -3  -4  10   42.67   44.95
  -4  -3  11  241.51  118.44
   3   4 -11   -8.82  117.36
  -3  -4  11  247.68  118.09
  -4   3 -11  174.43  117.89
   4   3 -11  184.65  118.00
  -3  -4  11  135.55  118.41
  -4   3 -11  176.06  119.69
   3   4 -11  113.80  117.88
   4  -3  11  127.36  118.17
  -4  -3  11  -10.11  118.47
   4   3 -11   19.37  117.45
   4   3 -11  171.78  120.46
   3   4 -11   87.18  120.59
  -3   4 -11   93.93  117.73
   3   4 -11  120.74  117.37
  -4  -3  11   95.06  118.05
  -3  -4  11   51.84  118.42
  -3   4 -11   86.42  119.82
   4  -3  11  205.37  117.52
   4   3 -11  118.40  117.50
   3  -4  11  178.35  118.51
   4  -3  12  395.04  258.38
  -3   4 -12  169.70  260.38
  -4   3 -12  435.32  260.57
   4   3 -12  320.86  258.92
  -3   4 -12  335.23  258.91
   3   4 -12  277.03  258.89
   4   3 -12  368.12  260.88
   4  -3  12  401.24  259.37
   3  -4  12  345.01  259.12
   4   3 -12  169.07  258.40
  -4  -3  12  439.17  259.55
   3   4 -12  -28.27  258.47
   3   4 -12  361.90  258.46
  -4   3 -12  282.89  258.79
  -3  -4  12  -53.20  259.33
  -3  -4  12  353.97  259.33
   3   4 -12  131.63  260.58
  -3  -4  12  586.24  259.15
   3   4 -13   -9.79   19.03
  -3  -4  13    6.95   22.98
   3  -4  13   53.20   24.51
   3   4 -13   26.81   18.67
   4  -3  13   13.20   21.19
   3   4 -13   52.37   36.45
   3   4 -13    4.74   21.53
   4   3 -13   12.26   19.05
  -3   4 -13   15.98   34.44
   4  -3  13   28.36   18.76
   4   3 -13   34.11   22.67
  -4  -3  13    6.94   21.12
  -4   3 -13   -7.06   29.89
  -4   3 -13    9.36   21.64
   4   3 -13   79.08   32.79
  -3   4 -13   13.74   21.15
  -4   3 -14  332.58  255.26
  -3  -4  14  456.12  254.00
   4   3 -14  311.84  254.19
  -4  -3  14  132.77  253.66
  -3  -4  14  379.48  254.69
  -3   4 -14  195.44  255.42
   3   4 -14  233.05  255.66
  -4   3 -14  179.09  253.88
   4   3 -14  168.14  255.05
   3   4 -14  195.21  253.75
  -3   4 -14  339.08  253.99
   4  -3  14  259.93  254.24
   3  -4  14  261.64  254.21
   3   4 -15  -22.52   18.06
  -4   3 -15  -10.91   14.13
  -4  -3  15    8.01   14.42
   4   3 -15    5.69   15.20
  -3   4 -15   -9.01   30.49
   4   3 -15  -17.81   28.73
  -3  -4  15   -7.85   15.88
   3   4 -15   56.74   39.17
  -4   3 -15    8.06   26.53
  -3   4 -15    5.36   15.36
   4  -3  15   -7.70   13.88
   3  -4  15    7.66   16.28
  -4   3 -16  106.46   76.68
  -4  -3  16   84.51   77.50
   4  -3  16   49.02   76.85
  -3   4 -16  135.23   77.41
   3   4 -16  136.22   77.21
  -3  -4  16   67.50   77.01
   3   4 -16   -9.95   82.76
   3  -4  16    8.29   76.07
   4   3 -16   73.64   76.73
  -3   4 -16   73.57   82.27
  -4   3 -16   42.78   80.89
   4   3 -16   84.61   81.35
  -4   3 -17  656.80  639.64
  -3  -4  17  805.58  640.15
   4   3 -17  832.99  639.79
   3  -4  17  715.93  639.98
   4  -3  17  216.02  639.18
   3   4 -17 1106.72  641.55
   4   3 -17  887.35  640.80
  -3   4 -17  871.75  640.78
  -4  -3  17  599.50  639.75
  -4   3 -17  904.93  640.61
  -4   3 -18  457.87  351.76
   4   3 -18  339.17  350.21
   4  -3  18  118.41  349.58
  -4  -3  18  142.98  349.68
  -4   3 -18  386.96  350.12
   3   4 -18  559.67  352.14
  -3   4 -18  569.73  352.25
   3  -4  18  402.65  350.42
  -3   4 -18  497.85  350.25
  -3  -4  18  436.78  350.65
   3   4 -18  479.29  350.37
   4   3 -18  660.87  352.41
  -4   3 -19 1974.72  983.67
  -3   4 -19 1673.05  983.73
  -4  -3  19  628.29  981.83
   4  -3  19  181.84  981.29
   3  -4  19  853.25  982.04
   4   3 -19 1477.65  983.44
   3   4 -19 1971.48  982.79
   3   4 -19 1764.39  983.76
  -3  -4  19 1338.49  982.67
  -4   3 -19 1275.77  982.10
  -4   3 -20   94.52   62.59
   3   4 -20   82.45   54.63
   4   3 -20  128.50   54.50
  -3   4 -20   89.03   53.77
   4   3 -20   21.88   61.57
   3  -4  20   20.49   52.74
  -4   3 -20   51.40   52.18
   3   4 -20  114.90   67.41
  -3  -4  20  -10.55   54.04
   4  -3  20   10.03   52.19
  -3   4 -20   77.93   64.65
  -4  -3  20   10.41   52.85
   3  -4  21  331.00  593.07
   3   4 -21 1106.26  594.17
  -3   4 -21 1105.56  594.17
  -4   3 -21 1569.15  596.22
  -4  -3  21  162.57  592.81
   4   3 -21 1093.54  595.62
  -3   4 -21 1055.88  595.72
  -3  -4  21  646.92  593.74
   4  -3  21   20.94  592.41
   4   3 -21 1162.85  594.12
   3  -4  22   11.10   21.15
   3   4 -22  -24.78   47.69
  -3  -4  23   11.78  100.17
  -4  -3  23   11.67   99.25
   4   3 -23  265.84  101.12
   3   4 -23   51.28   99.40
   4   3 -23  220.84  109.36
   3   4 -23   51.32  105.95
  -3   4 -23  225.40  108.33
   3   4 -24   35.75   26.66
   3   4 -24  -13.26   52.10
  -3   4 -24   -8.74   23.94
   3  -4  24   11.93   28.01
   4   3 -24  -12.69   45.37
  -3  -4  24   24.34   29.01
  -4  -3  24   24.14   27.74
  -3   4 -24   12.97   48.16
   3  -4  25  -12.32   29.57
   3   4 -25  -41.03   54.47
   3   4 -25  -18.43   29.08
  -3  -4  25  -12.55   25.04
  -3   4 -25  -66.99   52.79
  -3  -4  26  -12.92   20.97
   3   4 -26   42.24   53.84
   3   4 -26   -9.49   21.68
  -3   4 -26  -27.64   50.12
  -3  -4  27   13.28   26.14
   3   4 -27   14.47   57.46
  -4  -4   3  -13.21    7.08
   4   4  -3    3.43    6.89
  -4  -4   4   -5.08   19.77
  -4  -4   4   39.06   20.07
   4  -4   4   -4.22   19.37
  -4   4  -4    7.46   18.65
   4   4  -4   10.07   21.54
  -4   4  -4   -4.18   19.52
   4   4  -4    5.97   18.82
   4  -4   4   44.99   18.57
   4  -4   5    2.20    5.73
  -4  -4   5   -4.29    9.38
   4  -4   5   -4.57   11.58
   4   4  -5   10.01    9.29
  -4   4  -5    4.52   12.55
  -4   4  -5    2.69    7.83
   4   4  -5    6.53    5.97
   4   4  -5   -3.19    8.90
   4  -4   6  710.89  225.34
  -4   4  -6  100.27  223.54
   4  -4   6 1480.86  224.81
  -4   4  -6   14.75  223.81
   4  -4   6   12.63  223.33
   4   4  -6  187.51  223.77
   4   4  -6   45.47  223.45
  -4  -4   6 1616.27  226.98
   4   4  -7   -3.25    5.56
  -4  -4   7   -6.09   16.84
   4   4  -7    3.30    9.19
   4  -4   7    5.24    5.39
   4   4  -7    6.17   19.70
   4  -4   7    2.37    5.52
  -4   4  -7   -3.05    9.40
  -4  -4   7    4.23   10.19
  -4  -4   8 2357.82  518.10
  -4   4  -8   11.65  514.60
   4  -4   8  106.59  514.56
   4  -4   8 2342.26  515.35
  -4   4  -8  936.67  514.98
   4   4  -8  277.92  515.32
   4   4  -9   14.17   28.57
   4  -4   9   -2.09    7.00
  -4   4  -9    2.39    9.06
  -4   4  -9   10.23   11.31
   4   4  -9   -3.11    7.97
  -4  -4   9   -6.74   21.46
   4  -4   9    4.91   11.30
  -4  -4   9    8.38   13.07
   4  -4   9   -5.91   19.79
   4   4  -9    3.29   11.52
   4   4  -9    7.87   12.80
  -4   4  -9    2.74   11.98
  -4  -4   9   -5.55   11.42
  -4   4  -9   -6.31   24.24
   4  -4   9   -1.74    4.96
   4   4 -10  232.12  141.23
   4  -4  10    1.75  140.30
  -4   4 -10  359.87  144.28
   4   4 -10  476.84  144.82
   4  -4  10  347.65  140.92
   4   4 -10  617.32  142.83
  -4  -4  10 1184.11  148.69
  -4   4 -10   98.84  140.94
  -4  -4  10  881.36  144.72
  -4   4 -10   -9.34  140.43
  -4  -4  11  175.05   81.32
  -4  -4  11  306.04   77.57
   4   4 -11  196.62   75.73
  -4   4 -11  121.20   86.58
   4  -4  11   -5.70   72.58
  -4   4 -11   86.88   73.07
   4  -4  11   27.26   71.72
   4   4 -11  146.57   74.80
  -4   4 -11   11.62   72.70
   4   4 -12   15.56   50.94
  -4  -4  12  105.85   52.45
  -4   4 -12   68.81   57.76
   4   4 -12   18.11   51.25
   4  -4  12  129.79   52.63
  -4  -4  12   59.74   51.71
   4   4 -12   53.12   50.13
   4   4 -12   58.35   57.98
  -4   4 -12   34.05   51.28
   4   4 -13   14.39   14.85
   4  -4  13  -13.20   13.29
  -4  -4  13   -4.18   15.89
  -4   4 -13   -4.72   14.30
  -4  -4  13    7.04   16.54
  -4   4 -13  -15.86   30.51
   4   4 -13   -8.84   32.76
   4   4 -13    6.04    8.45
  -4  -4  14   12.87   25.83
  -4   4 -14   16.88   36.70
   4  -4  14   21.54   27.22
  -4   4 -14   20.11   25.16
   4   4 -14   31.18   25.35
   4   4 -14   18.68   40.60
   4   4 -14   12.20   22.64
  -4  -4  14   60.18   26.71
  -4   4 -15  -16.60   21.66
  -4  -4  15   31.72   23.17
  -4   4 -15    8.95   36.69
   4   4 -15   76.46   39.09
   4   4 -15   28.45   22.95
   4  -4  15   15.23   22.56
  -4   4 -16  111.14  120.95
  -4   4 -16  198.82  124.61
   4   4 -16   89.73  121.11
   4   4 -16  180.89  126.27
   4  -4  16  123.76  121.38
  -4  -4  16  161.86  121.83
  -4   4 -17   -9.64   34.10
   4   4 -17   -6.51   20.24
  -4   4 -17   37.76   19.81
   4  -4  17   -8.70   16.74
   4   4 -17  -42.16   38.14
  -4  -4  17   17.87   19.02
  -4   4 -18 2016.73  998.32
  -4  -4  18 1445.88  997.14
   4   4 -18 1368.86  996.73
  -4   4 -18  542.23  995.99
   4  -4  18  858.53  996.49
   4   4 -18 1587.66  998.15
  -4   4 -19  -21.24   38.27
  -4  -4  19  -29.98   21.31
   4  -4  19   -9.78   18.84
   4   4 -19   11.51   42.10
  -4   4 -19   -7.08   18.99
   4   4 -19   29.02   21.61
  -4   4 -20 1165.82  669.41
   4  -4  20  337.29  666.99
  -4  -4  20  913.93  668.18
   4   4 -20 1018.99  669.28
  -4   4 -20  739.73  667.64
  -4   4 -21  -15.43   19.63
   4  -4  21   21.32   21.54
   4   4 -21   16.03   21.36
  -4   4 -21  -34.73   41.98
  -4  -4  21   11.04   23.97
  -4   4 -22  438.53  276.84
   4   4 -22  511.65  280.99
   4  -4  22  110.86  275.59
  -4   4 -23   25.01   47.74
   4   4 -23  -12.92   48.60
   4   4 -23   -8.60   23.43
  -4  -4  23   11.85   28.85
   4  -4  24  -11.92   19.98
  -4   4 -24   51.79   50.92
  -4  -4  24  -12.24   22.00
   4   4 -24    8.99   21.30
   4   4 -24   26.68   50.27
   4   4 -25   41.27   54.53
   4   4 -25   18.54   30.83
  -4  -4  25  -12.62   30.00
   4   4 -26   28.32   53.30
  -4  -4  26  -12.99   23.99
   4   4 -26   -9.54   19.75
  -4   4 -26   27.62   50.42
  -4  -4  27   40.02   28.50
   4   4 -27  -43.64   59.12
  -5   0   0    7.66   10.75
   5   0   0    8.12    7.41
   5   0   0   -6.44    7.78
   5   0  -1  302.46  288.36
   5   0   1  412.81  288.59
  -5   0  -1  318.88  288.69
  -5   0   1  277.41  288.62
   5   0   1  260.88  288.32
   5   0  -2   11.29    6.26
   5   0  -2   -1.37    6.40
  -5   0  -2   -4.00   11.63
   5   0   2   -3.21    7.70
   5   0  -2   -1.79    2.36
   5   0   2   -2.99    5.86
  -5   0   2   -2.44    2.59
   5   0  -3    2.95    9.48
  -5   0  -3   28.55   12.97
   5   0  -3   25.43   12.13
   5   0   3   -3.20   10.26
   5   0  -3    1.27    6.82
   5   0  -3   19.19    9.97
   5   0   3    3.08    9.09
  -5   0   3    6.88    6.77
   5   0   4    6.44    7.85
   5   0  -4    3.13    7.63
   5   0   4   -3.16    5.85
  -5   0  -4   -8.29    9.92
  -5   0   4   -2.22    3.73
   5   0  -4    8.77    8.02
   5   0  -5   66.47   23.79
   5   0   5   19.56   23.23
   5   0  -5   84.71   24.27
  -5   0  -5   29.50   23.98
   5   0   5   -3.19   22.25
  -5   0   5    2.73   21.78
  -5   0  -6    4.28    6.54
   0   5  -6    6.09   15.33
   0  -5   6    6.15   14.12
   5   0  -6   -6.22    8.82
  -5   0   6   -3.24    4.48
   5   0   7    3.38  168.34
  -5   0   7   -5.81  169.09
   0   5  -7    6.46  169.15
   0   5  -7   -3.83  168.47
   0   5  -8   -8.14   11.97
   0   5  -8   -6.86   20.43
   5   0  -8    4.63    9.52
   0   5  -8    1.08    2.64
   0  -5   8   -6.77   19.92
   5   0   8   -3.45    7.76
   5   0  -8   12.27   12.47
   5   0  -9    4.80   94.29
   0   5  -9   33.92   94.66
   5   0  -9  182.19   95.04
   0   5  -9   -7.29   96.37
   0  -5  10  -14.74   22.97
   5   0 -10   -4.11    9.47
   0   5 -10  -38.69   33.36
   0  -5  10   24.36   13.72
   5   0 -10   -5.07   13.61
   0   5 -10    8.80   13.88
   0  -5  11    7.69   23.46
   5   0 -11   -4.27   10.94
   0   5 -11  -41.03   30.40
   0   5 -11   -4.56   14.23
   0  -5  11    6.44   14.81
   5   0 -11   22.24   15.97
   0   5 -12  -23.45   23.96
   0  -5  12  -24.43   35.91
   5   0 -12  -24.19   22.55
   0  -5  12   13.50   22.61
   0   5 -12  -17.31   45.62
   0  -5  13  490.81  394.90
   0   5 -13  403.43  394.44
   0   5 -13  319.93  395.77
   0   5 -14  -10.21   17.46
   0   5 -14    9.64   33.07
   0  -5  14   29.99   18.54
   0   5 -15   16.10   35.00
   0  -5  15   39.42   35.33
   0   5 -15   88.98   47.25
   0   5 -16    5.77   22.36
   0   5 -16   51.87   41.03
   0  -5  16   16.74   22.89
   0  -5  17   70.10   79.42
   0   5 -17   87.89   79.96
   0   5 -17   97.77   86.44
   0   5 -18  -11.35   41.76
   0  -5  18    9.35   21.56
   0   5 -18   -6.56   19.37
   0  -5  19  780.19  803.08
   0   5 -19  823.18  802.86
   0   5 -19 1137.39  804.80
   0  -5  20  -20.79   29.34
   0   5 -20  -35.86   50.08
   0   5 -20  -14.76   28.22
   0   5 -21  657.31  618.31
   0  -5  21  658.57  618.69
   0   5 -22   12.87   51.60
   0   5 -23  -13.31   53.35
   0  -5  23   11.82   27.00
   0   5 -23   25.16   26.79
   0   5 -24    8.85   24.92
   0   5 -24  -27.50   50.63
   0  -5  24  -12.21   29.83
   0   5 -25   27.36   29.68
   0   5 -25  -28.35   51.61
   0  -5  25   12.58   23.71
   0   5 -26   58.34   61.62
   0   5 -26  -19.00   27.84
   0  -5  26  -12.95   24.53
   0   5 -27   59.95   64.84
   0   5 -27   -9.76   22.67
   0  -5  27   13.30   25.81
   0   5 -28  -30.75   59.09
   0   5 -28  -10.01   23.15
   0  -5  28   54.58   28.22
   0   5 -29  -15.75   63.69
   0  -5  29  -13.97   27.57
   5  -1   0  259.39  211.18
   5   1   0  141.60  211.10
  -5   1   0  218.39  211.68
  -5  -1   0  349.85  211.75
   5  -1   0  230.89  211.23
  -5  -1  -1 2375.32 1205.13
   5  -1  -1 2301.87 1204.86
   5   1  -1  581.28 1204.19
   5  -1   1 2742.25 1204.93
  -5  -1   1 3371.70 1205.45
  -5   1  -1 2684.55 1205.00
   5  -1   1 2511.69 1204.73
   5  -1  -1 2147.43 1204.71
   5   1   2   30.74   26.89
  -5  -1   2   44.18   27.77
  -5   1  -2   21.94   27.83
   5   1  -2   47.35   26.82
  -5  -1   2   34.38   25.92
   5   1  -2   46.24   26.42
   5   1   2  -10.02   26.11
   5  -1   2   21.54   26.68
   5  -1  -2   31.06   26.86
  -5  -1   2    5.99   26.28
  -5  -1  -2    4.37   26.95
   5  -1   2   38.69   26.47
   5   1  -2   28.71   25.74
   5   1  -2    7.95   26.27
   5  -1   3    2.55    5.93
  -5  -1   3    4.69   10.51
  -5  -1   3   19.07    7.91
   5   1   3    3.37    8.14
   5   1  -3   44.74   11.85
   5   1  -3    4.92   11.96
  -5   1  -3    1.84    6.04
   5   1  -3   10.44    7.36
   5   1  -3   -2.88    8.31
  -5   1  -3   10.30    9.16
   5  -1   3    3.02    9.50
   5  -1  -3   16.45   10.29
  -5  -1   3   -3.82   12.39
  -5   1  -3    7.78   12.06
   5  -1   3   -2.58    7.92
  -5  -1  -3    4.44   10.06
  -5  -1   4  635.41  206.62
   5  -1   4  906.28  207.25
  -5  -1   4 1007.96  207.87
   5   1   4    7.01  205.77
   5   1  -4  519.17  206.76
  -5   1  -4  388.53  206.30
  -5  -1  -4   36.05  205.84
  -5   1  -4  724.86  207.32
   5  -1   4   51.31  205.69
   5  -1  -4  245.51  206.31
  -5   1  -4   20.72  205.68
   5   1  -4  760.80  206.35
  -5   1  -5    9.98  129.00
   5  -1   5  372.95  130.08
   5  -1   5  102.14  129.34
  -5   1  -5  185.54  130.01
  -5  -1   5  204.85  129.64
   5   1  -5  240.08  130.23
   5   1  -5  250.49  129.83
   5   1  -5  325.96  129.62
   5  -1   5   31.82  129.08
  -5   1  -5  261.95  129.84
   5   1  -6 1618.51  306.83
   5  -1   6 1511.17  307.04
  -5   1  -6 1830.49  307.17
   1  -5   6  429.22  306.46
   5  -1   6   59.76  305.41
  -5   1  -6  266.88  305.91
   5  -1  -6   45.11  305.51
   5  -1   6   47.27  305.36
  -1   5  -6    5.99  305.67
   5   1  -6 1341.56  307.22
   5   1  -7  242.78   48.49
   1  -5   7   63.83   46.97
  -5  -1   7  207.28   46.60
   1   5  -7    3.89   45.35
   5  -1   7  101.06   45.46
   1   5  -7   -1.74   44.29
  -1   5  -7  -12.72   47.49
   5   1  -7  204.89   46.02
   5  -1  -7    4.69   44.81
  -1   5  -7    7.54   45.37
  -5   1  -7  247.95   47.31
   5  -1   7   -3.01   44.39
   5  -1   7    9.87   44.44
  -5   1  -7   -3.99   44.81
   5  -1   8  413.93  173.57
   1   5  -8    4.13  173.00
  -5   1  -8    4.04  172.68
  -1   5  -8    4.01  172.98
  -1   5  -8   20.29  173.70
   1  -5   9  638.01   83.70
   1   5  -9   47.40   73.75
   5   1  -9   82.63   74.69
  -1   5  -9    7.19   77.17
   1   5  -9   -4.30   74.71
  -1   5  -9    8.19   74.43
  -5  -1   9  -11.97   75.83
   5  -1  10    6.50   40.87
   5   1 -10  197.21   45.75
  -1   5 -10   34.00   42.11
  -1   5 -10   30.59   50.14
  -1  -5  10   86.32   44.21
   1   5 -10   13.37   42.21
   5   1 -10   45.50   41.61
   1  -5  10   72.24   43.58
   5   1 -10   -4.76   41.25
   1  -5  10   50.97   46.37
  -5  -1  10   43.20   41.75
   5   1 -10   82.42   41.65
  -5  -1  11  106.14   83.71
  -1   5 -11  129.84   89.39
  -5   1 -11  281.21   85.96
   5   1 -11   -4.93   83.07
   5   1 -11  212.95   84.15
   1   5 -11   92.25   84.45
   5   1 -11  239.99   84.58
   1  -5  11  350.12   88.66
   1   5 -11    7.15   82.68
  -1   5 -11  179.78   84.72
  -1  -5  11  299.54   86.23
  -1  -5  11   69.24   83.25
   5  -1  11    3.33   82.93
   1  -5  11  222.98   85.42
   5   1 -11  314.32   86.29
   1  -5  12   32.25   48.22
   5   1 -12   29.12   42.27
   5   1 -12   94.67   45.87
  -5  -1  12    6.39   42.27
   5   1 -12   65.82   42.94
  -5   1 -12   95.27   44.77
  -1   5 -12   -8.57   60.15
   1  -5  12   73.56   44.26
  -1   5 -12   41.79   44.25
   1   5 -12   28.45   43.90
  -1  -5  12   40.93   44.62
   1   5 -13  304.34  266.02
  -1  -5  13  315.96  266.61
   5   1 -13  241.39  265.65
   5   1 -13  482.79  267.03
   5   1 -13  359.57  266.23
  -5   1 -13  554.36  266.95
   1  -5  13  387.81  266.65
  -1   5 -13  253.59  267.95
  -5  -1  13   41.31  265.28
  -1   5 -13  288.97  265.95
   1  -5  14  394.14  265.68
  -5   1 -14  519.59  266.02
  -1   5 -14  219.76  267.21
   1   5 -14  329.70  265.13
   5   1 -14  371.56  266.27
  -5  -1  14   22.13  264.36
  -1  -5  14  559.64  266.26
   5   1 -14  363.52  265.19
   5   1 -14  144.56  264.62
  -1   5 -14  329.04  265.32
  -1  -5  15  357.61  219.81
  -1   5 -15  272.93  219.05
   5   1 -15  112.33  218.39
   5   1 -15  341.77  220.50
  -1   5 -15  225.65  221.15
  -5   1 -15  402.36  220.25
   1  -5  15  297.39  219.84
  -5  -1  15   23.59  218.19
   1   5 -15  405.97  219.39
   5   1 -16    9.70   32.32
   1  -5  16   58.20   35.98
  -1   5 -16  133.93   49.91
   5   1 -16   49.47   40.76
   1   5 -16   17.45   34.44
  -1  -5  16   59.02   35.29
  -1   5 -16   22.92   34.72
   1   5 -17  438.14  346.65
  -1   5 -17  386.73  346.82
   5   1 -17  252.76  347.13
  -1  -5  17  229.37  346.70
  -1   5 -17  388.59  348.71
   1  -5  17  505.17  347.43
   1   5 -18  620.54  541.60
   5   1 -18  413.17  541.72
   1  -5  18  493.05  541.74
  -1  -5  18  602.38  541.84
  -1   5 -18  573.75  541.38
  -1   5 -18  865.40  543.47
  -1   5 -19  388.53  268.77
  -1   5 -19  261.16  265.55
   1   5 -19  342.73  265.57
   1  -5  19  339.64  265.94
  -1  -5  19  156.94  265.15
  -1   5 -20 1272.86  872.97
   1  -5  20  776.28  871.43
  -1  -5  20  930.25  871.53
  -1   5 -21  210.34  142.90
   1  -5  21  118.27  142.98
  -1  -5  21  108.49  142.60
  -1   5 -22  192.24  187.02
   1  -5  23  -11.78   64.80
  -1  -5  23   35.61   66.44
  -1   5 -23  -26.53   77.48
  -1   5 -23  102.44   66.28
   1   5 -23  143.23   67.27
   1  -5  24  -24.34   33.05
   1   5 -24  -26.65   32.53
  -1   5 -24   -8.82   29.17
  -1   5 -24  -41.10   54.01
  -1  -5  24  -12.25   32.24
   1   5 -25   -9.15   33.36
  -1   5 -25   36.37   34.27
  -1   5 -25  -42.38   58.62
   1  -5  25   50.19   33.57
  -1  -5  25   50.50   34.67
   1  -5  26   25.83   25.54
  -1   5 -26  -14.54   58.17
  -1   5 -26  -37.88   26.31
  -1  -5  26  -12.99   27.00
   1   5 -26   -9.42   27.23
  -1  -5  27   40.01   45.97
  -1   5 -27   58.39   45.52
  -1   5 -27  164.42   71.39
   1   5 -27   -9.79   45.59
   1  -5  27   53.09   47.89
   1  -5  28  -54.47   29.80
  -1   5 -28   49.92   27.79
  -1   5 -28  -15.34   64.08
  -1  -5  28   54.71   29.90
   1   5 -28   10.04   26.34
  -1  -5  29   42.01   32.04
   1  -5  29   13.95   29.98
   5   2   0  176.07  169.09
  -5   2   0  191.67  169.88
  -5  -2  -1   74.87  121.14
  -5   2  -1   80.69  121.59
   5  -2   1  204.80  121.41
   5  -2  -1  135.91  121.22
  -5  -2   1  361.76  122.41
   5   2  -1   91.24  120.91
   5  -2  -1  153.16  121.08
   5  -2   1  326.55  121.39
   5   2   1    3.55  120.59
  -5   2   1   -5.10  121.25
  -5   2  -2  140.72  198.12
   5  -2   2 1388.67  200.62
   5  -2  -2  462.92  198.98
  -5  -2   2   -2.82  198.08
   5   2  -2    1.65  198.07
  -5  -2  -2  251.34  198.82
   5   2  -2 1101.95  200.15
   5  -2   2 1629.53  200.42
   5   2  -3  626.27  335.97
   5   2  -3 1875.75  337.58
  -5   2  -3 1281.29  337.73
   5   2  -3   12.59  335.68
  -5   2  -3   -4.15  335.62
  -5  -2   3   -3.18  335.66
   5  -2   3 1747.42  336.49
   5  -2   3    4.18  335.60
  -5   2  -4   12.70  462.83
   5   2  -4  842.13  463.37
  -5   2  -4  722.37  462.96
   5   2  -4  505.85  463.03
  -5   2  -4 1008.93  463.92
   5  -2   4  387.91  462.99
   5  -2   4  658.20  463.05
   5   2  -4    7.14  462.86
   5  -2   4  911.13  463.43
  -5  -2   4  125.27  462.95
  -5  -2   4  572.55  463.16
  -5   2  -5 1146.64  764.68
   5  -2   5 1141.26  764.40
  -5   2  -5  514.73  764.31
   2   5  -5    5.97  764.12
   5   2  -5 1371.88  764.59
   5  -2   5 1443.71  764.48
   5   2  -5 1151.56  764.37
   5   2  -5  424.57  764.33
  -2  -5   5   12.06  764.06
   5   2  -6 1150.32  416.49
   5  -2   6  979.85  416.42
   5  -2   6 1643.60  416.95
  -5  -2   6 1724.06  417.89
   2   5  -6  -12.61  416.09
  -5   2  -6  448.69  416.27
  -2  -5   6  139.98  416.25
   2   5  -6   -4.79  415.73
   2   5  -6    7.48  415.79
  -5   2  -6  991.69  416.29
   5   2  -6  589.25  416.75
  -5   2  -6 1026.88  416.83
  -5   2  -7 2064.11  600.21
   5  -2   7 3614.78  601.17
  -5   2  -7 2417.68  601.15
   5   2  -7 2176.74  601.34
   2   5  -7    7.91  599.31
   5   2  -7 3094.96  600.75
   2  -5   7 1540.77  601.16
  -2   5  -7  -12.53  599.51
   2   5  -7   -6.67  599.54
   5  -2   7 2824.31  600.96
   2   5  -7    9.21  599.27
   2   5  -8   -7.07  166.94
  -2   5  -8   19.41  165.86
  -5   2  -8  801.37  168.21
   2   5  -8   -8.38  165.98
   5  -2   8  738.66  167.48
   5  -2   8 1036.57  167.61
   5  -2   8    2.80  165.59
   2  -5   8  507.04  169.09
  -2   5  -8  -20.01  167.06
  -2  -5   8  669.94  169.56
  -5   2  -8   11.17  165.81
  -5   2  -8  754.98  166.98
   2   5  -8   -2.20  165.65
   5   2  -9  681.59  190.35
   2  -5   9  990.19  191.76
   2   5  -9   44.94  187.06
  -2  -5   9  920.25  191.89
  -2   5  -9   60.64  187.38
  -2   5  -9   42.62  188.66
   2   5  -9   29.99  188.54
   5  -2   9  506.74  188.30
   5  -2   9 1043.89  188.80
  -5  -2   9  128.07  188.49
   2   5  -9   -4.36  187.32
  -5   2  -9    3.75  186.97
   5   2 -10  977.51  431.60
  -2  -5  10  743.26  431.07
   2  -5  10 1389.72  432.57
   2   5 -10  223.46  429.89
   2   5 -10   63.54  430.95
   5   2 -10  196.92  430.06
   5   2 -10 1155.85  430.93
   2   5 -10  103.90  430.16
   5  -2  10  909.43  430.49
  -2  -5  10 1028.21  432.18
  -5  -2  10 1014.04  431.23
  -5  -2  10  -41.91  430.33
  -2   5 -10  113.38  430.58
   2  -5  10  833.54  431.15
  -2   5 -10  285.75  430.17
   2   5 -11  -14.71   11.67
   5   2 -11  -25.71   32.48
   2  -5  11   31.54   17.87
  -2  -5  11  -13.45   10.95
   5  -2  11   -5.48   11.63
   2   5 -11   16.81   38.15
  -5   2 -11   27.75   13.08
  -2   5 -11   21.70   16.09
  -5  -2  11   35.95   14.60
  -2  -5  11  -32.00   35.18
   5   2 -11 -123.19   20.40
   5   2 -11   24.99   13.34
   2  -5  11   -7.53   30.32
   2   5 -11    4.67   17.28
  -5   2 -11   11.09   20.27
  -5  -2  11  -55.49   38.74
  -2  -5  11   26.36   18.65
  -2   5 -11   16.06   43.91
  -2  -5  11  -59.85   26.53
   5  -2  11   -2.93   11.57
   5   2 -11   17.06   16.06
  -2  -5  12  209.49  180.16
  -5   2 -12  962.96  182.31
   5   2 -12 1677.10  187.31
   5   2 -12 1473.63  184.15
   2   5 -12   -2.31  179.93
  -2  -5  12  235.32  180.75
   5  -2  12  261.36  180.41
   5   2 -12   -9.81  180.17
   2   5 -12    4.12  179.75
   5  -2  12  245.11  180.80
  -2   5 -12  706.87  185.64
   2   5 -12  665.97  186.15
  -2   5 -13   98.78  127.06
  -2   5 -13  195.79  123.88
   5   2 -13  301.94  123.86
  -2  -5  13  145.10  124.17
  -5   2 -13  203.24  125.44
   5  -2  13    6.48  122.57
  -2  -5  13  456.28  128.43
   5   2 -13  125.12  123.14
   2   5 -13  233.27  127.73
   5   2 -13  260.14  125.72
   2   5 -13  114.10  123.62
  -5  -2  13   56.60  122.92
   2  -5  13  160.87  124.03
  -5   2 -13  123.33  123.11
   5   2 -13   -5.06  122.54
  -5   2 -14  102.16  409.01
   5   2 -14  674.23  409.54
   2  -5  14  627.50  410.20
  -5   2 -14  754.70  410.45
  -2   5 -14  587.74  409.61
   2   5 -14  499.43  409.80
   2   5 -14  530.28  410.99
   5  -2  14    6.98  408.80
  -2   5 -14  407.66  411.27
  -5  -2  14  241.66  409.45
   5   2 -14  680.37  409.81
  -2  -5  14  824.50  410.67
   5   2 -14  761.67  410.91
   5   2 -15    4.30   19.17
   2   5 -15    5.46   21.99
  -2   5 -15   -9.74   37.85
  -5   2 -15    7.35   27.63
   5  -2  15   -7.47   19.49
  -5  -2  15    8.03   21.32
  -2  -5  15   72.15   27.43
   2  -5  15    7.77   23.59
   5   2 -15   24.47   30.86
   2   5 -15  -10.06   39.42
  -2   5 -15   32.52   22.05
   5   2 -15   58.31   22.24
  -2   5 -16 1033.98  721.87
  -2  -5  16  875.41  720.84
   5   2 -16  906.65  721.18
   2   5 -16  885.69  720.46
  -2   5 -16  711.84  720.31
   2   5 -16  748.70  721.62
  -5  -2  16  246.38  719.90
   5   2 -16  888.88  720.49
  -5   2 -16 1088.76  721.17
   5   2 -16  609.29  720.03
   2  -5  16 1594.99  721.64
  -5   2 -17  274.32  234.92
   2  -5  17  283.29  234.40
   2   5 -17  176.46  236.81
  -5  -2  17   35.85  233.00
   5   2 -17  400.84  236.30
  -2   5 -17  266.69  234.10
   5   2 -17  336.10  234.02
  -2   5 -17  150.26  235.81
   2   5 -17  239.20  233.75
  -2  -5  17  399.97  235.09
  -2   5 -18  392.31  552.86
  -2   5 -18  726.48  551.55
  -5  -2  18   65.97  550.69
   2  -5  18  851.82  552.11
   2   5 -18  633.09  553.49
   5   2 -18  554.29  551.42
  -5   2 -18  580.00  551.99
   5   2 -18  823.85  552.74
  -2  -5  18  672.95  551.92
   2   5 -18  931.08  551.85
   2   5 -19 1018.07  841.52
   2   5 -19 1582.71  843.76
   2  -5  19 1049.50  842.05
   5   2 -19 1212.91  841.68
  -2   5 -19 1148.85  843.10
  -5  -2  19   29.63  840.53
  -5   2 -19 1370.03  842.54
  -2  -5  19 1233.91  842.16
  -2   5 -19 1299.76  841.77
   5   2 -19 1214.98  842.60
   2  -5  20  639.25  501.11
  -2   5 -20  621.86  500.54
  -2   5 -20  817.43  502.78
  -5   2 -20  602.60  501.50
  -5  -2  20  -10.32  499.43
  -2  -5  20  757.02  501.40
   2   5 -20  851.87  500.81
   5   2 -20  545.89  501.65
   2   5 -20  774.37  503.55
   2  -5  21  612.84  552.61
  -2   5 -21  543.23  552.27
   5   2 -21  656.75  553.57
   2   5 -22  156.03  191.85
  -2   5 -22  242.64  192.86
   2   5 -23   13.44   57.18
   2  -5  23   47.00   39.47
  -2   5 -23   51.07   37.56
  -2   5 -23   66.10   60.89
  -2  -5  23   11.93   38.60
   2   5 -23    8.47   37.88
   2  -5  24   85.00  129.04
   2   5 -24  214.26  129.66
   2   5 -24   55.48  136.47
  -2  -5  24   24.61  128.50
  -2   5 -24  109.32  136.61
  -2   5 -24  219.84  129.81
  -2   5 -25   -9.07   33.62
  -2   5 -25  -56.37   58.23
   2   5 -25   14.29   56.67
  -2  -5  25  -63.38   36.79
   2   5 -25   -9.20   32.24
   2  -5  25  -25.05   30.61
   2  -5  26  -12.89   51.98
   2   5 -26   44.09   76.54
  -2   5 -26  174.15   75.65
   2   5 -26   85.12   55.49
  -2  -5  26   26.08   55.43
  -2   5 -26   66.17   54.28
   2  -5  27   66.28   44.66
  -2  -5  27  -13.39   42.65
   2   5 -27  -15.09   67.53
   2   5 -27    9.83   43.37
  -2   5 -27    9.72   42.75
   2  -5  28   13.60   59.32
   2   5 -28   60.44   60.36
  -2   5 -28  122.52   82.49
   2   5 -28  247.60   92.22
  -2  -5  28   27.44   59.41
  -2   5 -29  -62.76   65.43
   2   5 -29   79.21   64.44
  -2  -5  29  -14.05   20.89
   5  -3   0   -3.27    6.75
   5  -3   1  288.21  270.87
  -5   3  -2   -9.54   93.36
   5  -3   2   25.38   92.77
   5  -3   2  196.62   93.24
  -5   3  -3   59.62   51.09
   5   3  -3    7.94   49.23
  -5   3  -3    1.72   48.62
   5   3  -3    2.35   48.72
  -5  -3   3   -4.01   48.87
  -5  -3   4   -4.35   85.42
   5   3  -4    2.56   85.12
   5  -3   4  300.20   86.55
   5   3  -4    4.32   85.57
  -5   3  -4   57.45   86.40
   5  -3   4  363.85   86.24
  -5   3  -4   -6.48   85.30
  -5   3  -4   81.27   85.21
   5  -3   4    9.80   85.14
   3   5  -5    6.09  203.81
   5  -3   5  166.16  203.82
   5   3  -5  172.81  203.80
  -3   5  -5    9.73  203.48
  -3  -5   5   -6.15  203.67
  -5   3  -5    7.32  203.67
  -5   3  -5  307.46  204.48
  -5   3  -5  340.65  203.80
   5  -3   5  626.94  204.38
   5  -3   5  660.98  204.30
  -5   3  -5  383.41  204.16
   5  -3   5  611.88  204.46
   3   5  -5   -3.05  203.41
  -5  -3   5  158.16  204.02
   5   3  -5   -4.72  203.95
   5   3  -6   97.98  435.94
  -5   3  -6 1895.71  436.58
   3   5  -6    5.95  435.55
   3   5  -6   12.84  435.84
  -3  -5   6  129.57  436.01
  -5  -3   6 1969.10  437.61
  -5   3  -6 1686.84  437.06
   3   5  -6   -7.62  435.59
   5  -3   6 2393.06  437.51
  -5   3  -6 1756.04  437.49
  -5   3  -6  309.73  436.06
   5  -3   7  972.81  365.92
  -3  -5   7  340.52  365.91
   3   5  -7   -6.79  365.32
  -5   3  -7  426.32  365.80
  -5   3  -7  633.30  365.68
   5  -3   7 1094.77  365.67
  -3   5  -7   -6.17  365.23
   3  -5   7  322.20  365.82
   5  -3   7 1455.30  366.89
   5  -3   7 1020.57  365.81
   3   5  -7   -8.05  365.02
   3   5  -7   -2.90  364.96
  -3  -5   8 1609.53  572.33
  -5   3  -8  397.62  570.12
  -3   5  -8   -6.58  570.19
  -3   5  -8   34.48  569.87
   3   5  -8  -28.75  570.30
   3   5  -8   70.75  569.88
   5  -3   8 1247.82  570.44
   3  -5   8 1342.66  570.19
   5  -3   8 2366.49  571.06
  -3  -5   8   84.40  569.86
  -5   3  -8 1963.99  570.84
   5  -3   8 2487.60  571.70
  -5   3  -8 1707.21  571.79
   5   3  -8 1257.03  571.66
  -5  -3   8 2236.92  572.41
   3   5  -8   29.82  569.93
   3  -5   8 1988.48  572.35
  -3  -5   9 1045.20  290.37
  -3   5  -9   14.03  288.02
   3  -5   9 1392.64  287.52
  -3   5  -9  123.83  287.43
   5  -3   9   57.64  287.05
   3  -5   9 1265.62  291.48
   3   5  -9   76.12  288.55
   5   3  -9  972.01  290.30
   3   5  -9   97.11  287.26
   3   5  -9   22.13  287.30
  -3  -5   9  199.83  287.34
  -3   5  -9  157.67  287.09
   5   3  -9 1272.87  288.77
  -5   3  -9   -6.91  287.10
  -5   3 -10    3.46  115.81
   5  -3  10  458.22  117.00
  -3   5 -10  -14.95  119.12
   3  -5  10  227.90  119.74
  -3   5 -10   -2.65  115.69
   3  -5  10  190.19  115.75
  -3  -5  10   90.29  116.11
  -3  -5  10  234.26  117.84
   3   5 -10   60.42  116.16
   5   3 -10  468.95  117.70
   3   5 -10   41.23  116.64
   3  -5  10  276.11  117.77
   5   3 -10   82.42  116.75
   3   5 -10   -2.76  115.70
  -5  -3  10   88.40  118.31
   3   5 -10    8.06  119.69
  -5   3 -10  265.86  118.73
  -3   5 -10   95.61  116.79
   5   3 -10  299.35  120.32
  -3  -5  10  258.83  119.53
  -5  -3  10  315.91  117.66
  -5   3 -11  740.81  348.60
   5   3 -11  660.89  350.28
  -3  -5  11  498.56  348.16
  -5   3 -11  547.54  349.80
   3  -5  11  767.59  349.32
   3   5 -11  383.18  348.29
  -3  -5  11 1069.56  351.26
  -3   5 -11  412.57  348.11
  -3  -5  11 1019.43  349.18
  -3   5 -11  262.43  349.75
   3   5 -11   69.08  347.58
  -5  -3  11 1030.39  349.50
  -3  -5  11  513.87  348.93
   5   3 -11   45.84  347.75
   5  -3  11 1138.20  348.38
   3   5 -11  119.21  349.77
   5   3 -11 1028.49  348.91
   3   5 -11    8.28  347.47
   3  -5  11 1068.04  350.72
  -5  -3  11  -42.22  349.54
  -5  -3  12   45.14   19.76
   3   5 -12   -2.78   15.12
   5   3 -12   60.19   21.24
   3  -5  12   55.44   27.85
  -3  -5  12    6.98   22.78
   5  -3  12   54.78   20.92
  -3   5 -12    8.95   19.01
   5   3 -12   24.72   16.80
  -5   3 -12   26.97   28.01
  -3  -5  12   16.35   22.60
   3   5 -12    9.71   20.21
  -5  -3  12  -24.74   28.87
   3   5 -12  -26.96   36.83
  -3  -5  12   33.69   30.96
   5   3 -12    4.74   18.84
  -5   3 -12   17.26   18.46
   5  -3  12    2.60   16.03
  -3  -5  12   28.87   17.42
   3  -5  12   39.32   20.82
  -3   5 -12  -25.32   36.99
   3   5 -12  -11.72   17.24
   5   3 -12   62.18   31.35
  -3  -5  13 1634.92  752.11
  -3  -5  13   41.39  751.43
  -5  -3  13 1889.54  753.18
  -5  -3  13 1678.04  752.48
   5   3 -13 1483.44  753.53
  -3  -5  13 1987.43  754.14
   5   3 -13   14.66  751.28
  -5   3 -13 1278.72  753.11
   3   5 -13  660.59  752.80
  -3   5 -13  516.71  752.54
   5   3 -13 1613.79  752.11
  -5   3 -14  112.68  112.70
   3   5 -14   78.86  110.20
   5   3 -14   -5.04  109.12
   3   5 -14  109.17  115.51
  -5   3 -14  147.44  110.15
   5  -3  14  114.86  109.99
  -3   5 -14   65.89  114.01
   5   3 -14  152.22  109.64
   3  -5  14  146.66  110.47
   5   3 -14   85.06  113.23
  -5  -3  14  122.32  110.30
   5   3 -14  195.85  110.52
  -3   5 -14   84.80  109.85
  -3  -5  14  200.51  111.40
   5   3 -15  261.07  255.30
   3   5 -15  408.23  256.06
   3   5 -15  260.40  258.39
  -5   3 -15  408.81  257.33
  -3   5 -15  300.07  257.88
   3  -5  15  265.85  256.42
   5   3 -15  270.61  255.83
  -3   5 -15  156.21  255.49
   5   3 -15  288.14  257.31
  -3  -5  15  380.36  256.41
  -5  -3  15  250.85  255.93
   5  -3  15  153.18  255.52
  -5   3 -15  293.68  255.66
   3  -5  16   90.43   58.14
  -5  -3  16   59.76   56.65
   5   3 -16   66.50   63.44
  -3   5 -16  132.32   67.95
  -5   3 -16   47.10   55.63
   5  -3  16   -8.14   55.33
   5   3 -16   31.00   55.97
   3   5 -16   41.44   56.52
  -3   5 -16   94.15   56.61
   3   5 -16  127.71   68.13
  -5   3 -16   59.62   61.80
  -3  -5  16   68.60   57.09
   3  -5  17  969.18  580.92
   5  -3  17  137.80  579.46
   3   5 -17  748.59  580.15
   5   3 -17  828.17  580.21
  -3   5 -17  512.22  579.99
  -5  -3  17  458.46  580.09
  -3  -5  17  743.87  580.67
   3   5 -17  656.35  581.87
  -5   3 -17  892.58  581.15
   5   3 -17  729.54  581.41
  -3   5 -17  597.95  581.75
  -5   3 -17  611.70  579.86
  -5   3 -18  951.05  570.63
   3   5 -18 1102.48  573.40
  -3   5 -18  569.68  569.20
   3  -5  18  709.98  569.80
  -3  -5  18  974.19  570.26
   5   3 -18  985.08  569.67
  -5  -3  18  384.66  569.11
   3   5 -18  858.16  569.71
  -5   3 -18  618.56  569.10
  -3   5 -18  882.84  572.26
   5  -3  18   18.17  568.33
   5   3 -18  807.14  571.23
   5   3 -19  814.15  523.79
  -5  -3  19  181.05  521.54
  -3   5 -19  692.75  522.24
   3  -5  19  680.70  522.70
   5  -3  19   19.10  521.07
  -5   3 -19  909.94  523.55
  -3   5 -19  747.65  523.94
   3   5 -19 1043.15  522.72
   3   5 -19  749.01  524.24
  -3  -5  19  914.77  523.30
  -5   3 -19  489.45  521.76
   5   3 -19  708.73  522.33
  -3   5 -20 1227.97  765.54
   5   3 -20 1389.95  767.12
  -5  -3  20  304.29  764.66
   3   5 -20 1167.40  767.17
  -3   5 -20 1416.46  767.36
   3  -5  20 1027.82  765.88
   5  -3  20   10.01  764.20
   3   5 -20 1189.06  765.57
   5   3 -20 1356.85  765.77
  -3  -5  20  825.72  765.54
  -5   3 -20 1488.41  767.09
  -5   3 -21  690.13  259.87
  -5  -3  21   32.76  255.39
  -3   5 -21  348.15  256.29
   3  -5  21  240.11  256.28
   5   3 -21  305.10  256.09
  -3  -5  22  162.46  279.74
   3   5 -22  387.58  279.33
   3   5 -22  314.00  283.57
   3  -5  23  211.10  213.20
   3   5 -23  204.47  211.73
  -3  -5  23  131.91  213.00
  -3   5 -23  178.31  212.36
   3   5 -23  378.59  219.48
  -5  -3  23  270.25  215.18
   5   3 -23  395.40  219.45
  -3   5 -23  329.77  217.76
   3   5 -24   17.95   25.72
   3   5 -24  -41.84   55.35
  -3   5 -24   26.33   26.46
  -3   5 -24  -27.27   54.86
   3  -5  24  -12.12   23.72
  -3  -5  24   37.10   24.80
  -5  -3  24  -24.30   23.10
   5   3 -24   63.90   47.67
  -3   5 -25   54.98   31.81
   3  -5  25   12.51   29.99
   3   5 -25   27.73   31.42
  -3   5 -25  -28.14   56.02
  -3  -5  25   12.74   30.89
   5   3 -25  -13.19   51.49
   3   5 -25  -14.36   60.04
  -3   5 -26   28.31   29.44
   3  -5  26   12.88   27.48
   3   5 -26   28.51   30.22
   3   5 -26   14.77   59.07
  -3   5 -26   86.95   59.92
  -3  -5  26  -26.19   31.45
   3  -5  27   52.98  182.29
  -3  -5  27   13.44  182.13
  -3   5 -27  253.30  192.27
  -3   5 -27  349.30  183.94
   3   5 -27  257.74  191.79
   3   5 -27  305.99  183.84
  -3  -5  28  -13.77   27.87
   3   5 -28   62.16   62.77
   3   5 -28   10.12   21.67
  -3   5 -28  -61.19   59.36
   3  -5  28  -13.60   23.71
   3   5 -29  206.75   90.00
  -3  -5  29   14.10   68.58
  -3   5 -29  109.76   90.52
   3   5 -30   16.25   64.75
   5   4  -2    4.09    8.85
   5  -4   3    3.71   62.75
   5  -4   3  125.39   63.41
   5  -4   4    3.54   26.20
  -5   4  -4   -4.85   26.18
   5   4  -4   -3.06   26.51
  -5  -4   4    5.20   26.97
   5   4  -4   -5.16   27.45
  -4   5  -5   -3.19   15.27
  -5   4  -5   -7.88   15.00
   4   5  -5  -12.42   18.02
   5   4  -5    6.51   15.81
  -5   4  -5   -4.42   16.15
  -4  -5   5   18.80   17.64
   5  -4   5    8.92   15.56
  -4  -5   6   45.98   66.57
   4  -5   6  155.35   66.78
  -4  -5   6   33.00   67.62
  -5   4  -6   78.56   66.73
   5  -4   6  113.20   67.11
   4   5  -6   -7.76   66.83
   4   5  -6  -13.09   68.65
  -5   4  -6    4.81   67.44
  -5   4  -6   -8.48   67.33
   4   5  -7   21.12  366.27
  -5  -4   7  843.71  367.94
  -5   4  -7   32.53  366.45
   4  -5   7  390.74  367.22
  -4  -5   7  575.11  367.88
  -5   4  -7  652.40  366.77
   4   5  -7    6.91  366.78
  -4   5  -7   -6.08  366.59
   4   5  -7   16.38  366.26
  -4  -5   7  464.02  366.84
   5   4  -7  369.50  366.64
   5  -4   7 1654.21  368.25
  -5   4  -7  609.73  366.80
   5  -4   7 2205.67  367.66
   5   4  -7  -31.46  366.96
   4   5  -8   -3.44   81.11
  -4  -5   8   72.20   81.90
   5  -4   8  223.51   81.97
  -5  -4   8  158.73   82.91
  -4   5  -8  -12.98   84.42
  -5   4  -8    3.91   82.74
   4   5  -8    6.98   81.67
   5  -4   8  106.09   81.77
   4   5  -8    8.50   82.07
   4   5  -8    7.31   84.47
   5   4  -8  -33.68   85.59
  -4   5  -8   22.68   81.85
   5   4  -8   82.36   82.11
   4  -5   8  193.26   81.60
  -5   4  -8   53.28   81.93
  -4  -5   8   93.68   83.98
   4  -5   8  115.40   84.03
  -5  -4   8  124.60   84.28
   5  -4   9  608.07  329.00
  -5  -4   9 1315.49  331.68
  -5   4  -9  279.92  329.75
   4   5  -9    3.43  328.36
  -4   5  -9   86.83  328.68
  -4   5  -9  134.08  328.52
   4   5  -9   83.54  328.71
  -5   4  -9  146.88  328.84
   5  -4   9 1475.44  331.65
   5   4  -9  340.39  329.01
   5   4  -9  208.89  330.10
   4   5  -9  -15.46  329.78
  -4  -5   9 1021.35  331.82
  -5   4  -9   99.83  328.61
   4  -5   9 1081.84  328.90
  -4  -5   9  732.82  329.56
   4  -5   9 1068.05  331.20
   5  -4   9  895.50  329.05
   5   4  -9  739.35  329.43
   4   5  -9  116.93  328.60
  -4   5  -9  -13.86  329.37
  -5   4 -10  377.27  211.56
  -5  -4  10  676.83  214.55
   4   5 -10  -57.21  216.23
   5  -4  10  555.82  214.78
  -5  -4  10  590.54  213.38
  -4  -5  10  745.72  212.70
  -4   5 -10  187.94  211.44
   4  -5  10  604.63  212.99
   4  -5  10  872.39  215.55
   5   4 -10   30.75  217.17
   4   5 -10  109.00  211.56
   5  -4  10  539.07  212.84
   5  -4  10  580.88  211.65
   5   4 -10  115.00  211.44
  -4   5 -10  -19.88  211.09
  -4  -5  10  676.31  215.23
   5  -4  10  105.32  210.83
   4   5 -10   24.05  210.81
  -5   4 -10  178.49  212.07
   4   5 -10   89.19  211.11
  -4   5 -10   -7.40  214.82
  -5  -4  10  209.00  214.80
  -4  -5  10  494.43  212.90
  -5   4 -10  207.97  213.74
   5   4 -10  564.65  212.45
  -4  -5  11  -13.53   15.71
   5  -4  11   -5.64   12.38
   5  -4  11    2.51    9.60
  -4   5 -11    7.88   28.82
  -4  -5  11   16.42   25.13
   4   5 -11   -9.33   15.77
  -5   4 -11   -7.03   18.63
  -4  -5  11   -4.49   13.09
   4   5 -11  -34.53   35.33
   5   4 -11  -25.75   14.94
  -5  -4  11    7.66   23.74
   4   5 -11  -10.37   14.13
   5   4 -11   65.25   33.39
  -5   4 -11    7.23   27.30
   4  -5  11    6.13   14.00
  -4   5 -11    4.26   13.75
   4  -5  11    7.50   24.97
   5   4 -11   21.68   14.14
  -5   4 -11   -7.86   12.07
  -5   4 -11   -6.37    7.95
  -5  -4  11   17.89   24.46
   5  -4  11   -2.38    5.31
  -5  -4  11  -12.67   16.11
   4   5 -11   -3.45    7.47
   5   4 -12  353.31  164.05
  -4   5 -12  125.54  165.85
  -4   5 -12  146.41  163.54
  -5   4 -12  219.81  166.27
   4   5 -12  109.25  166.51
   5  -4  12  429.08  164.70
   4   5 -12   98.32  163.58
   4  -5  12  318.58  164.47
  -4  -5  12  258.99  163.83
   4   5 -12   33.05  162.94
  -4  -5  12  233.17  164.44
   4   5 -12   68.15  162.87
  -5   4 -12  232.07  163.57
  -5  -4  12  336.30  164.69
   5   4 -12   22.53  163.04
   4  -5  12  369.12  166.24
  -4  -5  12  355.00  166.37
   5   4 -12  190.55  166.14
  -5  -4  12   79.46  164.71
  -4  -5  13  333.91  210.94
   5  -4  13  207.66  210.27
  -4  -5  13  386.03  212.95
   4   5 -13   47.92  212.32
   5   4 -13  293.80  210.23
   4   5 -13  167.56  209.95
  -5  -4  13  270.67  210.76
  -5  -4  13  353.79  210.65
   5   4 -13    4.75  209.48
  -5  -4  13   12.47  210.22
  -4   5 -13  203.35  212.68
   5   4 -13  196.88  212.29
   4  -5  13  241.20  210.41
   4  -5  13  491.20  213.06
   5   4 -13  399.66  210.07
  -5   4 -13  275.64  211.87
  -4  -5  13  388.83  210.45
   4   5 -13  155.23  209.43
  -5   4 -13  196.91  209.93
  -4   5 -13  149.97  209.88
   5   4 -14  236.64  156.99
   4  -5  14  211.33  157.90
   4   5 -14  116.97  156.70
   5   4 -14  -14.67  155.94
  -4   5 -14  187.87  156.69
  -4   5 -14   84.15  159.37
  -5  -4  14    6.37  157.08
  -4  -5  14  452.78  160.68
  -4  -5  14  148.12  157.13
   4   5 -14  150.55  160.25
  -5  -4  14  274.96  157.36
   5   4 -14  141.79  159.58
  -5   4 -14  197.00  156.84
  -5  -4  14  129.36  156.97
   5   4 -14  217.05  156.24
  -5   4 -14  150.94  159.06
   5  -4  14  192.69  156.91
  -5   4 -15   11.01   17.75
   5  -4  15   -7.77   17.36
  -4   5 -15    5.35   17.71
  -5  -4  15   73.72   21.35
   5   4 -15   23.02   18.60
   4   5 -15  -16.73   18.30
  -4   5 -15   -9.86   38.69
   4  -5  15    7.78   19.12
   5   4 -15   -9.96   37.68
  -5   4 -15    8.90   33.12
  -5  -4  15   15.63   20.78
  -4  -5  15    8.18   20.98
   4   5 -15  -42.11   43.67
  -5  -4  16  172.12  116.54
   5   4 -16  213.27  121.17
  -4   5 -16  101.26  120.86
  -5   4 -16   89.15  115.19
   5  -4  16   57.51  115.12
  -5   4 -16   94.22  119.14
   4  -5  16  150.48  116.06
  -4   5 -16  152.20  115.96
   4   5 -16  154.26  121.91
  -4  -5  16  155.82  116.50
   5   4 -16   84.64  115.54
   4   5 -16  125.56  115.63
   5   4 -17  401.13  300.28
  -5  -4  17  434.40  300.89
  -4  -5  17  307.42  300.36
   5  -4  17  203.53  299.93
  -5   4 -17  213.12  299.62
  -4   5 -17  340.12  302.54
   4  -5  17  447.58  300.72
   5   4 -17  361.93  302.63
  -5   4 -17  268.33  301.68
  -4   5 -17  270.32  300.02
   4   5 -17  348.10  303.73
   4   5 -17  363.38  300.13
  -5  -4  18  183.58  148.92
  -4   5 -18  289.40  154.21
   4  -5  18  244.82  149.48
   5   4 -18  267.14  153.79
   4   5 -18  152.20  153.80
  -4   5 -18  106.83  148.20
  -5   4 -18   94.26  147.85
  -4  -5  18  154.10  148.97
  -5   4 -18  111.09  152.51
   5  -4  18  139.57  148.37
   4   5 -18  162.33  148.64
   5   4 -18  164.99  148.28
  -5   4 -19 1069.66  751.27
   4   5 -19 1139.51  749.67
  -4   5 -19  781.00  749.27
  -4  -5  19 1082.40  750.00
   5  -4  19  351.24  748.92
  -5  -4  19  699.97  749.51
   4  -5  19  855.80  749.78
   5   4 -19 1046.78  749.58
   4   5 -19  584.70  750.29
   5   4 -19  778.01  750.76
  -4   5 -19  907.10  751.02
  -5   4 -19  599.96  749.11
   4   5 -20  257.89  124.82
   4  -5  20  125.67  123.91
   5   4 -20   68.57  122.97
  -5   4 -20  147.62  123.52
  -4  -5  20   74.65  123.42
   5   4 -20  205.46  131.51
  -4   5 -20  118.72  123.68
  -5   4 -20  155.07  127.31
  -4   5 -20  164.77  130.89
   5  -4  20   61.22  122.97
  -5  -4  20  160.69  124.52
   4  -5  21  272.28  312.05
  -5   4 -21  762.77  315.63
  -5   4 -21  412.96  311.52
  -4   5 -21  540.18  312.08
   5  -4  21   10.64  310.46
   5  -4  22   11.07   54.70
   4   5 -22  122.14   72.97
   5   4 -22   39.04   70.41
  -4  -5  22   58.41   57.48
   4   5 -22    8.30   56.40
  -5   4 -22  121.63   55.63
   5   4 -23   17.33   37.97
  -4   5 -23   42.38   37.43
  -5  -4  23  -11.93   37.55
  -4   5 -23   26.34   61.98
   5   4 -23   39.03   62.26
   4  -5  23   11.71   38.05
   4   5 -23  190.54   68.92
  -4  -5  23  -24.13   38.53
  -5   4 -23  162.34   57.80
   4   5 -23   60.03   39.02
   4   5 -24    9.03   26.65
   5   4 -24   27.17   25.02
  -4   5 -24   62.10   29.30
  -4  -5  24  -12.44   31.02
   5   4 -24  -40.30   49.20
  -4   5 -24  -13.62   50.98
   4  -5  24  -12.11   26.57
  -5  -4  24   49.27   30.25
  -5   4 -24   12.94   50.08
   4   5 -24  -14.03   58.41
  -5  -4  25   25.39   19.10
   4  -5  25   25.00   20.50
  -5   4 -25  -40.15   51.31
   5   4 -25   13.85   51.53
  -4   5 -25   -9.15   23.93
  -4  -5  25   12.81   26.12
   4   5 -25   -9.30   23.92
   4   5 -25  -14.45   53.75
   5   4 -25    9.33   20.26
  -4   5 -25   14.05   51.49
  -4   5 -26   -9.43   40.84
  -5  -4  26   13.06   37.78
   4  -5  26  -12.88   38.11
   4   5 -26  133.67   70.56
  -4   5 -26  115.84   68.53
   5   4 -26  227.96   69.56
  -5   4 -26   82.86   62.98
   4   5 -26   86.00   43.32
  -4  -5  26  -13.16   41.98
   4   5 -27    9.92   23.30
  -4  -5  27  -13.51   27.15
  -4   5 -27  -29.79   66.68
   4   5 -27   15.24   57.69
  -5  -4  27   13.41   25.53
   5   4 -27   43.90   61.24
   4  -5  27  -52.98   24.48
  -4   5 -28  -15.29   61.29
   4   5 -28  -10.17   25.24
  -4  -5  28   13.84   23.01
   4   5 -28   46.85   58.32
  -4   5 -29  -62.72   62.66
   4   5 -29   95.86   64.21
  -4  -5  29   14.16   25.59
   4   5 -30  146.93  152.18
   5   5  -3    8.72   11.79
  -5   5  -5   -6.26    8.61
   5   5  -5   -3.76    9.96
  -5  -5   5   -6.39   12.26
   5   5  -5   19.01   15.53
   5   5  -5    4.24   10.67
   5  -5   5   -2.98    7.38
   5   5  -6    3.95  130.45
  -5  -5   6   13.45  130.78
   5   5  -6   13.33  131.05
   5   5  -6   25.11  130.48
   5  -5   6  349.46  130.71
   5   5  -7    4.17   13.06
  -5   5  -7   35.90   17.65
   5   5  -7    7.04   21.48
  -5  -5   7  -14.18   17.29
   5  -5   7    6.04   16.25
   5   5  -7   -8.29   11.97
   5  -5   8  540.12  249.68
  -5  -5   8  633.30  250.32
   5   5  -8  -66.89  249.98
   5   5  -8   37.33  247.67
  -5   5  -8   18.23  247.70
  -5   5  -8  -32.01  249.59
   5   5  -8    4.32  247.66
  -5   5  -9  -24.50   15.65
  -5   5  -9    3.81   14.29
  -5  -5   9   -7.74   26.12
   5   5  -9  -31.42   34.96
   5  -5   9    2.14    9.00
   5   5  -9   12.31   15.22
   5  -5   9   -5.84   10.15
   5  -5   9   -5.38   14.60
  -5   5  -9  -13.69   32.71
   5  -5   9  -33.81   28.50
   5   5  -9    4.47   14.90
   5  -5  10   49.68   15.97
  -5   5 -10   11.86   18.46
   5  -5  10   45.60   22.00
  -5   5 -10   -6.18   18.23
  -5   5 -10   21.94   29.63
   5  -5  10   -2.76   15.20
   5   5 -10  -20.52   19.61
   5   5 -10   -4.61   20.22
   5  -5  10   -7.13   27.14
   5   5 -10  -24.89   33.89
  -5  -5  10   40.38   29.39
  -5  -5  10    6.50   19.62
   5   5 -11   -4.14   15.34
  -5   5 -11   -7.80   30.30
  -5   5 -11  -12.41   14.47
  -5  -5  11  -24.98   26.01
   5  -5  11  -12.12   14.52
   5   5 -11    8.76   29.83
   5   5 -11   -4.73   15.65
  -5  -5  11   -6.86   17.04
   5  -5  11   37.17   24.81
  -5  -5  12  143.14   98.50
  -5  -5  12  184.24  102.06
   5  -5  12  202.52  101.29
   5   5 -12  136.88   98.47
   5   5 -12   55.36  102.81
   5  -5  12   90.28   98.35
   5   5 -12   98.01   97.39
   5   5 -12   21.39   97.36
  -5  -5  12  152.68  100.97
  -5   5 -12  118.40   98.19
  -5   5 -12   58.09  102.06
  -5  -5  13   -6.22   26.37
   5  -5  13    6.84   16.34
  -5   5 -13    8.81   35.97
   5   5 -13    4.60   14.63
  -5  -5  13   -7.51   18.90
   5   5 -13    5.14   16.02
   5  -5  13  -24.80   29.90
  -5  -5  13   10.75   19.61
  -5   5 -13    4.65   13.35
  -5  -5  13  -27.27   28.93
   5   5 -13    9.71   35.40
   5   5 -13   -3.99   11.15
  -5  -5  14  372.21  281.89
  -5   5 -14  272.46  279.81
   5   5 -14  244.62  282.29
  -5  -5  14  362.72  280.82
   5   5 -14  225.96  279.82
  -5  -5  14  343.54  280.34
   5  -5  14  410.41  280.75
  -5   5 -14  157.94  281.96
   5   5 -15   11.56   16.64
  -5   5 -15  -19.62   34.35
  -5  -5  15   20.00   35.92
  -5  -5  15   -8.26   18.66
   5   5 -15  -10.65   41.24
   5  -5  15   -7.74   17.48
  -5   5 -15   -5.53   16.74
   5   5 -16  -11.14   43.99
   5   5 -16   30.21   26.82
  -5  -5  16    8.74   28.29
   5  -5  16   33.30   25.35
  -5   5 -16    5.83   25.52
  -5   5 -16   70.54   46.76
  -5   5 -17  -31.76   45.73
  -5   5 -17  -12.70   20.36
   5   5 -17   -6.55   20.93
   5   5 -17  -11.63   45.32
   5  -5  17   -8.74   19.89
  -5  -5  17    9.13   24.18
   5  -5  18  403.64  345.13
   5   5 -18  413.65  348.23
  -5  -5  18  505.44  345.75
  -5   5 -18  379.23  344.68
  -5   5 -18  343.90  347.25
   5   5 -18  245.82  344.56
   5   5 -19  -12.29   52.09
   5   5 -19   29.48   21.94
   5  -5  19    9.81   19.49
  -5  -5  19   10.11   24.39
  -5   5 -19  -46.39   48.31
  -5   5 -19   -7.10   21.93
  -5  -5  20  677.38  397.51
   5   5 -20  627.26  396.60
  -5   5 -20  207.27  395.65
   5  -5  20  344.90  396.23
  -5   5 -20  495.84  398.76
   5  -5  21   21.75   24.57
   5   5 -21  -13.22   52.20
  -5   5 -21    7.87   24.52
   5   5 -22   58.58   48.67
  -5  -5  22   35.31   51.52
   5   5 -22   13.68   65.61
  -5  -5  23  -24.30   25.09
   5   5 -23    8.64   22.93
  -5   5 -23   -8.47   21.12
  -5   5 -23   39.46   53.38
   5  -5  23  -11.70   23.00
   5   5 -23  -42.37   54.63
  -5   5 -24   68.03   56.18
   5   5 -24   14.56   62.89
  -5  -5  24   12.52   24.59
   5   5 -24   27.29   24.79
  -5   5 -24    8.86   23.22
   5  -5  24  -24.21   24.56
   5  -5  25  -25.00   24.00
   5   5 -25  -14.98   58.04
  -5   5 -25   36.60   28.62
  -5   5 -25   84.29   61.75
  -5  -5  25   12.89   27.26
   5   5 -25   18.72   28.51
   5  -5  26  -38.63   40.14
   5   5 -26   89.67   69.02
  -5  -5  26   39.72   42.30
  -5   5 -26   72.40   64.00
   5   5 -26   87.59   45.01
  -5  -5  27   27.16   22.64
   5   5 -27    9.98   21.66
   5   5 -27   15.33   59.40
  -5   5 -28  -45.89   62.75
  -5  -5  28  -13.91   25.63
   5   5 -28   10.22   25.67
   5   5 -28  -31.40   61.48
  -5  -5  29  -14.23   46.85
   5   5 -29  -32.13   78.95
  -5   5 -29 -156.88   75.60
   5   5 -30  131.22  142.94
   6   0  -2  115.01  102.93
  -6   0   2  105.70  102.83
   6   0  -3   -4.19   11.99
   6   0  -3   -7.63    9.64
  -6   0   3    6.03   20.22
  -6   0  -4    3.25    8.09
   6   0  -4    6.90   10.94
   6   0  -4   17.65   14.10
   6   0  -4    3.59   11.14
  -6   0   4   18.62   22.31
  -6   0   5  -19.08   21.87
   6   0  -5    3.78    9.20
   0  -6   5   -6.70   11.10
   6   0  -5    4.66   11.14
   6   0  -5    2.74   10.23
  -6   0  -5   -2.12    5.85
   6   0  -6  450.19  208.44
  -6   0   6   45.71  208.20
   0   6  -6   -8.22  207.55
   0   6  -6   13.85  207.82
   6   0  -6  513.17  208.44
   0  -6   6    6.99  207.66
   6   0  -6  351.08  208.56
  -6   0  -6  350.69  207.85
   0  -6   7    7.32   17.85
   6   0  -7    5.12   14.23
  -6   0   7   26.85   24.08
   6   0  -7    7.38   14.33
   0   6  -7   -7.25   19.21
   0   6  -7   -4.30   12.82
   6   0  -7   16.44   12.85
   6   0  -8  194.61  118.41
   0   6  -8    7.61  119.25
   6   0  -8  100.63  118.24
   6   0  -8  389.74  119.40
   0  -6   8  175.63  119.88
   0   6  -8    4.51  118.02
  -6   0   8   -6.91  119.42
   0   6  -9    9.48   13.95
   6   0  -9   -4.46   10.67
   0  -6   9   16.04   21.18
   6   0  -9   -5.48   12.08
   0   6  -9   -7.99   27.24
   6   0   9   -4.11   10.02
   6   0 -10   13.80   13.08
   0   6 -10   -5.66    7.76
   0   6 -10  -33.61   40.46
   6   0 -10    5.14   17.67
   6   0 -10  -11.29   13.52
   0   6 -10  -19.54   19.90
   0  -6  10  -33.17   32.98
   0  -6  11   -8.60   29.24
   0   6 -11    5.02   17.27
   6   0 -11   -5.63   16.35
   0   6 -11  -61.80   40.08
   6   0 -11   -4.80   11.98
   0   6 -12  133.94  492.98
   6   0 -12 1877.51  495.26
   6   0 -12  445.47  493.27
   0  -6  12 2204.12  497.65
   0   6 -12  213.23  494.09
   0   6 -13    5.25   17.32
   0  -6  13  -22.89   19.24
   0   6 -13  -19.45   34.99
   6   0 -13   -6.60   18.66
   6   0 -13   -5.11   14.03
   0  -6  13    9.26   29.61
   0  -6  14  407.41  219.78
   0  -6  14  285.08  217.92
   0   6 -14  143.04  217.10
   0   6 -14  224.14  220.26
   0  -6  15   -9.99   34.97
   0   6 -15   -5.65   21.68
   0   6 -15  -31.97   41.92
   0  -6  15  -16.52   25.41
   0  -6  16  156.55   60.70
   0   6 -16   33.28   63.37
   0  -6  16   94.92   53.79
   0   6 -16    5.88   51.60
   0  -6  17  -17.99   20.73
   0   6 -17  -12.25   19.80
   0   6 -18  176.39  152.88
   0   6 -18   84.29  161.81
   0  -6  18  161.04  153.06
   0   6 -19   -7.05   27.15
   0  -6  19  -29.53   26.53
   0   6 -19  -12.51   49.48
   0   6 -20  241.42  285.46
   0  -6  20  386.09  286.07
   0   6 -22   13.56   62.16
   0  -6  22   45.80   44.27
   0   6 -22   40.64   44.79
   0   6 -23  -33.56   25.90
   0   6 -23   42.01   56.47
   0  -6  23   35.46   28.25
   0   6 -24  -26.49   27.83
   0  -6  24  -12.44   25.91
   0   6 -25   45.42   59.67
   0  -6  25   64.01   60.36
   0   6 -25   89.12   78.89
   0  -6  26   39.46   47.68
   0   6 -26  -15.26   70.95
   0   6 -26   57.20   49.06
   0   6 -27   15.66   62.72
   0  -6  27   40.48   32.82
   0   6 -27  -29.33   25.44
   0   6 -28   48.13   79.27
   0  -6  28   27.64   47.21
   0   6 -28   50.09   47.82
   0  -6  29  -28.27   29.01
   0   6 -29  -10.37   27.45
   0   6 -29   16.41   68.15
   0   6 -30  -33.53   64.43
   0   6 -30   21.18   25.29
   0  -6  30  -14.44   22.01
   0   6 -31 -119.72   90.38
   0  -6  31  -29.46   55.90
   6   1   0    6.83    7.30
  -6  -1   0    4.12    7.86
   6   1  -1  301.85  297.03
   6  -1  -1  542.26  297.88
   6   1   1  261.66  297.49
  -6   1   1  262.43  298.23
  -6   1   2  108.30  218.64
  -6  -1   2    2.08  217.61
   6   1  -2  425.24  217.77
   6  -1  -2  292.70  217.70
   6  -1  -2  326.17  218.45
   6   1   2   72.82  217.84
   6   1  -2   -2.06  217.61
   6   1  -2  516.78  218.74
  -6  -1   3    7.42   13.39
   6   1  -3   16.39   16.63
   6  -1  -3   14.67   14.78
   6   1  -3    5.36   11.05
  -6  -1   3   19.62   11.59
   6  -1  -3    5.04   11.36
   6   1   3   20.30   13.90
   6   1  -3   -2.54   14.32
  -6  -1   4  169.37  154.68
  -6   1  -4  144.26  154.53
   6   1  -4  112.86  154.77
   6   1  -4  303.29  154.49
  -6  -1   4  313.96  155.72
   6   1  -4  246.03  154.96
  -6  -1   4  227.73  154.54
   6  -1  -4   69.70  154.28
   6   1   4    4.11  154.31
   6   1  -4  212.82  155.11
   6  -1  -4  128.25  154.72
   6  -1   4  117.40  154.62
   6  -1  -4  139.36  154.97
  -6   1   4   12.71  155.47
   6   1  -5  540.86  349.34
  -6  -1   5  413.51  349.38
  -6   1  -5  313.02  349.59
   6  -1  -5  295.00  349.47
   6  -1  -5  224.83  349.22
  -6   1   5   13.08  349.39
  -6  -1   5  774.28  350.34
   6   1  -5  421.72  349.60
  -6  -1   5  413.22  350.30
  -6   1  -5  513.67  349.47
   6  -1  -5  109.73  349.33
   6  -1   5  316.64  349.36
   6   1  -5  425.96  349.56
   6   1  -5  512.62  349.83
  -1   6  -6   13.64  124.08
   6   1   6   -4.23  123.43
  -1   6  -6    8.10  123.50
   6  -1  -6   51.64  124.01
  -6   1  -6  306.07  124.29
   6   1  -6  218.31  124.24
   1   6  -6   -4.17  123.49
  -6  -1   6  298.47  124.18
   6   1  -6  209.98  124.51
   6   1  -6  293.15  123.87
  -6  -1   6  203.82  125.94
   1  -6   6    6.89  123.85
   6  -1  -6  190.04  124.08
  -6   1  -6  114.54  124.11
   6  -1   6   54.50  123.45
   6   1  -6  267.12  124.70
   6   1  -7  375.68  181.92
  -6   1  -7  756.56  182.03
  -6  -1   7  414.14  181.56
   1   6  -7    4.36  180.65
   6  -1   7   18.21  180.47
   6   1  -7  727.17  181.72
  -6   1  -7  101.30  180.87
  -1   6  -7    7.15  181.17
  -6  -1   7  301.81  182.74
  -1   6  -7   -4.24  180.69
   6  -1  -7  242.41  181.16
   1  -6   7   64.98  181.28
   6   1  -7  512.86  182.24
   6  -1  -7   90.91  180.76
  -6  -1   8    6.72  149.22
  -1   6  -8   -7.51  149.05
   6  -1  -8   77.34  148.09
   1  -6   8  233.73  149.59
   1   6  -8    4.57  148.01
  -6  -1   8  206.24  148.39
   6  -1  -8   22.08  147.99
   6   1  -8  408.42  148.60
  -1   6  -8    8.91  148.07
  -6   1  -8  480.62  149.22
   6   1  -8  334.37  148.76
   6   1  -8  168.24  148.89
   6   1  -9   94.93   72.92
   1  -6   9  301.24   77.51
   1   6  -9   -9.60   72.51
   6   1  -9  312.07   74.08
   6  -1  -9   65.77   72.13
  -6  -1   9  -13.80   74.94
  -6   1  -9  547.44   75.38
   1   6  -9    1.88   71.35
  -1   6  -9    7.90   75.31
  -1   6  -9  -14.05   72.41
   1  -6  10  524.88  115.95
   1   6 -10   -9.89  110.09
  -6  -1  10  -49.64  112.74
   1   6 -10    1.71  108.72
  -1   6 -10  -33.23  115.32
  -6  -1  10  180.71  109.87
  -1   6 -10   14.50  109.86
   6   1 -10  868.00  114.69
   6   1 -10   87.08  109.76
   6   1 -10  822.69  112.58
   1  -6  11  385.16  143.58
  -1   6 -11   -4.97  141.80
   6   1 -11  277.21  142.24
   6   1 -11  320.91  142.35
   1  -6  11  323.63  145.12
  -1   6 -11  -26.21  145.51
   6   1 -11   11.24  141.43
   6   1 -11  309.61  143.79
  -6  -1  11   47.79  141.24
  -6   1 -11  358.37  143.12
   1   6 -11   -5.08  141.69
   1   6 -12   36.43  176.39
   1  -6  12  545.91  180.15
  -1   6 -12   64.28  178.21
  -6  -1  12   64.70  175.95
  -6   1 -12  399.02  177.68
  -1   6 -12   15.31  176.33
   1  -6  12  439.65  178.12
  -1  -6  12  389.31  177.81
   6   1 -12  415.46  177.81
   6   1 -12  276.07  176.70
   6   1 -12  261.87  176.75
   6   1 -12   -5.78  175.90
   6   1 -13  601.80  333.36
   1   6 -13  222.71  332.95
   6   1 -13  732.99  333.60
  -1   6 -13  173.51  334.69
  -1   6 -13  213.48  332.98
   1  -6  13  847.09  334.76
   6   1 -13  977.09  335.44
   6  -1  13    4.08  332.38
  -1  -6  13  716.04  334.39
  -6  -1  13   48.76  332.51
  -6   1 -13  801.33  334.61
   1  -6  13 1037.45  336.32
  -1   6 -14  117.81  198.10
   1  -6  14  463.64  199.85
   1   6 -14  116.55  198.26
   1  -6  14  452.33  201.51
   6   1 -14  259.86  198.25
  -1  -6  14  279.50  199.07
  -6  -1  14   14.91  197.38
  -1   6 -14  101.06  200.79
   6   1 -14  331.55  199.40
  -6   1 -14  383.48  199.35
   6   1 -15  180.20  140.03
   1  -6  15  317.49  145.03
   1  -6  15  180.50  141.04
  -1   6 -15  158.67  145.13
  -1  -6  15  149.89  141.32
  -6   1 -15  206.02  141.55
   6   1 -15  133.46  142.19
   1   6 -15   39.84  140.21
  -1   6 -15  123.29  140.47
  -1  -6  16  443.27  277.71
   1   6 -16  195.37  276.52
   1  -6  16  368.62  277.20
   1  -6  16  705.01  280.21
   6   1 -16  333.16  277.84
   6   1 -16  196.30  276.27
  -1   6 -16  286.43  279.22
  -1   6 -16  285.95  276.62
   6   1 -17   44.01   32.98
  -1   6 -17   37.43   25.94
  -1   6 -17   11.49   47.21
   6   1 -17   16.40   20.72
   1  -6  17   26.83   25.36
  -1  -6  17  -27.17   28.76
   1   6 -17   18.50   23.97
  -1   6 -18   95.77  226.77
   1   6 -18  144.65  219.42
   6   1 -18  342.87  221.40
  -1  -6  18  505.16  221.62
  -1   6 -18  201.35  219.32
   1  -6  18  207.29  219.66
  -1  -6  19  395.99  297.16
   1   6 -19  266.31  296.33
   1  -6  19  460.39  297.31
  -1   6 -19  273.84  298.96
  -1   6 -19  231.53  296.24
  -1  -6  20  262.24  195.00
  -1   6 -20  123.76  194.08
   1  -6  20  228.55  194.77
   1   6 -20  228.07  194.13
  -1  -6  22  103.50  100.38
   1  -6  22  114.07  100.86
   1   6 -22  187.88  100.91
  -1   6 -22   67.53  109.25
  -1   6 -22   32.38   99.38
  -1   6 -23   34.14   31.37
  -1  -6  23  -11.87   34.39
   1   6 -23   16.86   28.31
   1  -6  23   23.56   31.99
  -1   6 -23   41.85   59.56
   1  -6  24   24.80   64.25
  -1  -6  24   61.12   64.85
   1   6 -24   79.77   65.24
  -1   6 -24  115.06   82.30
  -1   6 -24   70.39   65.66
   1   6 -25    9.12   27.34
  -1   6 -25  -44.42   59.50
  -1   6 -25   45.28   30.19
  -1  -6  25  -12.84   25.93
   1  -6  25   12.77   25.13
   1  -6  26   52.48   59.24
   1   6 -26  105.24   61.92
  -1  -6  26   26.38   62.31
  -1   6 -26   28.52   60.90
  -1   6 -26   91.33   83.81
   1   6 -27   94.26   82.18
  -1   6 -27   93.71   79.62
   1  -6  27  -13.46   53.10
  -1   6 -27  107.29   54.15
  -1  -6  27   40.59   55.99
   1   6 -27   29.43   54.04
   1   6 -28   30.14   39.95
   1   6 -28  160.89   76.35
  -1  -6  28  -13.85   41.35
  -1   6 -28   32.01   82.50
   1  -6  28   13.79   42.24
  -1   6 -28   70.80   43.91
  -1   6 -29   10.35   26.42
   1   6 -29   10.40   25.22
   1  -6  29   14.11   27.87
  -1  -6  29   14.17   27.98
  -1   6 -29   32.75   69.10
   1   6 -30  -16.80   65.92
  -1   6 -30   10.57   32.73
  -1  -6  30   14.47   28.69
  -1   6 -30  -16.73   76.09
   1  -6  30  -14.42   29.38
   1   6 -30   74.32   36.60
  -1  -6  31  -29.51   47.84
  -1   6 -31  -34.15   81.72
   1  -6  31  -29.43   49.18
   1   6 -31  -85.71   83.48
  -1  -6  32   30.06   38.46
   1   6 -32   34.92   73.24
  -6   2   0   81.85  186.59
   6   2   0   95.47  185.77
   6  -2   0  423.47  186.77
  -6  -2   0  352.85  187.45
  -6   2   1  168.41  211.98
   6   2   1   54.16  210.77
  -6   2   2    6.20   69.19
   6  -2  -2  112.42   68.03
  -6  -2  -2   66.49   68.30
   6   2  -2  139.36   68.48
   6   2  -2   10.23   67.07
   6   2  -2  117.75   68.14
   6   2   2   12.58   67.14
  -6   2  -2   89.80   67.04
  -6  -2   2  239.24   70.42
   6  -2  -2   37.75   68.03
   6  -2   3  738.39  205.78
   6   2  -3  322.11  205.56
   6  -2  -3  293.36  206.15
  -6  -2   3   -3.27  205.33
   6   2  -3  566.57  206.63
   6   2  -3    6.48  205.37
   6  -2  -3  423.83  206.16
  -6  -2  -3  134.52  205.77
   6  -2   3    3.86  205.21
  -6   2  -3   -1.92  205.24
  -6   2   3   19.17  205.95
  -6  -2   4  594.69  299.99
   6   2  -4  538.56  300.39
   6  -2   4  667.52  299.74
  -6  -2   4    7.24  299.45
   6   2   4    4.41  299.38
  -6   2  -4  506.96  299.53
   6   2  -4    3.67  299.53
   6   2  -4  625.84  299.80
  -6  -2   4 1040.80  301.64
   6  -2   4   37.83  299.39
  -6   2  -4    7.20  299.42
   6  -2  -4  175.40  299.65
  -6   2  -4  675.49  300.49
   6   2  -5  669.18  434.40
  -6   2  -5  507.27  434.18
   6   2  -5  850.84  434.77
  -6  -2   5 1156.59  435.82
  -6  -2   5  315.44  434.37
   6  -2  -5  104.68  434.16
   6  -2   5  590.39  434.44
  -6   2  -5  641.85  434.79
   6  -2  -5  151.01  434.22
   6   2  -5   58.00  434.22
   6  -2   5  730.23  434.54
   6   2  -5  631.24  434.70
  -6   2  -5  184.85  434.24
  -2   6  -6   13.45  548.59
  -2  -6   6    7.21  548.56
   6  -2   6 1197.83  549.17
  -6   2  -6  807.23  549.28
  -6  -2   6 1197.89  549.52
  -6  -2   6 2483.44  551.05
   6  -2   6 1060.68  549.19
   2  -6   6    6.80  548.57
   6   2  -6 1192.69  549.56
  -6   2  -6  927.05  549.23
   6   2  -6 1687.38  549.27
   2   6  -6    4.23  548.52
  -2   6  -6   -7.99  548.51
   6   2  -6  604.35  549.25
   2   6  -6  -14.28  548.69
   6   2  -6 1497.52  549.64
  -6  -2   6 1327.94  549.42
   6   2  -7 1082.00  361.08
   6  -2   7 1089.19  360.59
   2   6  -7    7.46  359.92
   2  -6   7  220.99  360.20
  -2  -6   7  399.29  360.66
  -2   6  -7   -7.05  359.87
  -6  -2   7 2348.92  363.08
  -6   2  -7 1325.16  361.32
   2   6  -7   -4.43  359.64
   6   2  -7  655.41  361.14
  -2   6  -7   -4.19  359.65
  -6   2  -7  540.46  360.38
  -2   6  -8   -4.40  174.87
   6  -2   8  403.68  175.55
  -2   6  -8  -14.83  175.66
  -6   2  -8  815.43  177.36
   6   2  -8  690.52  177.01
   2   6  -8   -2.57  174.52
   6  -2   8   96.88  174.77
   2   6  -8  -15.64  175.95
   2   6  -8   -4.64  174.91
  -2  -6   8  362.94  177.17
  -6   2  -8  360.01  175.20
  -6   2  -8   50.08  174.89
  -6  -2   8 1182.05  178.88
  -6  -2   8  632.73  178.71
   2  -6   8  449.42  177.37
   2   6  -9   -2.46  139.69
   6  -2   9  322.55  140.80
  -2   6  -9    4.63  140.26
   2   6  -9  -19.45  140.17
  -6   2  -9   -4.60  139.76
  -6   2  -9  469.63  140.73
   2   6  -9   24.61  142.03
  -6  -2   9  345.67  143.42
   6  -2   9    6.92  139.56
  -2   6  -9    7.81  141.51
   6   2  -9  358.65  141.71
   2  -6   9  768.16  146.13
   2  -6  10   64.93   58.35
   6   2 -10   66.93   52.86
  -6   2 -10   13.87   52.71
   2   6 -10   -8.61   63.06
  -2  -6  10  118.89   58.49
   6   2 -10  112.38   73.08
  -6  -2  10  191.65   56.72
  -2   6 -10   82.20   63.89
   6   2 -10  105.28   55.46
   2   6 -10    5.01   53.62
  -2   6 -10  -14.35   53.56
   2   6 -10   -4.69   51.96
  -6  -2  10   48.54   67.85
   6   2 -10  215.71   55.77
   2   6 -11   41.09  376.95
   2  -6  11 1819.40  380.39
  -2  -6  11 2894.21  384.17
   6   2 -11 1988.13  380.95
  -6  -2  11   28.41  377.62
  -2   6 -11   54.15  376.92
   2  -6  11 2505.60  383.45
   2   6 -11   57.99  376.71
  -6   2 -11 2343.19  380.70
   2   6 -11   27.10  378.15
   6   2 -11 2187.08  379.23
   6  -2  11  282.18  377.11
  -2   6 -11   43.26  378.27
   6   2 -11  309.82  377.32
   6   2 -12    5.60  209.18
   2  -6  12  471.65  211.10
   2   6 -12    5.26  209.40
  -2   6 -12   50.58  209.58
  -2  -6  12  452.81  211.21
  -2  -6  12  682.46  213.28
   6   2 -12  499.44  210.32
   6   2 -12  468.06  210.12
  -6  -2  12  247.32  210.01
   2  -6  12  674.28  212.87
  -2   6 -12   91.01  211.60
   2   6 -12    9.47  211.47
  -6   2 -12  112.85  209.24
   6   2 -12  553.56  212.09
   6  -2  12   41.53  209.09
  -6   2 -12  509.92  211.35
  -6   2 -13  879.07  342.43
   2   6 -13  178.55  342.30
   2  -6  13  669.48  341.96
  -2  -6  13  536.49  341.88
   2   6 -13  171.42  340.74
  -2   6 -13  162.54  341.97
   6  -2  13   32.18  340.16
  -2  -6  13  944.03  343.90
   6   2 -13  835.48  342.67
   6   2 -13  -11.54  340.27
  -2   6 -13  216.93  340.77
  -6  -2  13  444.06  341.29
   6   2 -13  978.48  341.78
   2  -6  13 1074.80  344.42
   6   2 -14  539.99  273.15
  -6  -2  14  198.62  272.84
   2  -6  14  582.85  275.39
  -2  -6  14  354.60  273.72
  -2  -6  14  602.41  276.22
   2   6 -14  166.04  274.73
   2   6 -14  201.70  272.98
   6   2 -14  444.22  273.30
  -6   2 -14  428.27  274.15
  -2   6 -14  132.89  272.72
   6   2 -14  449.63  274.60
   2  -6  14  577.44  274.27
  -2   6 -14   50.15  274.43
   6   2 -14    5.93  272.16
   6   2 -15 1061.51  694.72
   2  -6  15  970.14  695.10
   2  -6  15 1517.93  696.58
   2   6 -15  493.86  694.30
   6   2 -15 1321.97  695.85
  -2   6 -15  483.30  695.48
  -6  -2  15  210.97  694.00
   2   6 -15  412.01  695.46
  -6   2 -15 1211.92  695.48
  -2  -6  15 1341.22  696.65
   6   2 -15  983.22  694.44
  -2   6 -15  467.56  694.28
   2   6 -16  -33.93   46.58
  -6  -2  16    8.58   20.50
  -2  -6  16   26.28   25.32
   2  -6  16   61.84   34.03
  -2  -6  16  -10.60   34.51
   6   2 -16   24.96   19.83
   6   2 -16   45.13   33.68
   6   2 -16    4.84   18.55
   2   6 -16   -5.97   22.41
   2  -6  16    8.52   21.86
  -2   6 -16   34.80   22.63
  -6   2 -16   24.09   29.65
  -2   6 -16  -10.95   43.20
  -2   6 -17  446.61  644.32
  -6  -2  17  108.61  643.76
   2   6 -17  627.88  644.50
   6   2 -17  818.88  644.59
  -6   2 -17 1176.86  645.63
   6   2 -17 1065.87  645.80
   2   6 -17  610.45  646.34
   6   2 -17  835.87  644.34
  -2  -6  17 1030.94  645.41
  -2   6 -17  457.15  646.13
  -2  -6  17 1655.84  647.52
   2   6 -18  109.87  176.64
   6   2 -18  286.86  171.95
  -2   6 -18   35.73  175.99
   2   6 -18  192.08  172.08
  -6   2 -18  227.95  173.56
  -2  -6  18  220.74  173.11
   6   2 -18  340.10  175.67
   2  -6  18  243.82  172.65
  -2   6 -18  148.64  171.81
  -6  -2  18    9.51  170.78
   2  -6  19  996.67  546.94
   2   6 -19  659.08  548.12
  -2   6 -19  530.72  545.78
  -6  -2  19    9.96  544.89
   2   6 -19  715.02  545.93
  -2  -6  19  777.04  546.71
  -2   6 -19  569.84  547.87
   6   2 -19  881.69  547.68
  -6   2 -19  859.33  547.14
   2   6 -20  355.35  344.47
   2  -6  20  341.52  344.83
  -2   6 -20  333.48  344.37
   6   2 -20  444.79  346.18
  -2   6 -20  238.45  347.26
  -6   2 -20  300.91  345.26
  -2  -6  20  506.45  345.14
   2   6 -21  610.13  525.12
   6   2 -21  518.78  523.47
   2   6 -22   41.07   69.19
   2   6 -22   82.22   84.54
   2  -6  22   90.99   70.67
  -2   6 -22   53.85   83.24
  -2   6 -22   72.62   69.82
  -2  -6  22   80.90   70.46
   2   6 -23  101.65  146.65
  -2  -6  23  238.44  147.94
  -2   6 -23   85.09  146.73
  -2   6 -23  139.07  153.55
   2   6 -23  113.10  155.92
   2  -6  23  246.69  148.01
  -2   6 -24   57.38   55.96
  -2  -6  24  -12.28   26.55
  -2   6 -24   -8.77   23.95
   2   6 -24    8.91   26.29
   2  -6  24  -12.37   24.88
   2   6 -24  -14.56   52.72
  -2   6 -25  184.55  124.61
  -2   6 -25  177.25  136.39
   2   6 -25  137.37  123.18
  -2  -6  25   25.79  123.08
   2   6 -25  209.68  135.78
   2  -6  25  101.93  123.71
  -2  -6  26  -26.48   33.27
   2   6 -26   19.21   36.83
   2   6 -26   61.52   61.53
  -2   6 -26    9.49   34.10
   2  -6  26   52.40   34.13
  -2   6 -26  121.50   63.21
   2  -6  27   26.88   98.77
   2   6 -27  141.91  116.89
   2   6 -27  128.04  101.20
  -2   6 -27   77.94  118.18
  -2   6 -27  185.01  100.76
  -2  -6  27   40.74   99.24
   2   6 -28  -30.25   30.80
   2   6 -28  -64.59   66.46
  -2   6 -28  -10.10   26.33
  -2  -6  28  -27.80   27.61
  -2   6 -28   31.96   70.53
   2  -6  28   41.34   26.65
  -2   6 -29  175.72   91.88
  -2  -6  29   42.64   88.01
   2   6 -29  125.19   90.38
   2   6 -29   66.05  105.93
  -2   6 -29  196.28  109.50
   2  -6  29   14.10   86.26
  -2   6 -30   66.86   73.51
   2   6 -30   31.94   27.44
  -2  -6  30  -14.51   27.87
   2  -6  30  -28.82   26.91
  -2  -6  31  -14.79   25.10
   2   6 -31   17.18   65.69
   2  -6  31  -14.70   27.58
   2   6 -32  -17.50   74.74
  -2  -6  32  -30.12   37.31
   6   3   0   -4.38  100.24
  -6   3   0  -18.18  101.61
  -6  -3   0  479.83  103.32
   6  -3   0  347.26  102.04
  -6  -3  -1   75.97   43.63
   6   3  -1   21.77   41.42
  -6   3  -1    5.87   44.23
   6  -3  -1   38.42   41.84
   6   3  -1   -4.45   41.76
   6  -3   1   49.11   42.37
   6  -3  -1   43.55   42.10
   6   3  -2  164.84  106.67
  -6   3  -2    2.96  105.88
   6   3  -2  114.85  106.73
   6  -3  -2  483.10  108.15
   6  -3  -2  357.59  107.83
  -6   3  -3   11.44   10.21
   6   3  -3    4.33   12.35
  -6  -3   3   27.90   18.12
   6  -3  -3   10.28   13.30
   6   3  -3   17.57   13.70
   6   3  -3   -2.42   10.65
   6  -3   4   -3.13  126.35
  -6   3  -4  274.94  126.72
  -6  -3   4   13.40  126.58
   6   3  -4   -8.85  126.60
   6   3  -4   57.69  126.53
   6   3  -4  373.61  127.72
   6   3  -4  269.04  127.63
  -6   3  -4    6.21  126.45
   6  -3   5 1167.02  396.06
  -6  -3   5    4.84  395.26
  -6   3  -5  416.89  395.80
   6  -3   5 1673.43  396.48
  -6   3  -5    3.54  395.25
   6  -3   5   28.38  395.23
   6  -3   6  871.84  333.11
  -3   6  -6   13.27  332.47
   3   6  -6   17.21  332.35
  -3   6  -6    3.94  332.28
  -6   3  -6    4.02  332.51
  -3  -6   6  -43.93  332.47
   3   6  -6   21.77  332.57
   6   3  -6  661.66  332.87
   3  -6   6   -6.71  332.34
   6  -3   6  398.94  332.84
  -6   3  -6  497.51  333.03
   6   3  -6  875.99  333.54
   6  -3   6 1087.05  333.27
  -6  -3   6  707.45  333.23
   6   3  -6  684.36  333.38
  -6   3  -7  812.07  410.24
  -6  -3   7 1643.52  411.76
   3   6  -7   -8.99  409.20
   3  -6   7   91.50  409.53
   6   3  -7  666.26  410.09
  -3   6  -7   -8.27  409.25
  -3  -6   7  191.24  409.71
   3   6  -7   22.74  409.71
   3   6  -7   -6.50  409.12
  -3   6  -7   -6.96  409.38
   6   3  -7 1189.34  410.38
   6  -3   7 1208.51  410.05
   6  -3   7 1215.28  410.32
   6  -3   7 1370.25  410.41
   6  -3   7 1362.16  410.86
  -6   3  -7  307.87  410.01
  -6   3  -7 1071.60  410.86
  -3   6  -8   -8.70  635.26
  -6   3  -8 1376.99  635.88
   6  -3   8 2445.96  636.62
   3   6  -8   -9.41  635.28
   6  -3   8 1363.09  636.18
   3   6  -8    7.94  635.59
  -3  -6   8  872.56  636.65
  -6  -3   8 1670.58  637.02
   6  -3   8 1265.40  635.88
  -6   3  -8 1165.57  636.48
   6   3  -8 2113.42  636.57
  -6   3  -8  609.86  635.73
   6   3  -8  629.92  636.25
   3  -6   8  725.54  636.33
  -3   6  -8   21.98  635.48
  -6  -3   9  677.23  255.40
   3   6  -9   54.22  248.96
  -3   6  -9   23.16  250.38
   3  -6   9  313.87  248.44
   3   6  -9   83.19  251.29
  -6  -3   9 1155.30  253.65
   3   6  -9   39.91  248.47
   6   3  -9 1422.27  252.02
  -3   6  -9   13.48  248.67
   6  -3   9  148.27  248.86
  -3  -6   9  567.31  251.54
  -6  -3   9  835.50  251.07
   3  -6   9  736.69  252.75
   6   3 -10 2749.43  565.18
   6   3 -10 2484.51  565.04
   3  -6  10 2242.29  566.76
  -6   3 -10   26.06  563.19
   3   6 -10    9.02  563.15
   3   6 -10   10.14  563.25
  -6  -3  10 1112.78  565.07
  -6  -3  10 3224.34  566.81
   3  -6  10 1992.28  563.50
   6   3 -10  828.41  563.99
  -3   6 -10    4.63  563.25
  -6   3 -10 1720.45  565.39
  -3   6 -10  -16.27  563.72
  -6  -3  10 2538.45  565.91
   6   3 -10 1899.61  566.20
   6  -3  10 2897.41  564.94
   3   6 -10   -8.72  564.03
   6  -3  10   16.34  563.11
  -6   3 -11   -8.68   50.40
  -3   6 -11   -8.57   56.88
   6  -3  11  100.64   51.36
  -6   3 -11   25.49   55.01
   6  -3  11  116.79   51.92
   3   6 -11    9.14   59.18
  -3   6 -11  -14.30   51.68
   3   6 -11   -5.20   51.69
  -6   3 -11   78.80   51.54
   3  -6  11   47.28   52.71
  -6  -3  11  130.99   53.97
   3   6 -11   26.20   50.65
  -6  -3  11   85.58   52.23
  -3  -6  11   97.95   56.54
   6   3 -11    5.15   51.70
   6   3 -11   45.56   56.81
   6   3 -11   92.97   51.72
   3  -6  11   50.16   54.96
   6   3 -11   99.23   51.64
  -6  -3  11  -21.01   57.16
   3  -6  12 1276.17  597.57
   6  -3  12 1066.30  597.08
   3   6 -12  175.62  596.04
  -6  -3  12   35.76  596.26
  -6  -3  12 1903.29  598.11
   6   3 -12 1798.01  597.42
   6   3 -12 1237.42  598.19
   6   3 -12  124.99  595.98
  -3   6 -12  135.44  596.05
  -3  -6  12 1373.73  597.78
  -6   3 -12 1490.29  597.92
  -3  -6  12 1818.98  599.27
  -3   6 -12   99.28  596.77
  -6   3 -12  418.95  596.22
  -6  -3  12 2198.20  598.02
   3   6 -12   76.65  596.80
   6  -3  13  232.77  272.64
   6   3 -13  354.98  272.90
  -6  -3  13   21.94  273.09
  -6   3 -13  298.18  272.61
   6   3 -13  488.39  272.73
   3   6 -13  146.21  272.48
  -3  -6  13  725.17  275.65
   3  -6  13  332.32  273.09
  -3   6 -13  143.54  272.43
  -3  -6  13  424.30  273.63
  -6  -3  13  431.06  273.23
  -6   3 -13  310.05  273.79
   6   3 -13   44.81  272.22
  -6  -3  13  476.61  273.50
   3  -6  13  669.03  275.28
  -3   6 -13   75.91  273.91
   3   6 -13   60.17  274.09
   6   3 -13  335.90  274.55
  -6  -3  14  773.66  520.79
   6   3 -14 1101.51  520.84
  -3  -6  14 1001.11  521.40
   6   3 -14  953.73  522.58
   3   6 -14  333.96  519.90
  -3   6 -14  216.47  519.70
   3   6 -14  293.57  521.18
  -3   6 -14  408.45  521.15
   6   3 -14   11.51  519.48
  -6  -3  14  943.93  520.62
   6   3 -14  978.17  520.26
   3  -6  14 1338.42  522.53
   6  -3  14  363.98  519.97
   3  -6  14  695.98  520.68
  -6   3 -14  603.83  521.23
  -6   3 -14  557.37  519.98
  -3  -6  14 1077.31  522.45
   3  -6  15  225.37   96.29
   6   3 -15   91.09   95.04
   6   3 -15  202.22   91.08
  -6  -3  15   65.47   90.53
   6  -3  15   22.87   89.20
  -3  -6  15  322.84   99.85
   6   3 -15  -11.84   89.37
  -3   6 -15   52.21   96.75
  -6   3 -15   60.63   89.71
   6   3 -15  148.16   89.67
  -3   6 -15   44.11   90.14
  -3  -6  15  194.94   92.20
   3  -6  15  145.90   91.33
  -6   3 -15   82.69   93.25
   3   6 -15   76.63   97.43
   3   6 -15   57.98   89.99
  -3  -6  16  892.43  546.11
  -3   6 -16  502.60  546.61
   3   6 -16  457.77  545.08
  -6  -3  16  590.41  545.50
  -6   3 -16  474.59  544.80
  -6   3 -16  746.33  546.19
  -3   6 -16  392.19  544.84
   3   6 -16  319.58  546.78
   6   3 -16  844.59  544.98
  -3  -6  16 1015.80  547.71
   6   3 -16  845.29  546.78
   3  -6  16  924.31  545.93
   6  -3  16   81.08  544.45
   6   3 -16  620.75  545.18
   3  -6  16 1015.03  547.47
   3   6 -17  142.07  103.74
  -3  -6  17  156.35   91.68
   3   6 -17   43.88   90.35
   6   3 -17   92.25   89.27
  -6   3 -17   50.27   88.46
   6   3 -17   90.89   95.59
  -6  -3  17   92.62   89.65
  -3  -6  17  189.21   99.47
  -3   6 -17  240.70   94.05
   6  -3  17   -8.59   88.32
  -6   3 -17   80.86   93.59
   3  -6  17  179.19   91.63
   3  -6  17   32.13   99.45
  -6  -3  18  398.06  739.14
  -6   3 -18 1270.85  740.78
   3  -6  18 1214.27  740.29
   3   6 -18  774.43  739.49
  -3   6 -18  775.48  739.37
   3   6 -18  553.80  740.81
  -3   6 -18  960.40  741.36
  -3  -6  18 1189.45  740.50
   6  -3  18   54.38  738.65
   6   3 -18 1368.90  739.97
   6   3 -18  952.82  740.93
  -3  -6  18 1839.24  742.47
  -3   6 -19  257.36  281.78
   6   3 -19  339.30  282.11
  -6  -3  19  111.66  281.37
   3   6 -19  344.78  285.87
   3   6 -19  353.26  281.95
   6   3 -19  531.30  285.61
  -3   6 -19  419.57  285.12
  -3  -6  19  561.90  283.45
  -6   3 -19  468.96  284.27
   3  -6  19  734.99  284.05
   6  -3  19   -9.53  280.91
  -3   6 -20  512.79  492.20
   6   3 -20  817.44  490.50
   3  -6  20  773.76  491.05
   6   3 -20  808.00  492.61
  -6   3 -20  910.24  492.00
  -3   6 -20  307.44  489.83
  -6  -3  20  169.34  489.50
   3   6 -21  246.34  169.12
  -6  -3  21   11.01  160.36
   6   3 -21  267.26  161.72
  -6   3 -21  295.45  165.93
   3   6 -22  256.22  165.67
  -3   6 -22  174.52  172.64
  -3  -6  22   58.13  166.62
   6   3 -22  199.49  169.47
   3   6 -22  137.89  171.82
  -3  -6  23   59.95   28.64
   3   6 -23  -71.10   63.68
  -3   6 -23   -8.49   24.06
  -6  -3  23  -11.84   20.37
  -3   6 -23   27.75   52.96
   3  -6  23  -11.97   28.07
   3   6 -23    8.52   23.51
   6   3 -23  -51.66   50.36
   3  -6  24   98.83  162.73
  -3  -6  24  148.09  163.41
   3   6 -24  161.06  170.34
  -3   6 -24   70.06  162.29
   6   3 -24  173.56  168.07
   3   6 -24  367.17  163.70
  -3   6 -24  157.45  169.64
   6   3 -25  -13.77   49.85
   3  -6  25   12.72   27.45
   3   6 -25  -27.61   26.77
  -3  -6  25  -12.96   25.29
   3   6 -25   75.26   61.09
  -3   6 -25    9.21   29.04
  -3   6 -25   14.74   60.98
   3   6 -26   92.72  179.09
   3  -6  26  117.75  171.00
   3   6 -26  164.08  171.55
  -3  -6  26  146.29  171.42
  -3   6 -26  454.90  182.18
  -3   6 -26  217.83  171.42
  -3  -6  27  -13.63   26.23
  -3   6 -27  108.99   59.60
  -3   6 -27   -9.84   26.00
   3   6 -27  -15.84   66.47
   3  -6  27  -13.44   25.12
   3   6 -27   29.68   26.90
  -3   6 -28  239.48  105.19
   3   6 -28   64.86  104.33
   3  -6  28   41.32   84.04
   3   6 -28  172.12   85.84
  -3  -6  28   41.86   84.42
  -3   6 -28   50.45   83.51
   3  -6  29   14.10   24.17
  -3  -6  29   14.26   26.11
  -3   6 -29   16.34   67.74
   3   6 -29   41.89   26.57
   3   6 -29  -49.72   67.85
  -3   6 -29  -20.66   26.67
  -3   6 -30  -16.70   97.92
   3  -6  30 -172.90   66.28
  -3  -6  30  -14.55   61.60
   3   6 -30  -21.38   62.70
   3   6 -30   16.92   87.43
   3   6 -31   76.27   51.36
   3   6 -31  120.73   85.58
  -3   6 -31   51.15   78.43
  -3  -6  31  -14.83   47.05
   3   6 -32  -52.68   74.76
  -3  -6  32   60.40   42.30
  -6  -4   1   97.51   52.73
   6  -4   1   28.27   51.69
  -6  -4   2   36.19   21.96
   6  -4   2    9.10   20.55
  -6   4  -3    2.19   26.82
   6   4  -3    4.55   27.27
   6   4  -4   -3.12   10.62
  -6   4  -4   -4.70    9.36
   6   4  -4   -4.53   10.21
   6  -4   5   -4.34  106.76
   6   4  -5   32.14  107.17
   6   4  -5   49.83  106.86
  -6  -4   5  519.91  110.77
  -6   4  -5   -4.30  106.84
   6  -4   5  561.50  108.22
  -6   4  -5   -2.51  106.75
   6   4  -6  249.55  153.36
   6   4  -6  175.03  153.35
  -6   4  -6  201.14  152.94
  -6  -4   6   42.30  153.43
   4   6  -6  -17.50  152.89
   4  -6   6   -6.62  152.77
  -4   6  -6   -7.77  152.80
   6   4  -6   11.99  153.61
   6  -4   6   23.75  153.04
   4   6  -6   -7.38  153.22
  -4  -6   6   -7.44  152.86
  -6   4  -6    9.40  152.98
   6  -4   6  668.35  154.59
   4   6  -7   18.27  190.38
   4  -6   7    6.95  190.56
   6   4  -7  116.72  190.50
  -4  -6   7  124.34  191.15
   6   4  -7   12.83  191.54
  -6   4  -7  162.70  190.75
  -6  -4   7  802.27  193.14
  -6   4  -7   -5.15  191.08
   6  -4   7  213.52  191.43
  -6  -4   7  269.95  191.82
   4   6  -7   -7.70  191.13
   6  -4   7  749.29  191.39
   6   4  -7  293.92  190.99
  -4   6  -7  -13.75  190.71
   6   4  -7  274.25  191.04
  -6   4  -7   10.09  191.33
  -6   4  -7  262.08  190.57
  -4   6  -7    8.16  190.31
   6  -4   7  464.43  191.35
   4   6  -8    4.78  416.83
  -6  -4   8 1987.91  420.89
   4   6  -8  314.32  419.03
  -6  -4   8 1046.92  418.99
   6  -4   8 1120.79  417.87
   4  -6   8  365.86  418.37
  -4  -6   8  349.46  417.84
   6   4  -8  507.68  417.72
  -4   6  -8   25.79  416.91
   6   4  -8  499.23  417.48
   6   4  -8  842.88  418.07
  -4   6  -8  108.62  418.57
  -4   6  -9   -8.89  393.38
   4  -6   9  491.01  394.66
   4  -6   9  887.84  393.58
   6   4  -9  109.89  394.24
  -6  -4   9  890.94  395.36
   4   6  -9    5.00  393.42
  -6   4  -9   79.67  394.14
  -6  -4   9  926.09  394.80
  -4  -6   9  905.50  395.86
  -4   6  -9    7.64  393.85
   6  -4   9  828.70  394.06
   4   6  -9  -25.32  394.13
  -6   4  -9   73.57  393.47
   6   4  -9  812.35  394.21
  -6   4  -9  483.05  394.14
   6   4  -9  434.64  393.88
   6  -4  10    6.14   19.31
   6   4 -10   24.83   22.23
   4   6 -10   25.70   24.41
  -4   6 -10  -22.93   22.34
   6  -4  10   56.16   28.03
  -6  -4  10   18.17   23.93
  -6  -4  10   35.27   26.25
  -6  -4  10   74.25   30.37
   6  -4  10   41.37   21.67
   6   4 -10   23.43   35.99
  -4  -6  10   -4.75   19.47
  -4   6 -10   -8.06   31.22
  -4  -6  10   34.88   30.18
   6  -4  10   53.03   21.57
  -6   4 -10   14.02   26.88
  -6   4 -10   33.24   32.90
   4  -6  10   31.84   28.26
   6   4 -10   38.34   22.60
  -6   4 -10  -12.28   22.30
  -6  -4  10   20.33   31.86
   4   6 -10  -17.69   33.80
  -6   4 -10   10.80   21.62
   6   4 -10   16.70   20.76
  -6  -4  11  701.97  403.88
  -4   6 -11   -8.50  402.43
  -6  -4  11 1304.54  403.80
   6   4 -11 1250.29  402.93
  -6  -4  11 1929.96  404.75
  -4   6 -11   89.78  401.73
  -6   4 -11 1046.07  402.93
  -4  -6  11 1004.12  403.59
   6   4 -11  564.91  403.47
   4  -6  11 1155.41  403.71
  -4  -6  11  326.00  401.82
   4   6 -11    9.26  402.58
  -6  -4  11 1718.76  405.36
   6   4 -11  290.04  401.89
   4  -6  11 1485.46  405.39
  -6   4 -11  601.10  403.67
   6   4 -11  918.16  402.61
  -4  -6  11 1525.24  405.75
   4   6 -11   57.94  401.68
   6  -4  11   30.83  401.37
  -6   4 -11   28.76  401.47
   4  -6  12  506.46  270.77
  -6  -4  12  650.72  269.84
  -6  -4  12  156.36  269.55
   6  -4  12  527.79  269.07
  -4  -6  12  334.23  268.95
  -6  -4  12  443.14  269.14
  -6  -4  12  503.26  270.51
  -4   6 -12   53.23  267.85
  -4  -6  12  566.47  270.81
   6   4 -12  500.59  268.43
  -4  -6  12  174.14  267.94
  -4   6 -12   17.91  269.34
   4   6 -12   -9.70  269.53
   6   4 -12  219.57  270.23
  -6   4 -12  260.67  268.18
   6   4 -12   99.51  268.09
   4  -6  12  446.16  269.07
   4   6 -12   43.10  268.02
  -6   4 -12  323.36  270.18
   6   4 -12  428.12  268.55
  -6  -4  13  270.05  179.23
   6   4 -13   27.52  178.24
   4  -6  13  234.76  179.31
  -4   6 -13  114.88  178.48
  -4   6 -13    9.42  181.11
   4   6 -13   10.14  181.51
  -6   4 -13  188.33  178.67
   6  -4  13  206.15  178.87
  -6  -4  13  443.35  180.48
   6   4 -13  287.59  178.77
   6   4 -13  176.60  181.31
  -4  -6  13  228.30  179.34
   4   6 -13   76.69  178.31
  -4  -6  13  256.74  181.13
   4  -6  13  296.32  180.96
  -6   4 -13  193.07  180.45
  -6  -4  13   14.46  179.56
   6   4 -13  262.97  178.38
   4  -6  14  276.77  285.82
   6   4 -14  495.16  285.94
  -4   6 -14  168.27  287.63
   6   4 -14  392.40  288.03
   6   4 -14  565.40  285.57
  -6  -4  14  -14.73  285.68
  -4  -6  14  411.27  286.34
   4   6 -14  168.45  285.28
  -4   6 -14  157.39  285.24
   4  -6  14  433.95  286.92
  -6  -4  14  492.99  286.37
  -6   4 -14  274.63  287.35
   6  -4  14  414.40  285.90
   6   4 -14   -5.65  285.01
  -6  -4  14  659.09  286.53
  -6   4 -14  211.17  285.34
  -4  -6  14  494.04  288.39
   4   6 -14   84.80  287.36
  -6   4 -15  257.01  357.01
  -6   4 -15  469.30  359.16
   6   4 -15  692.98  357.80
   4  -6  15  672.43  359.34
   6   4 -15  -11.58  356.67
   4   6 -15  175.74  357.05
   6  -4  15  502.19  357.74
  -6  -4  15   -7.51  357.12
  -4   6 -15  241.25  357.04
   6   4 -15  322.43  359.17
  -6  -4  15  618.21  358.16
   4  -6  15  685.29  358.24
  -4   6 -15   62.30  358.43
  -4  -6  15  487.92  357.87
  -6  -4  15  654.45  358.25
   6   4 -15  648.03  357.24
   4   6 -15  232.27  358.69
  -4  -6  15  546.97  359.46
   4   6 -16  -34.58   46.48
   4  -6  16  -16.88   21.28
   4  -6  16   20.41   37.53
  -4  -6  16   17.84   23.21
   6   4 -16  -21.16   39.81
  -4  -6  16  -21.59   36.80
  -4   6 -16   11.76   18.37
  -6   4 -16   11.83   15.90
   6  -4  16   -8.36   16.78
  -6  -4  16  -17.40   17.92
  -4   6 -16  108.71   46.07
   6   4 -16   -6.35   20.24
   4   6 -16   -6.08   20.00
  -6   4 -16  -37.51   37.58
   4   6 -17  303.70  260.30
  -6  -4  17  373.49  260.75
  -4  -6  17  482.90  263.11
   4  -6  17  267.72  260.17
  -4   6 -17  260.40  262.93
   4   6 -17  143.91  263.33
   6   4 -17  232.73  262.85
   6  -4  17  132.30  259.63
  -6   4 -17  396.02  262.79
  -6   4 -17  223.28  259.58
   6   4 -17  438.70  260.83
  -4  -6  17  306.19  260.58
   4  -6  17  437.22  262.85
  -4   6 -17  172.05  259.71
  -6   4 -18  291.74  224.31
  -4  -6  18  195.00  221.41
   6   4 -18  354.52  221.50
   4  -6  18  242.02  221.73
   6   4 -18  292.32  225.35
  -4   6 -18  177.17  224.52
  -4   6 -18  253.04  221.28
  -4  -6  18  466.63  225.61
   4   6 -18  198.63  225.48
  -6   4 -18  140.93  220.49
   6  -4  18   83.52  220.48
   4   6 -18  262.63  220.76
  -6  -4  18  282.92  221.73
  -4   6 -19  145.59  242.54
  -6  -4  19  259.72  242.88
  -4   6 -19  356.65  247.23
   6   4 -19  328.27  245.96
   4   6 -19  428.15  243.29
  -6   4 -19  168.99  241.99
   6   4 -19  236.50  242.36
   4   6 -19  296.14  247.82
   6  -4  19   58.42  241.74
   4  -6  19  386.20  243.51
  -6   4 -19  475.44  246.75
  -4  -6  19  434.84  243.93
   6  -4  20   40.75  226.95
  -6   4 -20  156.61  227.02
  -6   4 -20  342.75  231.25
   4  -6  20  504.31  229.27
  -4   6 -20  319.53  232.36
   6   4 -20  369.06  228.33
  -6  -4  20  162.11  227.57
   6   4 -20  524.55  232.73
  -4   6 -20  186.91  227.83
   4   6 -21  225.77  157.03
   6  -4  21   42.54  155.09
   4   6 -21  206.83  163.25
  -6   4 -21  155.63  155.08
  -6   4 -21  369.22  163.89
   6  -4  22   11.07   32.15
   6   4 -22   65.62   57.13
  -4  -6  22  -23.41   34.46
   6   4 -22   16.89   30.03
  -6  -4  22   46.50   37.88
   4   6 -22   28.47   60.95
  -4   6 -22   80.38   59.44
   4   6 -22   33.29   34.79
  -6   4 -23   62.40   51.71
   4   6 -23   25.73   27.66
  -4  -6  23  -12.06   28.63
   4   6 -23   29.34   58.70
  -4   6 -23   33.90   26.84
   6   4 -23   13.57   52.72
   6   4 -23    8.84   24.23
  -4   6 -23   13.85   57.73
   4  -6  23   11.96   28.44
  -6  -4  23  -12.02   24.53
   4   6 -24  -44.20   58.28
  -4   6 -24  -85.77   66.05
  -6   4 -24   12.94   49.08
   6   4 -24   14.01   54.29
   4  -6  24   12.34   22.81
   4   6 -24    9.01   26.29
  -4  -6  24   38.03   31.46
  -6  -4  24  -12.41   22.21
  -4   6 -24  -17.87   24.74
   6   4 -24   -9.13   21.92
  -4   6 -25   58.91  109.40
   6   4 -25  216.48  114.56
   4   6 -25  196.82  112.79
   4   6 -25  157.40   99.53
  -4   6 -25  156.44   99.92
  -6   4 -25  147.22  111.13
  -4  -6  25   65.14   99.75
   4  -6  25  -12.71   97.43
  -6  -4  25   12.78   96.75
   6   4 -25  140.98   98.55
   4   6 -26   19.41   27.27
  -4  -6  26  -13.37   31.51
   6   4 -26   29.69   62.84
   4  -6  26  -13.08   25.09
  -6   4 -26  151.97   57.54
  -4   6 -26   30.31   64.12
   4   6 -26  -46.61   64.14
  -4   6 -26   28.40   28.40
  -6  -4  26  -13.15   23.71
  -4   6 -27   98.37   96.10
   4   6 -27  238.85  117.12
   4   6 -27   99.45   97.81
  -4   6 -27  217.87  115.88
   6   4 -27  182.93  109.09
   4  -6  27   13.43   95.81
  -4  -6  27   68.50   96.79
  -4   6 -28   15.96   65.15
   4   6 -28  -40.70   32.49
   6   4 -28  -15.63   56.13
   4  -6  28  -13.77   27.57
  -4   6 -28  -10.09   29.47
  -4  -6  28  -28.03   30.10
   4  -6  29   28.21   40.21
   4   6 -29  133.20   76.67
  -4  -6  29  -14.32   40.91
   4   6 -29   31.56   45.66
   4   6 -30   10.73  120.72
   4   6 -30  305.90  144.15
  -4  -6  30   58.45  121.50
  -4   6 -30  200.47  143.13
   4  -6  30  475.79  136.85
  -4   6 -31  -85.28   71.98
  -4  -6  31   14.89   29.43
   4   6 -31   17.32   69.53
   4   6 -32   70.48   76.88
  -4  -6  32  -15.15   26.29
  -6   5  -4   -8.68   12.24
   6   5  -4    9.78   13.80
   6   5  -5   19.36   18.21
  -6  -5   5   -6.51   18.88
   5   6  -5    4.28   17.31
   6   5  -5    3.83   16.72
   5   6  -5    9.15   16.56
  -6   5  -5  -12.26   16.77
   6   5  -6   14.21   27.97
  -6  -5   6    6.85   32.28
  -6   5  -6   -3.27   30.91
   6   5  -6   20.13   29.32
  -5   6  -6   15.33   28.27
  -6  -5   6   81.01   31.37
   5  -6   6    9.19   26.68
   6  -5   6   54.19   27.78
  -5  -6   6   -7.57   29.95
   6   5  -6   48.01   30.54
   6   5  -6   47.55   37.88
   5   6  -6   48.94   30.40
   5   6  -7    8.90   78.51
   5  -6   7  291.27   78.94
   6   5  -7    4.73   77.93
  -5  -6   7    7.90   79.23
   6   5  -7   -8.49   78.63
   6   5  -7   19.21   78.69
  -6  -5   7  -21.66   81.87
   5   6  -7  -15.66   81.70
  -5   6  -7    4.03   78.57
   5  -6   7   -6.86   79.41
   5   6  -7   -4.64   78.52
   6   5  -7 -265.00   83.96
  -6  -5   7  571.62   83.41
  -5   6  -7   -6.78   80.94
   6  -5   7  453.19   79.78
  -6   5  -8   37.40   64.12
  -5   6  -8  -14.31   65.64
   6  -5   8  159.23   65.26
   6   5  -8   19.01   64.28
   6   5  -8   22.68   67.81
  -5   6  -8    8.49   63.85
  -5  -6   8   57.77   66.02
  -6   5  -8   -6.30   65.84
   6   5  -8    4.74   63.15
   5  -6   8   28.93   65.54
   5   6  -8   -8.19   66.92
   5  -6   8  146.78   63.61
  -6  -5   8   45.46   66.39
  -5  -6   8   51.06   63.41
   5   6  -8  -19.40   64.43
   5   6  -8    4.39   63.70
   6  -5   8  296.94   64.22
   6  -5   8   12.67   65.03
   6   5  -8   -4.39   63.76
  -6  -5   8  215.88   66.49
   6  -5   8   19.13   63.30
   6  -5   9   36.72   69.37
   5  -6   9  143.44   69.45
   6   5  -9   -9.47   70.02
   6   5  -9    9.50   69.41
  -5  -6   9   62.03   69.93
  -6  -5   9  284.57   72.71
   5   6  -9   -4.98   69.95
   6   5  -9   15.97   72.86
   6   5  -9    4.54   69.92
  -6   5  -9   19.30   69.96
  -6  -5   9  256.92   72.31
   5  -6   9   68.70   72.41
  -6   5  -9    7.31   69.36
  -6  -5   9  110.14   72.55
   6  -5   9   73.42   71.83
   5   6  -9   39.20   69.81
   6  -5   9  122.27   70.58
  -5   6  -9    7.55   72.41
  -5   6  -9    8.80   70.36
  -5  -6   9   94.46   72.56
   6  -5   9  221.73   69.84
   5   6  -9   17.13   72.97
  -6   5  -9   -6.76   72.91
   6   5 -10   33.43   68.10
   6  -5  10  169.11   69.42
   6  -5  10   35.41   67.73
   5  -6  10  106.97   69.60
  -6  -5  10  151.64   70.31
  -5  -6  10   44.90   68.68
   5   6 -10   10.20   68.58
   6   5 -10   18.72   68.57
   6   5 -10   47.72   68.84
   6  -5  10  147.15   68.18
   5   6 -10   -8.97   73.26
  -5   6 -10   -4.54   68.54
  -5   6 -10    7.98   71.71
  -6   5 -10   46.03   68.48
   5   6 -10   -4.29   68.40
  -6  -5  10  265.65   73.59
   6   5 -10   16.85   73.57
  -5  -6  10  170.80   73.52
   6  -5  10   98.72   71.51
  -6  -5  10  263.64   71.16
  -6   5 -10  -14.46   72.20
   5  -6  10  184.35   72.04
  -5   6 -11   -8.42   87.10
   5   6 -11   -4.28   82.31
  -5   6 -11    9.37   83.19
   6   5 -11  110.34   83.98
  -5  -6  11  184.31   85.59
  -6  -5  11  302.67   85.75
  -6   5 -11   86.02   83.35
   6   5 -11   -8.88   87.85
   6   5 -11   94.07   83.06
   5   6 -11   -5.34   83.67
   5   6 -11   -4.26   83.14
  -6  -5  11  224.69   88.79
  -5  -6  11  185.09   89.85
  -6   5 -11    7.72   87.17
   6   5 -11   53.02   83.41
   5  -6  11  105.97   84.35
   5   6 -11    9.39   88.93
  -5  -6  11  213.17   84.40
   6  -5  11  338.93   88.43
   6  -5  11  180.12   84.16
  -6  -5  11  199.75   85.20
   5  -6  11  183.06   87.31
  -6  -5  12   97.82   48.80
   5  -6  12  124.56   43.41
  -5  -6  12   38.46   42.34
  -6   5 -12   32.91   50.38
  -6   5 -12   26.09   40.89
   5   6 -12    4.28   39.52
  -5   6 -12   33.60   41.40
  -6  -5  12  130.54   44.25
   6   5 -12   14.87   41.65
  -6  -5  12  105.12   43.96
   5  -6  12   86.65   48.66
   5   6 -12   49.12   53.34
  -6  -5  12   91.33   48.86
   6   5 -12   28.49   40.29
   6   5 -12   -4.98   41.29
   6   5 -12   37.41   53.18
   5   6 -12   12.84   41.19
  -5   6 -12   17.76   48.61
  -5  -6  12  106.61   42.73
   6  -5  12   39.21   46.15
  -5  -6  12   66.92   48.66
   6  -5  12   95.95   42.22
   5   6 -12  -10.91   42.14
  -6  -5  13  458.00  235.23
   5   6 -13   51.35  234.86
  -5  -6  13  469.63  235.36
  -6   5 -13  175.10  232.42
   5   6 -13   60.99  232.29
   5  -6  13  370.75  233.32
  -5   6 -13  168.63  232.39
  -5   6 -13   65.49  234.53
   6   5 -13  239.59  232.70
   6  -5  13  607.27  235.05
  -6  -5  13  448.70  233.75
   6   5 -13  206.49  235.45
  -6   5 -13  139.88  234.63
   5  -6  13  602.39  235.58
  -6  -5  13  231.65  234.23
  -5  -6  13  374.34  233.68
   6   5 -13    5.18  232.14
  -6  -5  13  462.86  233.84
   6   5 -13  236.56  232.33
   6  -5  13  440.04  233.30
  -6   5 -14   15.63   27.47
  -5  -6  14  -10.20   40.06
   5   6 -14   17.04   28.97
  -6  -5  14   67.62   39.85
  -5   6 -14    9.84   43.30
   6   5 -14  -20.64   44.87
   6  -5  14   69.57   36.71
  -6   5 -14   -9.23   42.62
  -5   6 -14    5.20   28.06
  -5  -6  14   33.27   30.15
   5   6 -14   21.45   47.51
   6  -5  14   36.43   28.66
  -6  -5  14  -14.67   37.18
  -6  -5  14   23.94   29.81
   5  -6  14   -9.38   35.31
  -6  -5  14   31.68   30.71
   6   5 -14   38.13   27.47
   5  -6  14   53.52   30.28
  -6   5 -15   60.55  120.81
   6  -5  15  180.92  121.64
   5  -6  15  275.67  126.08
  -5   6 -15   72.30  126.44
  -5   6 -15   70.89  121.25
   6   5 -15  151.98  121.79
  -6   5 -15  204.88  127.71
   5   6 -15   29.61  120.94
  -6  -5  15  275.83  123.17
   6   5 -15   75.66  126.30
  -6  -5  15   91.06  125.06
  -5  -6  15  233.90  125.23
   5   6 -15  -11.18  126.97
   5  -6  15  184.54  122.39
  -5  -6  15  216.28  122.97
   5  -6  16  102.05   57.97
  -6  -5  16  203.29   60.40
  -5   6 -16  -54.11   74.17
  -5  -6  16   45.03   56.86
   5   6 -16  -34.94   74.87
   5   6 -16    6.15   58.03
  -6   5 -16   82.27   67.48
   5  -6  16   30.48   63.34
   6   5 -16   42.77   56.67
  -6   5 -16   24.08   56.44
  -6  -5  16  116.32   67.50
   6   5 -16   67.57   71.45
   6  -5  16   66.32   56.23
  -5   6 -16   40.98   57.81
  -5  -6  16  143.93   64.02
  -6  -5  17   56.55   32.01
   6  -5  17   17.86   27.49
   5   6 -17  -48.44   52.75
  -6   5 -17   10.55   45.11
  -5  -6  17   28.10   27.52
  -5   6 -17   11.32   49.50
   6   5 -17   58.75   51.40
  -5   6 -17   -6.36   28.20
   6   5 -17   39.74   28.67
   5  -6  17   42.50   44.06
   5  -6  17   17.79   26.81
  -6   5 -17   -6.33   27.51
  -5  -6  17   34.02   44.08
   5   6 -17   32.74   30.19
  -5  -6  18   23.54   37.79
   5  -6  18   22.18   39.47
   6   5 -18   24.47   47.60
  -5  -6  18   -9.84   24.17
   5   6 -18  100.60   50.89
  -6   5 -18   33.18   42.83
   5  -6  18   28.45   23.38
  -6  -5  18    9.81   23.69
  -5   6 -18  -82.39   46.46
   5   6 -18   -6.80   23.25
  -5   6 -18  -13.27   22.34
  -6   5 -18   20.31   20.51
   6   5 -18   20.69   22.25
   6  -5  18   -9.36   21.01
   5  -6  19  177.84  223.62
  -6   5 -19   92.04  222.96
   5   6 -19  161.07  223.58
  -6   5 -19  312.37  227.94
  -5   6 -19   36.79  227.31
   6  -5  19  250.01  223.66
  -6  -5  19  480.87  225.38
  -5   6 -19  208.09  223.55
  -5  -6  19  458.92  224.97
   6   5 -19  409.54  228.15
   6   5 -19  260.41  223.92
   5  -6  20  178.92   70.45
   6  -5  20   10.44   66.99
  -6  -5  20  130.14   68.55
  -6   5 -20   52.84   67.15
  -5   6 -20   59.68   67.94
   6   5 -20   46.32   67.50
  -5   6 -20   12.75   82.72
  -6   5 -20   12.07   78.62
   6   5 -21   40.02   85.34
  -6   5 -21  100.57   83.18
  -5  -6  21  133.76   76.48
   5   6 -21   13.90   89.90
   5   6 -21   81.27   73.65
  -6   5 -21   54.99   72.04
   6  -5  21   54.33   71.87
   6   5 -22   13.79   57.34
  -6  -5  22   11.86   26.45
  -5   6 -22   13.71   54.16
   5   6 -22  -71.72   62.78
   6   5 -22   -8.44   24.53
  -5  -6  22  -11.79   27.40
   5   6 -22  -16.77   26.45
   6   5 -23   -8.90   25.66
   5  -6  23   11.95   25.95
  -6   5 -23  -13.15   53.38
   6  -5  23   11.70   25.45
  -5   6 -23   -8.47   24.81
   6   5 -23   42.71   53.52
  -6  -5  23   24.48   21.99
  -6   5 -23   -8.57   22.82
  -5   6 -23   96.84   59.62
   5   6 -23  -14.78   57.16
  -5  -6  23   12.14   25.14
   5   6 -23    8.82   27.02
  -6   5 -24   13.60   60.67
  -5   6 -24   44.63   37.07
   5   6 -24   45.37   35.74
   6  -5  24  -12.11   31.22
   5   6 -24  -45.62   62.49
   6   5 -24   -9.17   35.68
  -6   5 -24   70.89   35.09
  -5  -6  24   38.28   35.88
   5  -6  24   12.34   34.83
   6   5 -24  190.71   64.28
  -6  -5  24  -12.61   34.72
  -5   6 -24   42.85   61.12
   5   6 -25   46.60   48.49
   6   5 -25   18.86   48.63
   6   5 -25  181.10   73.73
   5   6 -25   78.11   75.48
  -6   5 -25  140.51   74.94
   6  -5  25   12.51   47.38
  -5   6 -25   45.99   49.97
   5  -6  25   50.85   51.34
  -6  -5  25   38.92   49.93
  -5  -6  25   39.32   50.80
  -5   6 -25   29.44   75.92
   5   6 -26    9.77   27.48
   5   6 -26  112.19   68.15
   6   5 -26  -19.59   25.25
   6   5 -26   61.99   61.99
  -6   5 -26   14.48   60.64
  -5  -6  26  -13.45   32.91
  -5   6 -26  -90.90   67.08
   5  -6  26  -13.08   28.51
  -5   6 -26   57.46   28.06
  -6  -5  26   26.65   28.98
   5   6 -27   48.04   65.29
  -6  -5  27   13.66   33.67
   6   5 -27   10.05   32.42
   5  -6  27   13.44   33.40
  -5  -6  27   41.31   35.53
   5   6 -27   20.00   34.25
  -6   5 -27  134.16   70.98
  -5   6 -27   19.68   37.41
   6   5 -27   15.90   64.47
  -5   6 -27   93.38   73.05
   6   5 -28   41.14   25.00
  -6   5 -28   76.58   62.32
   5   6 -28  -10.23   28.19
   5   6 -28  -49.15   67.91
   5  -6  28  -27.57   24.97
  -5   6 -28  -20.18   28.58
   6   5 -28   48.84   62.31
  -6  -5  28  -13.99   24.50
  -5  -6  28   14.08   22.90
  -5   6 -28  143.68   70.51
   5   6 -29  -21.15   31.22
  -5   6 -29  -65.39   69.88
  -5  -6  29   14.39   28.95
   6   5 -29   66.57   67.69
  -6  -5  29   14.30   28.84
   5   6 -29  -33.48   66.74
   5  -6  29  112.93   32.72
   5   6 -30  -10.79   24.69
  -5   6 -30  117.06   73.02
  -5  -6  30  -14.68   22.80
   5   6 -30  -34.15   70.31
   6   5 -30  -17.00   66.41
   5   6 -31   17.39   74.04
  -5   6 -31  -85.37   74.88
  -5  -6  31  -14.95   33.37
   5   6 -32   17.70   63.08
   6   6  -5   -4.35   12.67
   6   6  -6    4.53   14.41
  -6   6  -6    7.55   13.34
   6   6  -6    5.11   14.75
   6   6  -7   -4.72   14.30
  -6  -6   7    8.03   16.71
   6  -6   7   -9.96   10.80
  -6  -6   7   -6.53   10.74
   6   6  -7    7.96   18.12
   6   6  -7  -15.16   15.46
   6  -6   7   13.53   14.16
  -6   6  -7   11.92   13.06
   6   6  -8   24.64   66.36
  -6   6  -8    4.12   65.72
  -6  -6   8  -25.15   67.14
  -6  -6   8   91.06   66.17
   6  -6   8   28.57   66.63
   6   6  -8  -16.64   68.07
   6   6  -8    5.01   66.39
  -6   6  -8    7.06   66.65
   6  -6   8  200.59   65.76
   6  -6   9    7.55   19.92
  -6   6  -9   -7.47   20.58
  -6   6  -9   12.76   15.27
   6   6  -9   17.40   26.82
   6  -6   9    8.41    8.44
  -6  -6   9   35.06   22.06
   6   6  -9  -24.67    9.35
   6   6  -9    5.01   15.61
  -6  -6   9   -6.48   12.98
   6   6  -9  -10.11   14.70
   6  -6  10   23.81   23.17
  -6  -6  10  -18.24   28.50
   6   6 -10   -4.94   10.38
  -6   6 -10   -4.39   13.72
   6   6 -10   -9.10   30.81
   6  -6  10   -6.21   15.79
   6   6 -10    9.90   17.90
   6   6 -10   -5.18   15.01
  -6   6 -10    7.90   26.25
  -6  -6  10   -6.48   15.91
  -6  -6  11   14.95   18.31
   6  -6  11   -6.51   16.26
   6   6 -11   -5.29   15.91
   6   6 -11    4.93   16.34
   6   6 -11    4.95    9.91
  -6   6 -11   75.10   30.76
   6  -6  11   16.49   24.95
  -6   6 -11  -13.54   15.27
  -6  -6  11    9.38   25.96
   6   6 -11   19.05   32.82
  -6  -6  11   -6.48   15.07
   6   6 -12   39.83  126.07
  -6   6 -12   -8.81  124.86
   6   6 -12   55.29  121.93
   6   6 -12   24.82  121.07
  -6  -6  12  372.69  128.62
   6   6 -12   14.92  121.48
  -6   6 -12   51.41  121.75
  -6  -6  12  390.42  123.82
  -6  -6  12  327.22  123.74
   6  -6  12  384.61  123.97
   6  -6  12  418.02  126.04
  -6  -6  13   -8.06   22.92
   6   6 -13   -5.61   17.25
  -6   6 -13    9.29   38.59
   6  -6  13   21.67   17.83
  -6  -6  13  -10.12   33.02
   6  -6  13   18.13   33.27
   6   6 -13   31.20   40.09
  -6  -6  13   43.24   32.25
  -6   6 -13    9.85   15.87
  -6  -6  13  -12.98   20.56
  -6  -6  14  358.91  146.65
   6  -6  14  540.87  147.16
   6  -6  14  311.68  143.25
  -6   6 -14   46.49  141.88
   6   6 -14   10.85  146.73
  -6   6 -14   48.90  145.87
   6   6 -14   34.49  141.87
  -6  -6  14  201.42  143.05
   6  -6  15    9.80   35.20
  -6   6 -15  -51.37   46.96
  -6   6 -15  -27.80   21.93
  -6  -6  15  -26.24   23.67
   6   6 -15   11.94   20.49
  -6  -6  15   10.75   37.23
   6  -6  15   16.16   21.38
   6   6 -15  -11.31   44.29
   6  -6  16   50.82   31.11
   6  -6  16   71.91   43.20
  -6  -6  16   36.41   33.67
   6   6 -16   24.85   30.94
  -6   6 -16   10.77   50.82
   6   6 -16   82.42   55.60
  -6  -6  16   55.95   45.62
  -6   6 -16  -23.31   30.30
  -6   6 -17  -12.67   20.68
   6  -6  17   10.59   36.16
   6   6 -17   39.70   22.78
   6  -6  17   -9.06   23.43
  -6  -6  17  -18.92   23.22
  -6   6 -17  -11.27   47.21
   6   6 -17   61.19   47.02
  -6  -6  17   46.52   43.42
   6   6 -18   12.70  155.34
   6  -6  18  189.20  150.25
   6  -6  18  276.44  156.00
  -6  -6  18  119.20  149.90
  -6   6 -18   82.43  156.45
   6   6 -18  199.09  150.23
  -6   6 -18   89.28  149.63
  -6  -6  18  380.34  157.65
  -6   6 -19   28.63   25.34
   6   6 -19  -14.78   24.19
  -6   6 -19  -24.47   50.76
  -6  -6  19   30.87   25.03
   6  -6  19   30.31   25.52
   6  -6  19  -11.53   42.37
  -6  -6  20  101.94   95.65
  -6   6 -20   45.60   85.51
   6  -6  20  157.63   87.58
   6   6 -20  -13.57   96.94
  -6   6 -20  152.70   97.56
   6  -6  21  -33.44   28.18
  -6  -6  21   52.66   47.98
   6   6 -21    8.20   26.73
  -6  -6  21  -22.48   26.46
  -6   6 -21   -7.89   25.26
   6   6 -21   14.02   60.69
   6   6 -22  -14.46   56.81
  -6  -6  22  -23.76   24.49
  -6   6 -22  -13.70   54.90
   6   6 -22   16.91   24.35
   6   6 -23   14.90   62.01
   6   6 -23   26.67   23.56
   6  -6  23  -23.90   21.37
  -6   6 -23   17.28   23.92
  -6  -6  23   12.24   21.88
   6  -6  24  -12.34   53.98
   6   6 -24  100.55   56.33
   6   6 -24  199.15   81.50
  -6   6 -24  234.22   77.49
  -6  -6  24   12.85   54.03
  -6   6 -24   17.85   55.41
  -6   6 -25  -18.62   26.83
   6   6 -25   47.21   63.80
  -6   6 -25   44.16   59.40
  -6  -6  25  -26.39   29.48
   6   6 -25    9.39   29.01
   6  -6  25   63.60   28.54
   6  -6  26   13.10   38.05
  -6   6 -26   60.62   72.16
   6   6 -26    9.83   39.67
   6   6 -26   64.53   70.37
  -6  -6  26   94.71   43.67
  -6   6 -26   19.16   39.02
   6   6 -27  -33.05   67.60
  -6  -6  27  -13.85   25.78
   6   6 -27   30.20   24.81
  -6   6 -27  -46.72   64.12
  -6   6 -27   -9.84   24.27
   6  -6  27  -13.46   19.97
  -6   6 -28   47.94   66.02
  -6  -6  28  -14.16   28.10
   6  -6  28   13.80   25.24
   6   6 -28   20.84   30.18
   6   6 -28   67.59   69.25
  -6  -6  29  101.26   76.47
  -6   6 -29  196.38  103.73
   6   6 -29  -51.77  100.62
   6   6 -29   53.18   74.10
  -6   6 -30   66.98   66.66
   6   6 -30  -10.85   25.01
  -6  -6  30   14.75   28.03
   6   6 -31   17.92   78.26
  -6  -6  31  -15.02   28.37
  -6   6 -31  -17.10   66.86
  -7   0   0   -5.39   16.62
   7   0   0    9.08   12.15
   7   0   0    3.87   10.22
   7   0  -1  608.23  492.81
   7   0  -1  442.84  492.54
   7   0   1  449.68  492.50
  -7   0   1  512.59  493.03
  -7   0  -1  617.40  493.11
   7   0   1  642.16  492.77
   7   0   2   -8.44    9.40
  -7   0   2    5.18   14.85
  -7   0  -2    5.65   14.87
   7   0   2   -8.97   12.60
   7   0  -2   -1.47    6.87
   7   0  -2   -7.87   10.03
  -7   0   2    1.45    6.21
   7   0  -3  553.40  383.78
   7   0   3  487.04  383.67
   7   0  -3  329.85  383.13
  -7   0   3  582.62  384.02
  -7   0  -3  519.40  384.00
   7   0   3  230.64  383.35
   7   0   4   22.58   12.77
   7   0  -4   -5.09   14.55
  -7   0  -4    1.53    5.49
   7   0  -4   -4.05    9.15
   7   0  -4    2.49   11.05
   7   0   4   -4.35    8.47
  -7   0  -4   22.99   17.02
  -7   0   4    7.11   24.94
   7   0   5   22.56   47.65
   7   0   5   -4.45   46.90
  -7   0   5   87.58   53.88
   7   0  -5  100.44   48.26
  -7   0  -5   29.19   48.06
  -7   0  -5   77.60   46.81
   7   0  -5   80.10   47.60
   7   0  -5   58.88   48.99
  -7   0   6    7.46   24.26
   7   0  -6  -12.92   11.09
   7   0   6    9.10   12.79
  -7   0  -6   -5.10    7.79
   7   0  -6    5.65   14.74
   7   0  -6  -10.16   12.61
  -7   0  -6   -5.91   13.09
   7   0   6    4.47    6.93
  -7   0  -7    5.96   75.75
  -7   0  -7  213.86   76.26
   0  -7   7    8.16   76.66
   0   7  -7  -16.16   77.43
   0   7  -7    9.59   75.90
   7   0  -7  209.31   77.02
   7   0  -7   80.88   76.85
  -7   0   7   30.51   79.36
   7   0   7    9.16   76.13
   7   0  -7  149.58   76.79
   0   7  -8   -4.98   16.53
   0  -7   8   -8.48   22.20
   0   7  -8    8.40   25.45
  -7   0  -8   -6.02   12.64
  -7   0   8  -15.62   34.39
   7   0  -8    4.32   17.47
  -7   0  -8   -3.56   12.46
   7   0   8  -13.93   15.56
   7   0  -8   -4.64   15.26
   7   0  -8  -17.89   21.39
   0   7  -9   -5.19   15.15
   0  -7   9   52.97   24.18
   7   0  -9   14.70   13.69
   0   7  -9    8.75   25.59
   7   0  -9   -6.14   17.19
   7   0   9   -4.70   13.88
   0   7 -10  -10.81   16.76
   7   0 -10    5.03   12.58
   0   7 -10  -18.23   28.78
   7   0 -10   -6.32   13.43
   0  -7  10   -9.15   24.94
   7   0 -10   15.75   16.99
   0   7 -11  -22.11  275.13
   0  -7  11 1039.92  279.43
   0   7 -11    9.51  276.07
   7   0 -11 1046.44  277.40
   7   0 -11   71.31  275.07
   7   0 -11  702.28  276.30
   0   7 -12   49.56   33.65
   0   7 -12    5.64   16.34
   0  -7  12   -9.78   26.05
   7   0 -12    5.42   13.63
   7   0 -12  -18.74   20.99
   0   7 -13   34.44  378.83
   0   7 -13  -20.66  380.19
   7   0 -13 1226.76  381.39
   7   0 -13  456.43  379.42
   0  -7  13  715.25  380.76
   0  -7  13 1258.62  383.01
   0  -7  14   -8.44   20.89
   0   7 -14    5.98   19.81
   7   0 -14   14.46   21.01
   7   0 -14   -5.72   14.86
   0  -7  14   10.49   33.03
   0   7 -14   10.76   40.47
   0  -7  15  382.99  196.62
   0   7 -15   48.38  194.72
   7   0 -15  213.88  195.01
   0   7 -15   67.20  197.82
   0  -7  15  709.38  200.83
   0   7 -16   23.29   43.68
   0  -7  16   -9.05   23.55
   0   7 -16    6.17   20.11
   0  -7  16   22.18   34.82
   0   7 -17  -44.82   42.40
   0   7 -17  -72.55   69.34
   0  -7  17  -11.51   58.89
   0  -7  17   -9.37   45.21
   0  -7  18   35.82   46.22
   0  -7  18   -9.72   26.63
   0   7 -18   12.54   55.66
   0   7 -18   33.08   26.30
   0  -7  19   20.13   32.84
   0   7 -19   28.08   32.30
   0   7 -21   85.70   51.15
   0   7 -21   13.87   70.92
   0  -7  21   10.88   49.60
   0  -7  21   39.03   62.14
   0  -7  22  -26.83   48.93
   0  -7  22  -11.46   27.36
   0   7 -22  -16.07   25.84
   0  -7  23   11.80   31.11
   0   7 -23  -44.06   58.96
   0   7 -23   42.94   32.63
   0  -7  24   24.88   26.88
   0   7 -24    8.83   29.61
   0   7 -25  272.07  273.50
   0  -7  25  370.48  274.27
   0   7 -25  139.68  278.88
   0  -7  26   26.76   31.03
   0   7 -26   -9.50   29.57
   0   7 -27  114.16  122.30
   0  -7  27   54.83  105.24
   0   7 -27  145.88  106.11
   0  -7  28  -14.02   25.24
   0   7 -28   50.04   70.76
   0   7 -28   10.16   27.49
   0   7 -29  -17.04   75.00
   0  -7  29  -71.63   41.26
   0   7 -29  -10.38   41.16
   0   7 -30   10.59   40.59
   0   7 -30  -17.39   87.72
   0  -7  30   73.08   46.14
   0   7 -31   35.43   77.48
   0  -7  31  -14.89   26.38
   0   7 -31   21.84   28.65
   0   7 -32  -18.03   72.10
   0   7 -32  -11.11   30.76
   0  -7  32   60.61   33.33
  -7  -1   0 2045.32 1537.87
  -7   1   0 1338.93 1537.51
   7  -1   0 1686.13 1537.55
  -7  -1   1  387.67  390.69
   7   1  -1  425.09  390.66
   7  -1  -1  475.51  391.09
  -7   1   1  420.44  391.84
  -7  -1  -1  549.59  391.68
   7   1   1  253.13  391.09
   7  -1  -1  460.91  391.32
  -7  -1   1  746.72  392.02
   7   1  -1  486.46  391.19
  -7   1  -1  366.24  391.40
   7  -1   1  566.79  391.41
   7   1   1  234.61  390.95
   7   1  -2  380.56  245.52
  -7   1   2  174.05  246.19
   7  -1  -2  237.38  245.49
   7  -1   2  325.90  245.40
   7   1  -2  324.86  244.85
   7  -1   2  531.76  246.02
  -7   1  -2  318.47  245.82
  -7  -1  -2  363.12  245.99
   7   1  -2  440.90  245.82
   7   1   2  186.96  245.31
   7  -1  -2  337.50  245.44
   7   1   2   50.72  244.91
  -7  -1   2  607.94  246.84
  -7  -1   2    2.12  244.69
   7   1  -3   -2.59  206.73
   7   1  -3  282.67  207.32
   7   1  -3  363.14  206.78
   7  -1   3  369.66  207.59
   7   1   3   70.21  206.89
   7   1   3   27.70  206.77
  -7  -1   3    2.60  206.68
   7  -1  -3  261.39  206.80
  -7   1  -3  323.86  208.14
   7   1  -3  323.11  207.77
  -7  -1   3  287.18  208.02
   7  -1   3  325.96  207.26
  -7  -1  -3  241.94  207.85
   7  -1  -3  299.50  207.44
   7   1  -4    5.27    7.45
  -7  -1   4   21.36   17.15
   7   1  -4    4.03    9.60
   7   1  -4    3.13   15.09
   7   1   4    4.64    8.57
   7  -1  -4   27.52   15.93
   7  -1  -4    6.52    9.12
   7  -1   4    8.61   12.67
  -7  -1   4    4.99    7.51
  -7   1  -4   38.22   18.56
   7   1   4    9.44   14.87
   7  -1  -4    8.64   11.22
   7   1  -4  -14.48   15.17
  -7   1  -4    5.27    9.65
  -7  -1   4   -5.95   12.34
  -7  -1  -4   24.50   16.40
   7  -1   4  -12.22   10.70
  -7  -1   5  220.40  163.89
   7   1   5   -4.67  161.21
   7   1  -5  210.84  161.47
   7  -1  -5  107.91  162.19
  -7  -1   5  330.67  163.00
   7   1  -5  110.13  162.06
  -7   1   5   -7.45  163.34
   7   1  -5  272.33  162.00
  -7   1  -5  215.18  161.62
   7   1   5   14.33  161.51
  -7   1  -5  165.40  162.58
   7  -1   5  297.44  162.42
   7  -1  -5  306.03  161.79
  -7  -1   5  250.55  161.64
   7  -1  -5  209.55  162.02
  -7  -1  -5   37.04  161.55
   7   1  -5  290.51  162.55
   7  -1   5  138.54  161.73
  -7  -1   6  109.74  128.63
  -7  -1   6  220.09  126.91
   7  -1   6  206.39  126.11
   7   1  -6  167.83  126.23
  -7  -1  -6    6.24  125.21
   7  -1  -6   40.75  125.75
   7  -1   6   34.28  125.27
   7   1  -6  182.79  125.28
   7   1  -6  153.24  126.34
  -7   1  -6  201.51  125.84
   7  -1  -6  166.07  125.61
  -7  -1   6  125.63  125.38
   7  -1  -6  107.39  125.64
  -7   1  -6   55.47  126.07
   7   1  -6  205.66  125.82
  -7   1   6    7.63  127.10
  -1   7  -7    7.98   98.32
   7  -1   7   -4.29   97.04
   7   1  -7  153.08   97.48
  -1   7  -7    4.74   97.35
   7   1  -7  153.28   97.88
   7  -1   7  204.61   98.81
   7  -1  -7  171.65   98.06
   7  -1  -7   53.98   97.77
   1   7  -7   -4.85   97.26
  -7  -1   7   60.05  100.76
   7   1  -7  190.04   99.33
   1  -7   7    8.06   97.94
  -7  -1   7  150.04   97.63
   7  -1  -7  159.15   97.85
   7   1  -7  198.43   98.80
  -7   1  -7   61.93   98.07
  -7   1  -7  234.70   98.01
   7  -1  -8   80.35   89.05
   7   1  -8  201.98   88.84
   7  -1   8   -4.30   87.83
   1   7  -8    5.04   88.48
  -1   7  -8    9.85   88.77
  -1   7  -8  -33.21   92.01
  -7   1  -8  -11.41   88.59
  -7   1  -8  313.47   89.55
   7  -1  -8  298.64   89.44
   7   1  -8  139.43   89.68
  -7  -1   8   63.70   88.27
   1  -7   8   16.78   90.07
  -7  -1   8    7.66   95.36
   7  -1   8  139.49   88.91
   7   1   8   -4.96   88.29
   7  -1  -8  151.04   89.17
   7   1  -8  256.88   89.29
  -7  -1   9  -15.65  246.97
   7   1  -9  868.80  247.26
   1   7  -9  -10.49  245.67
  -1   7  -9   17.30  246.56
   7  -1   9  315.75  246.12
   1  -7   9  436.79  247.59
   7  -1  -9  114.27  245.83
  -7   1  -9  931.85  247.21
  -1   7  -9   10.26  245.66
   7   1  -9  403.58  246.65
  -7   1  -9  -11.49  245.48
   7  -1  -9  382.68  246.48
   7   1  -9  934.32  248.00
  -7  -1  10   -8.00  151.20
   1  -7  10  471.10  153.14
   7   1 -10  363.72  150.13
   1   7 -10  -16.39  149.77
   7  -1 -10  220.39  150.15
  -1   7 -10   -9.02  151.07
  -7  -1  10   99.90  149.48
   7   1 -10   18.35  149.65
   7   1 -10  460.90  151.59
  -1   7 -10  -16.05  149.63
   7  -1  10   88.86  149.64
   7   1 -10  476.58  150.70
  -1   7 -11  -18.83  147.41
   7  -1 -11  165.75  145.33
   1  -7  11  368.64  149.34
   1   7 -11    5.58  145.18
  -1   7 -11   16.43  145.12
   7   1 -11  399.90  147.27
   7   1 -11  467.94  146.63
   7   1 -11   69.19  145.21
   7   1 -11  338.52  145.80
  -7   1 -11  410.59  146.68
  -7  -1  11   54.45  144.65
   7  -1  11   31.44  144.73
  -7  -1  12   39.30  223.85
   1   7 -12   28.46  224.19
  -1   7 -12    9.82  226.25
   7  -1  12   27.43  224.02
  -7   1 -12 1048.28  227.06
   7   1 -12   38.81  224.15
   7   1 -12  654.20  225.66
   7   1 -12  919.14  227.26
   7   1 -12  786.04  225.60
  -1   7 -12   16.76  224.22
   1  -7  12  989.31  230.06
   7   1 -13   -6.63   89.63
  -1  -7  13  172.16   92.09
   1  -7  13  217.73   92.36
   1   7 -13    5.79   90.62
  -1   7 -13   -5.69   90.51
   7   1 -13  235.44   91.07
   7   1 -13  379.80   94.96
  -7   1 -13  249.21   92.35
   1  -7  13  309.64   97.14
   7  -1  13   -4.64   89.74
  -1   7 -13  -10.25   95.27
  -7  -1  13   21.14   89.23
  -1  -7  14  672.26  323.76
   1   7 -14   30.14  321.70
  -1   7 -14   29.66  321.75
   7   1 -14  973.95  325.02
  -7   1 -14 1125.10  324.39
  -7  -1  14   15.08  321.27
  -1   7 -14  -53.40  323.92
   7   1 -14  730.28  322.71
   1  -7  14  880.02  324.02
   1  -7  14 1145.11  326.76
  -1  -7  15  254.31  134.01
   1   7 -15   36.57  132.07
  -1   7 -15   18.02  131.97
   7   1 -15  194.22  132.10
   7   1 -15  122.52  134.55
  -7   1 -15  254.72  133.44
   1  -7  15  233.44  133.68
   1  -7  15  216.77  136.73
  -1   7 -15   22.24  136.29
   1  -7  16  143.24   85.35
   7   1 -16   96.80   79.42
   1   7 -16    6.21   79.79
  -1   7 -16   12.26   79.92
   7   1 -16  190.55   83.93
  -1  -7  16  173.11   81.88
   1  -7  16  143.52   81.85
  -1   7 -16  -11.57   91.55
   7   1 -17  266.72  144.19
   7   1 -17  227.85  141.03
  -1   7 -17   63.44  141.18
  -1  -7  17  235.79  142.77
   1   7 -17   19.34  141.71
   1  -7  17  331.94  149.73
  -1   7 -17 -120.18  154.75
   1  -7  17  251.59  143.77
   7   1 -18   18.72   34.06
  -1   7 -18  -49.87   53.41
   1  -7  18   11.88   45.79
   7   1 -18   -6.14   21.55
   1   7 -18   13.32   24.53
  -1  -7  18   68.42   29.46
  -1   7 -18   -6.58   26.48
   1  -7  18   48.33   28.85
   7   1 -19  255.31  162.96
   1  -7  19  230.24  165.39
  -1   7 -19  125.72  160.56
   1  -7  19  200.30  161.64
   1   7 -19   70.63  160.15
  -1  -7  19  313.69  162.58
  -1   7 -21   27.63  100.68
  -1  -7  21  109.25   90.13
   1  -7  21   25.91   95.76
  -1   7 -21  116.36   88.68
   1   7 -21   86.13   89.27
   1  -7  22   40.11   48.15
   1  -7  22   11.42   29.84
  -1  -7  22  103.59   32.30
   1   7 -22  -40.36   28.90
  -1   7 -22   -8.00   26.47
  -1   7 -22  -85.22   63.66
  -1  -7  22   80.87   53.77
   1  -7  23   70.59   97.01
   1   7 -23   51.75   98.00
  -1  -7  23   83.26  106.49
  -1  -7  23  106.65   98.73
  -1   7 -23  179.68   99.18
  -1   7 -23   87.80  113.77
  -1  -7  24   12.49   30.91
   1  -7  24  -12.40   31.80
  -1   7 -24  -60.23   63.61
   1   7 -24   91.01   63.66
  -1   7 -24   44.01   31.89
   1   7 -24   17.74   31.54
  -1   7 -25   92.31   62.38
  -1  -7  25   25.64   59.07
   1  -7  25   50.97   59.58
   1   7 -25   45.52   59.85
  -1   7 -25   30.94   82.28
   1   7 -25  124.63   83.85
   1  -7  26  253.67  190.11
  -1   7 -26  222.27  199.87
   1   7 -26  335.46  199.62
  -1  -7  26  201.34  189.54
  -1   7 -26   94.72  189.03
   1   7 -26  238.20  190.07
  -1   7 -27   32.53   66.90
   1   7 -27    9.76   26.30
  -1   7 -27   19.40   26.15
   1  -7  27   13.68   22.85
  -1  -7  27  -27.49   27.68
   1   7 -27  -65.44   63.40
  -1   7 -28   10.14   27.18
   1   7 -28   10.19   27.31
  -1  -7  28  -14.06   28.92
   1  -7  28  -14.00   27.33
  -1   7 -28   49.93   69.98
   1   7 -28  117.10   75.99
  -1  -7  29  -14.36   31.49
  -1   7 -29   51.03   71.68
   1  -7  29   57.21   33.40
   1   7 -29  102.52   70.25
   1   7 -29   10.41   33.14
  -1   7 -29  -10.36   31.98
   1   7 -30  -10.61   59.98
  -1   7 -30   32.09   59.49
  -1  -7  30   14.64   62.57
   1  -7  30  145.92   71.25
   1   7 -30  139.44   97.75
  -1  -7  31   44.75   34.50
   1   7 -31  106.52   78.79
   1  -7  31   14.87   36.42
   1   7 -31   10.94   34.55
  -1   7 -31   17.69   78.53
  -1   7 -31   10.90   33.36
  -1   7 -32  -18.01   76.32
  -1  -7  32  -15.17   31.76
   1   7 -32  -54.19   79.63
  -1   7 -32  -11.09   31.33
   1   7 -32  -22.26   32.23
   1  -7  32  -15.13   30.94
   7   2   0  306.18  570.00
  -7   2   0  224.02  570.35
  -7  -2   0 1449.85  571.71
   7  -2   0 1321.68  571.00
   7   2  -1    3.16  281.16
   7  -2  -1 1091.60  283.62
   7   2   1   91.03  281.43
   7   2  -1  569.01  282.40
   7  -2   1 1522.71  283.36
  -7   2  -1  604.97  283.40
   7  -2  -1 1251.68  283.20
   7   2   1   73.19  281.50
   7   2  -1  767.64  282.64
   7  -2   1 1250.43  283.64
  -7   2   1  194.38  282.49
  -7   2   2   63.98  226.85
   7   2   2    9.62  225.76
   7   2   2    9.84  225.88
  -7   2  -2  557.08  228.33
   7   2  -2  158.99  225.82
   7  -2  -2  574.91  227.47
  -7   2  -2  516.89  227.45
   7  -2   2  778.24  227.16
   7   2  -2  540.08  227.19
  -7  -2  -2  514.02  227.57
  -7  -2   3    3.35   16.77
   7   2   3   -9.68   16.77
  -7  -2   3   30.44   24.54
  -7   2  -3   19.22   20.89
   7  -2  -3    5.55   19.06
  -7  -2  -3    6.40   20.62
  -7   2   3   29.15   26.62
   7  -2   3   34.93   15.70
   7  -2   3   17.70   18.95
  -7   2  -3    6.75   15.49
   7   2  -3   -6.64   17.95
   7   2  -3    9.70   19.51
   7   2   3   -4.95   19.15
   7   2  -3   20.76   16.72
   7  -2  -3   26.72   18.55
   7  -2   3   39.79   18.66
  -7   2  -3   50.36   27.00
   7   2  -3    4.31   19.18
  -7  -2  -4  167.98  205.98
   7  -2   4   -4.47  205.32
  -7  -2   4  778.51  208.34
  -7  -2   4  390.76  205.92
   7   2  -4  490.76  205.80
  -7  -2   4   -3.76  205.54
  -7   2  -4  725.71  208.85
   7  -2   4  639.79  206.94
  -7   2  -4    2.22  205.36
   7  -2  -4  276.04  206.24
  -7   2  -4  445.40  206.93
   7   2  -4   -3.75  205.59
   7   2  -4  495.30  206.48
  -7   2  -4  101.50  205.30
   7   2  -4  447.03  206.71
   7  -2   5   88.51   63.66
   7  -2   5   59.46   63.02
   7  -2   5   84.34   62.32
  -7  -2   5   85.11   62.78
   7   2  -5   96.48   62.65
   7  -2  -5   43.24   62.71
   7   2  -5   25.40   64.15
  -7   2  -5   14.94   62.01
  -7   2  -5    2.78   63.22
   7   2  -5  127.89   64.32
  -7   2  -5   64.86   64.81
  -7  -2   5   12.36   63.32
  -7  -2   5  132.13   65.95
   7   2   5    5.07   62.78
   7   2  -5  159.31   63.67
   7  -2   5  105.03   63.12
   7  -2   6  305.67  297.50
  -7  -2   6  311.28  298.12
  -7   2  -6   61.38  297.25
   7  -2  -6  169.69  297.71
  -7   2  -6  406.22  298.58
  -7  -2   6  785.07  298.36
  -7  -2   6 1107.97  300.09
  -7   2  -6  401.75  298.02
   7  -2   6 1115.87  298.98
   7  -2  -6  329.62  297.99
   7   2  -6  166.01  298.09
   7   2  -6  539.11  298.48
  -7   2  -7  177.01  217.90
  -7  -2   7  582.01  218.22
   2   7  -7   -4.92  217.02
  -7  -2   7  631.13  221.16
   7   2  -7  651.01  217.83
   7   2  -7  579.68  218.70
  -2   7  -7    4.68  217.03
  -7   2  -7   21.65  216.85
   7  -2  -7   62.31  217.08
   7  -2   7  821.28  218.79
  -2  -7   7   33.48  217.52
  -7   2  -7  511.00  218.32
   7  -2  -7  184.83  217.44
   2   7  -7    8.29  217.53
   2  -7   7   23.92  217.19
  -2   7  -7   -7.89  217.64
   7  -2   7  139.79  216.98
   7   2  -7  791.38  218.63
  -7  -2   7 1040.12  220.60
  -7  -2   8  988.26  286.97
   2   7  -8   -5.11  280.55
  -2   7  -8    4.87  280.57
  -7  -2   8 2154.33  286.29
  -7   2  -8   25.23  280.46
   7   2  -8 1282.99  283.67
  -2   7  -8   -8.21  281.14
   7  -2   8  210.83  280.76
  -2  -7   8  399.80  281.91
   2  -7   8  165.97  281.44
   7   2  -8 1823.90  283.74
   7  -2  -8  274.54  280.83
  -7   2  -8 1336.51  283.53
   2   7  -8    8.61  281.21
   2  -7   9   -8.65   21.07
   2   7  -9  -10.62   15.48
  -2   7  -9    5.08   14.26
   7   2  -9    4.41   12.23
  -2  -7   9   -9.04   21.21
   2   7  -9    8.96   23.67
  -2   7  -9   17.13   24.29
  -7   2  -9    3.18    7.27
  -7  -2   9    5.10   12.26
   7  -2   9   -4.13   13.08
   2   7  -9    8.58    8.62
  -7  -2   9    7.73   30.79
   7   2  -9   -7.45   11.17
   7   2  -9    5.68   16.36
  -7   2  -9   23.53   18.01
   7   2  -9    6.21   24.06
   7  -2   9   -4.34    7.84
  -7  -2   9   -5.79   17.07
  -7  -2  10  307.30  389.21
  -7  -2  10 1520.15  390.11
   7   2 -10 1959.19  389.87
   2   7 -10  -11.05  387.82
  -2   7 -10  -10.60  387.84
   2   7 -10    9.32  388.40
   7   2 -10 1600.54  390.92
   2   7 -10   -2.71  387.61
  -7  -2  10 1953.02  391.11
   7   2 -10 2022.25  390.16
   2  -7  10 1301.45  391.43
  -2   7 -10   17.87  388.48
   7   2 -10  610.17  388.78
  -2  -7  10  710.79  390.40
  -7   2 -11  628.28  248.92
   2   7 -11    5.64  247.09
  -2   7 -11   21.71  247.16
  -2   7 -11   46.66  248.62
  -7  -2  11  468.22  248.08
   7   2 -11  716.95  249.96
   7  -2  11   -5.37  246.74
   7   2 -11  183.13  247.56
   2   7 -11    9.71  248.35
  -2  -7  11  652.54  250.36
   7  -2  11  563.45  247.98
   7   2 -11  560.04  248.10
   2  -7  11  590.34  250.16
  -7  -2  11   24.12  248.49
   7   2 -11  502.10  248.07
  -7  -2  12  -24.64  369.27
  -7  -2  12  582.33  369.69
   7   2 -12  780.99  369.78
   2   7 -12  -11.50  368.70
  -2   7 -12   16.63  368.76
  -7   2 -12  793.01  370.58
   7  -2  12  617.09  369.36
   2   7 -12   60.67  370.15
   2  -7  12 1000.64  371.75
   7   2 -12  132.00  368.93
  -2   7 -12   -9.74  369.75
   7   2 -12  909.30  369.80
   7   2 -12 1018.97  371.14
  -2  -7  12 1167.08  372.68
  -2  -7  13  820.32  333.01
  -2   7 -13   -5.65  329.44
   7   2 -13  877.68  332.45
   2  -7  13  734.47  331.49
   7   2 -13  891.36  330.75
  -2  -7  13  719.85  331.41
   2   7 -13   -5.85  329.52
  -2   7 -13   10.17  331.03
   2  -7  13 1114.49  334.05
  -7   2 -13  949.91  331.61
  -7  -2  13  478.54  330.38
   7   2 -13   32.27  329.38
   2   7 -13  -21.06  330.93
   7  -2  13  409.49  329.80
   7   2 -14  719.55  264.85
  -2  -7  14  583.70  265.67
  -2   7 -14  -28.64  263.56
   2  -7  14  699.32  265.95
   2   7 -14   12.17  263.56
  -7  -2  14  231.87  264.01
   7   2 -14  539.47  266.34
  -7   2 -14  432.60  265.32
   7   2 -14  591.71  264.48
  -2   7 -14   53.02  265.69
   2   7 -14  -54.76  265.69
  -2  -7  14  693.37  268.56
   2  -7  14  806.43  268.17
   7   2 -14    6.63  263.40
   2   7 -15   11.39  329.72
  -7  -2  15  221.53  328.38
   2  -7  15  782.07  330.46
   2   7 -15  135.24  328.36
  -2   7 -15   47.74  328.18
   2  -7  15  872.56  332.67
   7   2 -15  692.16  329.29
   7   2 -15  -20.36  327.83
  -2   7 -15   88.39  330.42
  -2  -7  15  698.43  330.20
   7   2 -15  716.24  331.26
  -7   2 -15  764.20  330.45
  -2  -7  15  898.10  332.51
   7   2 -15  626.14  328.89
   2  -7  16  695.88  401.68
   7   2 -16  625.84  400.38
   2   7 -16   23.65  403.35
  -2  -7  16  642.61  401.28
  -2   7 -16   54.82  399.71
  -7  -2  16  112.80  399.61
  -7   2 -16  760.10  401.59
  -2   7 -16   46.00  402.87
   7   2 -16  922.97  400.52
   7   2 -16  839.66  402.43
  -2  -7  16 1024.04  404.17
   2  -7  16  942.23  403.53
   2   7 -16   87.68  399.78
  -7   2 -17   34.02   30.10
  -2   7 -17  -11.95   50.23
   2  -7  17   18.54   22.98
  -2  -7  17   28.50   23.12
   7   2 -17   -9.62   32.49
   2   7 -17  -12.99   20.30
  -2   7 -17   18.93   20.58
  -2  -7  17   11.67   40.74
   7   2 -17   -5.50   16.78
  -7  -2  17   18.29   15.80
   2   7 -17  -98.13   53.95
   2  -7  17   11.39   41.77
   7   2 -17    6.73   14.86
   2  -7  18  921.87  431.30
  -2   7 -18  222.61  427.24
   7   2 -18  788.11  429.93
   2   7 -18  216.04  429.82
  -2  -7  18  934.82  429.15
   2  -7  18  923.85  429.23
   7   2 -18  728.10  427.88
  -7   2 -18  657.31  428.96
  -7  -2  18    9.60  426.53
   2   7 -18  295.05  427.22
  -2   7 -18  397.04  430.87
  -2  -7  18 1052.01  431.50
   7   2 -19  254.01   69.59
  -7   2 -19  113.93   62.48
   2  -7  19  131.19   59.64
   2   7 -19   20.81   57.18
  -2   7 -19   12.86   74.30
  -2  -7  19  132.36   61.03
   2  -7  19   72.41   68.55
  -7  -2  19  -20.12   54.35
  -2   7 -19   13.91   57.20
  -7   2 -20  469.03  406.56
  -2  -7  20  522.17  407.19
   2   7 -20   40.77  407.50
   7   2 -20  619.11  407.98
   2   7 -21  -56.10   59.16
  -2  -7  21   13.14   48.42
   2  -7  21   51.65   49.49
   2   7 -21   23.63   29.64
  -2  -7  21   21.97   34.55
  -2   7 -21   13.76   57.46
  -2  -7  22  115.67  187.54
  -2  -7  22  433.48  195.64
   2   7 -22  259.69  187.86
  -2   7 -22   95.71  186.74
   2  -7  22  318.83  188.39
   2   7 -22   57.62  195.16
  -2   7 -22   84.93  194.26
   2  -7  22  253.26  193.65
  -2   7 -23   25.60   28.64
  -2   7 -23   29.18   61.49
   2  -7  23   12.03   28.81
   2  -7  23  -27.48   50.16
   2   7 -23  -25.05   27.24
   2   7 -23   14.83   64.67
  -2  -7  23  -11.90   27.99
  -2  -7  23  -13.94   53.26
  -2  -7  24  438.82  168.25
   2  -7  24  235.15  166.08
  -2  -7  24  157.65  173.06
   2   7 -24  137.18  175.07
  -2   7 -24    8.78  164.77
  -2   7 -24  150.20  174.32
   2   7 -24  178.18  165.84
  -2   7 -25  221.05  130.33
   2   7 -25  172.09  142.67
  -2   7 -25   77.17  141.19
  -2  -7  25  102.97  131.57
   2   7 -25  155.46  130.34
   2  -7  25   25.44  128.95
   2  -7  26   26.66   74.34
  -2   7 -26   66.15   75.12
   2   7 -26  124.39   76.81
  -2   7 -26  316.84  103.19
  -2  -7  26   26.39   73.97
   2   7 -26   32.07   95.47
  -2  -7  27  151.69   84.16
   2   7 -27   -9.79   80.79
  -2   7 -27  187.98   83.39
   2  -7  27   13.66   81.41
  -2   7 -27   97.43   98.02
   2   7 -27  114.93  102.97
  -2   7 -28  121.49   83.51
   2   7 -28  112.51   84.93
   2   7 -28  100.74  103.40
  -2   7 -28  182.79  106.56
  -2  -7  28   42.30   83.36
   2  -7  28   13.98   82.77
  -2  -7  29  -43.19   28.84
  -2   7 -29   33.97   66.68
   2   7 -29   10.44   27.99
  -2   7 -29   10.35   28.93
   2   7 -29   34.29   70.45
   2  -7  29   14.29   27.08
  -2   7 -30   17.34   83.91
   2   7 -30  -10.65   47.97
  -2   7 -30   96.19   50.73
  -2  -7  30   14.68   49.38
   2  -7  30   72.92   55.66
   2  -7  31   14.86   28.71
   2   7 -31  -43.89   31.78
  -2   7 -31   17.67   75.13
  -2   7 -31  -10.89   31.19
  -2  -7  31  -14.95   31.95
  -2   7 -32   35.99   74.17
  -2   7 -32   55.44   34.02
   2   7 -32  -11.16   29.68
  -2  -7  32   15.20   34.58
   2  -7  32  -15.13   28.28
  -7   3   0   55.72  156.96
  -7  -3   0 1092.19  161.15
   7   3   0    4.99  155.28
   7   3   0   15.33  155.59
   7  -3   0  832.08  158.55
   7   3  -1   29.84  149.89
   7  -3   1  372.14  151.62
  -7   3   1    7.15  150.92
   7   3  -1   -5.07  150.10
  -7   3  -1  -13.58  151.21
   7  -3  -1  322.38  151.33
   7  -3   1  450.66  151.23
   7  -3  -1  348.50  151.10
  -7  -3  -1  298.22  151.47
  -7  -3   1  498.16  152.78
   7   3   1   -5.02  149.81
   7   3  -2    2.30   80.96
   7   3  -2  104.32   82.01
  -7  -3  -2  254.26   83.80
   7  -3   2  625.87   85.51
   7  -3  -2  235.75   83.30
  -7  -3   2  765.94   88.93
   7   3  -2   80.57   82.25
   7  -3  -2  275.42   83.49
  -7   3  -2    5.49   80.87
  -7   3  -2   66.30   84.36
  -7   3  -3  187.97  153.77
   7   3  -3  267.62  152.42
   7   3  -3    7.42  151.25
   7  -3  -3  231.70  152.34
   7   3   3  -10.52  151.51
   7   3  -3  369.36  152.50
   7  -3  -3  353.25  152.40
  -7   3  -3  111.24  151.29
  -7  -3   4   12.74   17.02
  -7  -3   4   -9.13   10.60
   7   3  -4    2.63    9.57
  -7   3  -4   -4.74   16.35
  -7   3  -4    9.86    8.04
   7  -3   4   -3.60   10.16
   7   3  -4    4.53   13.73
   7  -3   4   11.59    8.23
   7  -3   4   -9.28   15.14
   7   3  -4    5.01   14.89
   7  -3  -4   -5.96   11.96
   7  -3  -4    9.82   10.60
  -7   3  -4   25.39   25.22
   7   3  -4    4.88   11.45
   7   3  -5  210.33  195.76
   7  -3   5  437.97  196.05
  -7   3  -5  290.04  195.67
   7  -3  -5   60.62  195.58
  -7  -3   5    4.97  195.72
   7   3  -5   -4.93  195.88
  -7   3  -5  247.33  196.60
  -7  -3   5  569.92  198.08
  -7   3  -5   10.16  195.60
   7   3  -5  205.05  196.45
   7  -3   5  410.72  196.77
  -7   3  -5  327.70  197.62
   7  -3   5   -3.42  195.50
   7   3  -5  274.48  196.19
   7   3  -6  310.70  265.95
  -7  -3   6  553.01  267.68
  -7   3  -6  334.20  267.45
   7  -3   6  497.76  266.68
   7  -3   6   34.44  265.94
  -7  -3   6  366.03  266.17
   7  -3   6  477.26  266.10
   7   3  -6  211.61  266.34
  -7   3  -6  -19.39  266.20
  -7   3  -6  184.92  265.65
   7   3  -6  414.79  266.40
   3  -7   7   -7.89  459.98
   3   7  -7   -8.41  460.21
   7  -3   7 1772.72  461.66
  -7   3  -7 1091.71  460.97
   3   7  -7   24.93  459.97
  -3   7  -7   23.16  459.96
  -7   3  -7 2390.89  465.82
  -3  -7   7   25.46  460.02
   7   3  -7  856.23  461.30
   7   3  -7 1278.16  461.29
  -7  -3   7 1815.69  463.30
   3   7  -8  -10.35  125.49
  -7   3  -8  136.59  125.43
   3  -7   8    8.21  125.93
   7   3  -8  175.71  126.25
  -7  -3   8  375.41  128.83
   7   3  -8   31.74  127.59
  -3  -7   8    8.81  126.22
   7   3  -8  252.30  125.84
  -7  -3   8  217.27  126.99
   7   3  -8  131.82  125.78
  -3   7  -8   -9.64  125.55
  -7   3  -8  148.57  127.05
   7  -3   8  374.60  126.44
   7  -3   8  218.27  126.69
   7  -3   8  325.46  126.53
   3   7  -8    7.08  125.04
   3   7  -8   43.64  126.90
  -7  -3   8  254.33  129.48
  -3   7  -8   -8.13  126.67
   3   7  -9  -18.14  888.95
  -7  -3   9 2483.60  890.30
   7   3  -9 2794.73  889.86
  -7   3  -9 1204.42  889.09
   3   7  -9   -5.38  888.70
  -3   7  -9   30.18  888.74
   7  -3   9 2191.55  889.82
  -7  -3   9 2093.29  891.10
   7   3  -9 1194.09  889.87
  -7  -3   9 4344.41  892.29
  -3  -7   9 1262.75  890.24
   3  -7   9  616.84  889.45
  -3   7  -9   -8.48  888.90
   7   3  -9 3218.99  890.39
   7   3 -10  125.21   63.04
   7   3 -10   88.84   57.65
   3   7 -10   16.78   58.36
   7  -3  10  126.13   58.37
  -3   7 -10   15.46   58.08
   3  -7  10   35.79   61.02
  -3   7 -10  -17.71   61.73
   3   7 -10  -28.31   63.83
   3   7 -10   -6.62   56.90
  -7  -3  10   38.92   62.72
   7   3 -10   44.73   57.73
  -3  -7  10  104.71   61.52
   7   3 -10   67.99   57.78
  -7  -3  10   86.74   58.05
  -7   3 -10   76.95   60.88
  -7  -3  11  924.09  368.30
   7   3 -11  998.42  367.86
  -3   7 -11  -10.77  366.71
   7  -3  11  505.21  367.34
  -3  -7  11  778.16  369.53
  -7   3 -11  353.58  366.89
   3   7 -11   -9.82  367.58
  -7  -3  11 1439.34  369.54
  -7  -3  11  286.81  368.30
   7   3 -11  269.73  367.06
   3   7 -11   -5.71  366.76
  -7   3 -11  837.29  368.80
   3  -7  11  929.49  369.85
  -3   7 -11   -9.25  367.59
   7   3 -11  718.91  369.04
   3   7 -12  -17.44  427.26
   3  -7  12  700.71  428.61
   7   3 -12 1185.54  428.44
   7   3 -12  716.43  429.42
  -3   7 -12    9.67  428.10
  -7  -3  12 1002.02  428.95
   3  -7  12 1184.25  430.47
   7   3 -12  172.61  427.48
  -3   7 -12   11.00  427.30
   7  -3  12  390.80  427.60
   7   3 -12 1199.26  428.44
  -7   3 -12  883.24  429.03
  -7  -3  12 1359.05  429.49
  -7  -3  12   89.20  428.24
   3   7 -12  -30.67  428.27
  -7   3 -12  273.63  427.33
  -3  -7  12 1109.06  430.93
  -7  -3  13  -33.06  311.79
  -7  -3  13  976.52  312.49
   3  -7  13  832.75  312.55
  -7  -3  13  713.45  312.13
   7   3 -13  909.91  311.90
  -3  -7  13  618.41  312.17
   3   7 -13   -5.91  310.35
  -3   7 -13  -11.22  310.27
  -7   3 -13  908.42  313.54
   7  -3  13  250.75  310.55
   3  -7  13 1047.13  314.51
   3   7 -13  -31.91  312.10
  -7   3 -13  276.70  310.51
   7   3 -13   69.65  310.29
   7   3 -13  701.24  313.57
  -3   7 -13  -30.29  311.56
  -3  -7  13 1017.44  315.15
   7   3 -14   -6.49  316.29
   3  -7  14  819.94  318.59
  -7  -3  14  877.24  318.47
  -7   3 -14  217.95  316.51
   3   7 -14   12.29  316.35
  -3  -7  14 1173.88  321.83
  -3  -7  14  788.49  318.83
  -7  -3  14  788.03  318.28
   7   3 -14  704.00  319.75
   3  -7  14  955.62  320.43
   7   3 -14 1093.27  318.32
  -3   7 -14  -31.61  318.43
  -7   3 -14  553.60  318.69
  -3   7 -14   34.15  316.44
   7  -3  14  219.90  316.59
   3   7 -14  -11.06  318.53
  -7  -3  14   -8.43  317.37
   7   3 -15  400.76  228.54
   7   3 -15  541.69  225.97
  -3  -7  15  374.61  226.34
   3   7 -15   31.02  224.56
  -3   7 -15   40.75  224.51
  -3   7 -15  -21.97  227.25
   3   7 -15  -11.49  227.65
  -7   3 -15  160.92  224.50
  -3  -7  15  671.28  229.41
   7   3 -15  -13.30  224.26
  -7  -3  15  331.12  225.53
  -7  -3  15  417.53  226.07
   3  -7  15  512.82  226.84
   3  -7  15  760.52  230.31
   7   3 -15  481.45  225.28
   7  -3  15   45.51  224.07
  -7   3 -15  452.29  227.68
   7  -3  16   -8.07  176.60
   3   7 -16  113.71  178.30
   3  -7  16  319.57  180.11
  -7   3 -16   94.52  176.82
   7   3 -16  364.88  177.73
   7   3 -16  240.99  177.96
   7   3 -16  301.68  182.75
   7   3 -16    6.79  176.78
  -3  -7  16  222.16  178.84
  -7   3 -16  253.91  180.31
  -7  -3  16  196.01  178.03
   3   7 -16  465.20  194.80
  -7  -3  16  131.23  178.27
  -3  -7  16  488.01  186.08
  -3   7 -16  218.15  179.45
   3  -7  16  795.73  190.72
  -3   7 -17  100.48  336.91
   3  -7  17 1089.16  340.08
   7   3 -17  644.55  340.34
   7   3 -17  721.50  337.90
  -7   3 -17  787.86  339.89
   3   7 -17   72.03  336.79
  -3  -7  17  746.69  339.19
   7  -3  17   17.12  336.26
  -3  -7  17  976.61  342.79
   3  -7  17 1054.24  341.63
  -7  -3  17  290.18  337.44
   3   7 -17   86.57  339.62
  -3   7 -17  202.20  339.70
   3   7 -18   33.79   27.85
   3  -7  18   -9.59   27.57
  -7  -3  18   -9.81   23.31
  -3   7 -18   37.06   52.18
   7   3 -18  -14.26   24.86
  -7   3 -18   -9.46   36.47
   7   3 -18   74.89   41.82
  -3   7 -18   13.04   24.85
   3   7 -18  -12.81   48.58
  -3  -7  18  -24.37   48.05
  -3  -7  18   49.56   32.07
   3  -7  18  117.72   43.30
   3  -7  19  683.87  423.46
   3  -7  19  745.52  425.30
  -7   3 -19  587.52  423.58
  -3   7 -19  304.79  421.86
  -7  -3  19   92.23  421.31
   7   3 -19  625.91  422.38
   7   3 -19  816.06  424.90
  -3   7 -19  384.37  424.81
  -7  -3  20   42.72   62.88
  -3  -7  20   51.28   73.12
   3   7 -20  -13.68   80.23
  -7   3 -20   83.61   71.48
   7   3 -20   86.46   62.47
   7   3 -20   81.59   76.32
  -3  -7  21  211.59   93.86
   3  -7  21   51.51   93.53
   3   7 -21  155.30   99.83
  -3  -7  21  132.62   86.45
  -7   3 -21  142.13   90.72
  -3   7 -21   27.44   96.97
   3   7 -21   95.12   83.46
  -7  -3  21  -11.11   81.09
   3   7 -22   29.09   63.32
  -3  -7  22   13.62   55.60
   3  -7  22   26.59   47.69
  -3  -7  22   11.63   25.20
   3  -7  22   34.08   28.24
  -3   7 -22  -56.47   57.95
  -3   7 -22    8.26   27.99
   7   3 -22  -25.16   51.05
   3   7 -22   -8.16   28.19
  -3   7 -23  144.70  132.18
   7   3 -23  156.29  138.81
  -3  -7  23   83.77  132.37
   3  -7  23  180.03  132.50
  -3  -7  23  224.29  142.68
   3   7 -23  200.51  133.61
  -3   7 -23  276.57  144.49
   3  -7  23  123.39  137.13
   3   7 -23  149.12  144.41
  -7  -3  23   35.80  130.29
   3  -7  24   61.78   48.25
  -3   7 -24   59.96   70.05
  -3  -7  24  -28.81   66.26
  -3  -7  24   25.20   49.92
  -3   7 -24   61.33   47.79
   3   7 -24  122.58   74.51
   3   7 -24    8.96   48.11
   7   3 -24   80.77   65.60
  -3  -7  25  251.32  130.47
   3  -7  25  168.63  120.38
   7   3 -25  180.48  128.76
   3   7 -25  220.17  132.34
  -3  -7  25   90.51  119.76
   3   7 -25  156.25  119.44
  -3   7 -25   -9.20  118.24
  -3   7 -25  308.16  134.52
   3   7 -26  134.59  102.18
  -3   7 -26  268.94  121.96
   3  -7  26  146.48  102.96
  -3  -7  26   26.50  101.27
  -3   7 -26   75.50  100.87
   3   7 -26   96.70  122.15
  -3   7 -27  118.59  111.57
   3   7 -27  131.96  126.19
   3   7 -27   49.19  110.14
   3  -7  27   81.90  110.53
  -3  -7  27  235.43  113.00
  -3   7 -27  129.75  126.02
   3  -7  28   27.94   48.93
  -3   7 -28  149.41   77.45
   3   7 -28   61.62   51.91
  -3   7 -28   20.23   48.61
  -3  -7  28   14.15   51.63
   3   7 -28  168.58   83.14
  -3   7 -29  152.75  121.39
   3   7 -29  408.79  115.06
  -3   7 -29   10.46  104.15
  -3  -7  29   14.44  102.57
   3  -7  29  -28.57  103.77
   3   7 -30  -17.55   76.24
   3   7 -30  -10.69   31.12
  -3  -7  30  -29.45   32.18
  -3   7 -30  -34.66   77.79
   3  -7  30  -29.16   39.43
  -3   7 -30   42.73   29.52
   3   7 -31   35.72   82.36
  -3   7 -31   32.67   35.19
   3   7 -31   11.01   36.46
   3  -7  31   14.87   36.52
  -3  -7  31   29.98   38.59
  -3   7 -31   88.34   76.54
   3  -7  32   15.14   32.18
   3   7 -32  -11.19   34.72
  -3   7 -32  -35.98   79.39
  -3  -7  32   91.48   37.92
  -7  -4   0   -6.93   12.19
   7  -4   0    5.54   10.18
   7  -4   0    4.57   11.58
   7  -4  -1  193.94  211.11
   7  -4   1  344.73  211.48
   7   4  -1  -16.00  210.79
   7  -4  -1  282.02  211.33
  -7  -4   1  735.28  213.15
  -7  -4   2  109.35   64.94
   7   4  -2   20.74   63.41
   7   4  -2   10.61   64.02
   7  -4   2   62.62   63.87
   7  -4  -2   29.04   63.37
   7  -4   2  179.23   64.63
   7  -4   3  114.16   36.00
  -7   4  -3   13.31   39.42
   7   4  -3   -5.26   35.64
   7  -4   3   86.36   36.96
   7   4  -3    5.17   34.08
   7   4  -3    9.05   33.83
  -7   4  -3   10.49   33.82
  -7  -4   3  183.64   38.94
   7  -4   4  266.09   59.04
   7   4  -4   15.70   57.50
  -7   4  -4  -77.78   66.79
   7   4  -4   -3.19   56.66
  -7   4  -4  -13.59   56.72
   7   4  -4    5.16   56.80
   7  -4   4  178.92   58.18
   7  -4   5  -29.43   25.38
   7   4  -5    5.25   26.53
  -7   4  -5   57.02   22.53
  -7  -4   5   47.18   30.85
   7  -4   5   -4.81   27.03
   7   4  -5   20.66   22.91
   7  -4   5    3.57   19.66
  -7   4  -6   36.99   62.27
   4   7  -6   -4.89   60.23
  -4   7  -6   -8.82   60.46
  -7   4  -6 -135.77   71.97
  -7   4  -6   20.39   60.80
   7  -4   6  234.17   61.78
   7   4  -6  -36.68   64.50
   7   4  -6   98.78   61.81
  -7  -4   6  266.54   64.13
   7   4  -6   41.44   60.21
   7  -4   6  246.77   62.75
   7   4  -7  315.47  159.32
   7  -4   7   40.39  158.48
  -7   4  -7  114.64  159.87
   7  -4   7  467.05  159.04
   4   7  -7   20.23  158.19
   7   4  -7  152.30  158.59
  -4  -7   7   -8.61  158.29
  -7  -4   7  302.39  159.22
  -7   4  -7  212.39  158.29
   7   4  -7   52.27  159.50
   7  -4   7  414.45  159.48
  -7  -4   7   39.27  158.71
   7   4  -7  140.20  158.64
  -7  -4   7  528.92  161.13
   4  -7   7   -7.80  158.20
  -4   7  -7    9.17  158.08
  -7   4  -7   25.14  158.59
   4  -7   8   24.40  318.90
   7  -4   8 1000.16  320.05
   7   4  -8  504.07  319.30
  -7   4  -8  431.94  319.02
   4   7  -8   10.49  318.87
   4   7  -8    8.85  319.16
  -7   4  -8  390.05  320.06
  -7  -4   8 1223.22  321.78
  -4  -7   8   53.57  319.15
  -7  -4   8  371.33  319.89
   7   4  -8   -6.98  319.46
  -4   7  -8   14.32  318.77
  -7  -4   8  775.40  320.14
   7   4  -8  361.39  319.43
  -4   7  -8    8.04  319.11
   7   4  -8  608.44  319.69
  -7  -4   9   -7.24   22.60
   7   4  -9  -44.69   26.96
  -7  -4   9    5.77   13.82
  -4   7  -9   -8.40   21.50
   4   7  -9  -10.90   16.82
   4  -7   9    8.49   21.03
  -4  -7   9   -9.27   22.16
   7   4  -9    4.02   13.49
   4   7  -9    9.19   26.73
  -4   7  -9   -9.96   13.19
   7   4  -9   15.89   16.17
  -7  -4   9   26.97   21.71
   7  -4   9    5.87   20.40
  -7   4  -9    6.03   23.68
   7   4  -9    4.99   11.95
  -7  -4  10 1018.27  378.65
   7   4 -10  760.94  377.77
  -7   4 -10  479.37  377.29
  -4   7 -10    5.11  376.94
   4   7 -10   16.99  377.04
   4  -7  10  780.62  379.18
  -7  -4  10 1429.54  379.93
  -7  -4  10  951.61  379.96
  -7   4 -10  190.07  378.03
  -7  -4  10  784.36  379.03
  -4  -7  10  356.62  378.86
  -4   7 -10    8.78  377.49
   7  -4  10 1055.66  379.03
   7   4 -10  190.39  378.24
   4   7 -10   38.24  377.78
   7   4 -10  229.76  377.41
  -7  -4  11  482.25  208.33
   7   4 -11  391.79  206.88
   4   7 -11   29.83  207.59
   7  -4  11  450.98  207.20
   7  -4  11  552.79  208.69
  -4   7 -11   20.90  205.98
  -7   4 -11   79.86  206.05
  -4   7 -11   36.71  207.44
  -7   4 -11  170.36  208.37
   4   7 -11   -5.78  206.07
   7   4 -11   88.58  206.45
   7   4 -11  134.93  208.61
  -7  -4  11  221.79  208.71
  -4  -7  11  448.59  209.36
   7   4 -11  409.87  206.81
  -7  -4  11  462.81  207.46
   4  -7  11  230.56  208.37
  -7  -4  11  400.70  208.53
  -7  -4  12  192.43  125.62
   4  -7  12  166.41  124.42
   4   7 -12   -5.88  122.81
  -7   4 -12   62.50  122.67
   7   4 -12   52.00  123.03
   4  -7  12  151.73  126.36
   7   4 -12   35.76  126.65
  -4  -7  12  186.63  125.93
   7   4 -12  251.47  123.49
  -7  -4  12   64.68  125.53
  -4   7 -12  -16.01  123.09
  -7  -4  12  300.44  125.46
  -4   7 -12  -19.20  126.40
   4   7 -12   10.34  125.82
  -7  -4  12  255.70  124.12
   7   4 -12  278.60  123.37
  -7   4 -12   68.59  125.88
   7  -4  12  221.41  123.35
   7   4 -13 1663.25  593.18
  -4  -7  13 1402.07  594.23
   4  -7  13 1190.15  593.70
  -7  -4  13  270.89  592.94
  -7  -4  13 1811.34  594.34
   7   4 -13 1441.86  593.20
  -7   4 -13  641.65  592.36
   4   7 -13   29.87  592.06
  -4   7 -13  -11.15  591.87
  -4  -7  13 1749.49  595.61
   4   7 -13   10.76  592.91
  -7  -4  13 2496.46  595.34
  -4   7 -13  -30.09  592.84
   7   4 -13   84.68  592.08
   7   4 -13  951.56  594.37
  -7   4 -13  949.27  593.97
  -7  -4  13 1371.25  594.58
  -4   7 -14   -5.66  132.46
   4   7 -14  -22.36  137.23
   7   4 -14  229.77  133.51
  -4  -7  14  319.52  138.08
  -4  -7  14  253.82  134.62
  -4   7 -14   10.47  137.20
   4  -7  14  203.85  133.77
   7   4 -14   -6.35  132.46
   4   7 -14   18.62  132.69
   4  -7  14  194.12  136.84
  -7  -4  14  317.08  135.44
  -7  -4  14  257.33  134.09
  -7   4 -14   83.54  132.47
  -7   4 -14  196.07  136.32
  -7  -4  14   -8.34  134.87
   7   4 -14  308.15  133.09
   7   4 -14  208.69  138.44
   7  -4  14  130.01  132.79
   4   7 -15  -23.21  234.19
   7   4 -15  288.87  230.44
   7   4 -15   19.54  229.43
  -4   7 -15  -54.63  234.22
   4   7 -15   31.33  229.68
   4  -7  15  522.19  234.22
   4  -7  15  542.96  231.68
  -4   7 -15   -5.79  229.57
  -7   4 -15  417.30  233.33
  -7  -4  15  427.54  231.10
   7  -4  15  219.76  230.06
   7   4 -15  345.05  234.02
  -7  -4  15   67.92  231.29
  -7  -4  15  732.59  232.44
  -4  -7  15  835.99  236.65
  -7   4 -15  172.20  229.82
   7   4 -15  496.06  230.27
  -4  -7  15  459.20  231.90
  -4   7 -16   -6.01  151.64
  -4  -7  16  307.46  153.86
   4   7 -16   38.26  151.63
   7  -4  16   99.87  151.53
   4   7 -16   12.04  157.68
  -4   7 -16   11.38  156.28
  -7   4 -16  261.44  155.66
  -4  -7  16  363.28  157.10
  -7  -4  16  342.51  153.01
   7   4 -16  276.04  152.59
   4  -7  16  238.68  153.06
   4  -7  16  390.65  157.87
   7   4 -16  139.14  156.43
  -7   4 -16  120.31  151.36
   7   4 -17   11.21   43.14
   4  -7  17  -11.29   40.90
   4  -7  17   -9.20   22.26
  -7  -4  17   -9.44   21.97
  -4   7 -17   59.22   51.64
  -4   7 -17   -6.25   19.86
   4   7 -17  -26.43   21.55
  -7   4 -17    6.36   18.16
  -7   4 -17  -19.73   37.25
   7   4 -17    6.72   18.85
  -4  -7  17   -9.66   22.88
  -4  -7  17   11.87   41.54
   4   7 -17  -24.96   52.84
   7  -4  17  -17.58   17.57
   7   4 -18  128.78  150.47
   7   4 -18  250.79  145.72
  -4   7 -18   99.84  145.06
  -4  -7  18  229.82  146.76
  -4   7 -18   86.15  150.82
  -7   4 -18  207.77  149.68
  -7   4 -18   20.32  143.76
   4  -7  18  439.47  147.95
  -7  -4  18  246.43  146.45
   4   7 -18   64.59  152.63
   7  -4  18   46.30  144.30
   4   7 -18   74.96  144.99
  -4  -7  18  343.94  150.68
   4  -7  18  363.70  150.60
  -7  -4  19   94.41   38.52
  -4   7 -19   25.54   59.42
   7  -4  19   19.44   35.89
  -7   4 -19   76.37   54.86
  -7   4 -19   14.22   35.18
   7   4 -19   12.20   57.50
  -4   7 -19  -13.81   38.90
   4  -7  19   12.17   51.97
   4  -7  19   60.17   39.29
   7   4 -19   44.80   37.06
  -4  -7  20  104.89  106.30
  -7  -4  20   43.63   94.72
   4   7 -20   41.37  106.39
   7   4 -20  198.29   96.54
   4  -7  20  307.85   98.40
  -7   4 -20   59.56   94.29
   7  -4  20  -10.18   93.56
  -7   4 -20  182.79  104.77
  -4   7 -20   52.03   95.52
   4   7 -21    7.98   42.62
  -4  -7  21   79.89   61.32
   4  -7  21  -12.85   59.53
  -7   4 -21   23.86   62.90
   4   7 -21  127.98   75.02
  -4  -7  21  -33.38   42.22
  -4   7 -21  150.55   72.49
   7  -4  21  106.28   45.09
  -4  -7  22   41.14   70.27
   4  -7  22  -13.27   71.12
   7   4 -22  172.10   78.46
  -4   7 -22   90.63   58.09
  -7  -4  22  -11.72   57.40
   4  -7  22   34.03   58.02
   4   7 -22   16.44   57.69
  -4  -7  22  105.36   60.10
   7   4 -22  110.80   58.22
   4   7 -22   29.29   81.85
  -4   7 -22   14.14   78.59
   4  -7  23  -11.99   30.13
   4  -7  23   13.69   50.56
  -4   7 -23  -58.13   63.26
  -4  -7  23   28.21   54.29
   4   7 -23    8.77   31.63
   7   4 -23   82.10   55.75
   7   4 -23    8.92   26.85
  -4  -7  23   24.08   33.58
   4   7 -23   30.12   60.84
  -7   4 -23   12.48   53.54
  -4   7 -23   50.99   31.90
  -7  -4  23   24.23   28.78
  -4  -7  24   12.67   58.05
   4  -7  24   56.41   67.73
  -4  -7  24   57.95   71.74
  -4   7 -24  149.68   80.97
   7   4 -24   84.73   74.86
  -7   4 -24   51.77   74.12
   4  -7  24  111.10   56.82
  -4   7 -24   -8.93   55.94
   7   4 -24   82.79   55.48
  -7  -4  24   25.01   54.62
   4   7 -24   15.47   84.18
   4   7 -24   72.09   57.25
  -4   7 -25  184.69  109.95
  -4  -7  25  118.89  103.97
   4   7 -25   64.71   92.51
  -4   7 -25   64.29   92.55
   7   4 -25   87.28  105.89
   4  -7  25   90.73   91.95
  -7   4 -25  147.29  101.62
   7   4 -25  170.54   92.46
  -4  -7  25  104.00   94.65
  -7  -4  25   12.88   89.77
   4   7 -25   94.90  108.43
  -4  -7  26  152.23   79.76
   7   4 -26   14.96   79.07
  -4   7 -26   57.80   63.13
  -7  -4  26   13.24   59.60
  -4  -7  26  108.81   63.57
   4   7 -26   32.41   89.16
   4   7 -26   67.66   64.72
  -4   7 -26   79.04   90.52
  -7   4 -26  -13.83   76.99
   4  -7  26   66.56   63.88
   4  -7  27   27.30  106.59
  -4   7 -27  340.43  125.90
   4   7 -27  128.51  107.99
   7   4 -27  -46.06  117.17
  -4   7 -27  148.14  108.46
  -4  -7  27   62.31  119.71
   4   7 -27  265.26  126.15
  -4  -7  27   97.37  110.66
   4   7 -28   51.60   39.38
   4   7 -28  -33.88   75.67
  -4  -7  28   56.86   38.70
   7   4 -28  141.62   66.61
   4  -7  28  -13.97   34.29
  -4   7 -28  -10.11   35.66
  -4   7 -28   33.20   71.90
   4   7 -29  -86.43   87.03
  -4  -7  29  -14.51   45.53
   4   7 -29  -42.12   47.33
  -4   7 -29  -41.85   46.94
  -4   7 -29  -84.87   83.54
   4  -7  29  -14.29   45.69
  -4   7 -30   32.06   31.01
   4   7 -30   32.18   33.38
  -4  -7  30   14.78   26.79
  -4   7 -30  -51.99   73.35
   4   7 -30  -17.62   73.66
   4  -7  30  -14.59   24.75
   4   7 -31   17.93   73.49
   4   7 -31  -11.05   32.02
  -4  -7  31   60.17   30.63
   4  -7  31   14.88   27.10
  -4   7 -31  -35.34   76.00
  -4   7 -32 -125.99   78.96
   4  -7  32   15.15   27.03
   7  -5   1   -4.64   13.34
  -7  -5   2   86.28  126.75
   7  -5   2  152.99  126.26
  -7  -5   3   -7.14   15.74
   7   5  -3   -5.54   17.87
   7  -5   3  -12.94   15.85
  -7  -5   4   14.19   13.86
   7   5  -4   -3.73   12.27
  -7   5  -4  -11.28    9.57
   7   5  -4    5.49   14.30
   7  -5   4    4.09    8.67
   7  -5   4   -5.14   11.37
   7   5  -5   -5.37   14.72
  -7   5  -5   35.89   16.78
   7  -5   5    4.99   15.33
   7   5  -5   -3.90   15.74
   7   5  -5   16.33   18.73
   7  -5   5   11.56   14.81
  -7  -5   5   35.35   19.57
  -7  -5   6   -6.97   21.68
   7   5  -6   -5.36   19.18
   5   7  -6   -4.96   20.26
  -5   7  -6  -13.08   20.13
   7   5  -6   -4.10   21.03
  -7   5  -6   -6.27   20.10
   7  -5   6   33.93   21.05
   7   5  -6  -16.31   23.63
   7   5  -6   13.84   22.97
   7   5  -7   -5.37   12.24
  -5   7  -7  -13.60   12.82
   7   5  -7   -8.47   14.31
  -7  -5   7    7.35   17.97
   5   7  -7    5.13   14.48
   7  -5   7    4.69   11.57
   7   5  -7  -21.86   21.27
   7   5  -7   21.81   16.73
  -5  -7   7   -8.74   16.17
  -7  -5   7   56.44   16.00
   5   7  -8    8.98   26.13
   7   5  -8    5.38   17.95
   5  -7   8   -8.05   20.61
  -7  -5   8   30.98   26.93
  -5  -7   8    9.06   21.58
  -5   7  -8  -18.90   20.45
   5   7  -8    5.32   20.23
   7   5  -8    4.37   20.19
  -7   5  -8   12.39   23.20
  -7   5  -8   17.95   26.26
   7  -5   8   18.79   23.18
  -7  -5   8  126.21   27.12
   7   5  -8   -5.40   21.83
   7   5  -8  -15.38   28.37
   5   7  -8    4.71   19.83
   5  -7   8   35.68   17.51
  -5   7  -8   -7.96   23.25
   7  -5   8   50.19   19.20
   7   5  -9   27.02   51.19
  -5   7  -9   -8.32   54.55
  -5   7  -9  -19.74   52.60
  -5  -7   9   75.21   54.10
  -7   5  -9   14.40   50.98
   5   7  -9   -9.32   56.84
   5   7  -9   -4.64   51.53
   7   5  -9   70.07   53.58
   7   5  -9   63.10   52.43
  -7  -5   9  344.98   57.22
  -7  -5   9   81.26   55.86
   7  -5   9   80.24   54.32
   7  -5   9  233.68   54.06
   7   5  -9    8.11   56.33
   5  -7   9   33.65   52.99
   5   7  -9   -5.52   52.25
  -7  -5   9  216.39   55.09
  -7   5  -9   -6.66   54.62
   7   5 -10   58.44   35.01
   7   5 -10   42.78   44.22
   5   7 -10  -11.26   35.68
   7  -5  10  111.07   37.21
  -5   7 -10   -5.07   36.31
  -7  -5  10  133.86   39.01
   7   5 -10   21.73   36.93
   5   7 -10  -13.72   36.26
   7   5 -10   27.73   36.21
   5  -7  10   43.98   39.56
  -5  -7  10   29.30   40.53
  -7   5 -10   26.52   34.87
   7  -5  10   91.68   41.09
   5   7 -10   -9.69   44.39
  -7  -5  10   84.27   43.05
  -5   7 -10   -8.70   41.01
  -7  -5  10   55.85   38.48
  -7   5 -10    7.14   40.35
   5  -7  11    7.18   19.63
   5   7 -11    5.85   18.36
   5  -7  11   27.46   25.67
   7   5 -11   -4.87   15.15
  -7  -5  11  -43.83   31.53
  -5  -7  11   10.09   25.06
   7   5 -11    5.35   12.95
   7  -5  11    5.94   14.08
  -7   5 -11  -20.19   16.20
  -7  -5  11   41.92   19.90
  -5   7 -11    5.18   17.47
  -7   5 -11    7.64   29.22
  -5   7 -11    9.11   28.14
   7   5 -11   21.95   18.30
   7  -5  11    7.45   24.05
   7   5 -11  -27.05   31.07
  -7  -5  11    7.03   21.78
   5   7 -11   -8.99   16.27
   5   7 -11   10.07   31.46
  -7   5 -12  207.43  305.24
   7  -5  12  776.03  306.55
  -7   5 -12  114.10  306.61
  -5  -7  12  690.43  307.15
   5  -7  12  614.44  306.65
   5   7 -12  -17.86  305.08
   7   5 -12  361.84  305.55
  -5   7 -12    5.30  304.97
  -7  -5  12  915.25  307.71
   5   7 -12  -10.47  306.64
   5  -7  12  679.94  308.03
  -7  -5  12  792.04  307.08
   7   5 -12   85.37  306.91
   7   5 -12  107.58  305.17
  -7  -5  12  673.29  307.98
  -5   7 -12  -19.06  306.24
   7  -5  12  784.70  307.62
  -5  -7  12  734.54  308.46
  -7  -5  12  695.79  308.15
   7   5 -12  351.25  305.53
  -7  -5  13   30.82   23.01
   7   5 -13   -5.26   23.84
   5  -7  13    7.84   24.31
   5   7 -13   24.17   24.56
  -5   7 -13   -5.39   24.04
   7  -5  13   68.24   23.78
   5   7 -13   43.53   43.77
  -5  -7  13    8.52   25.58
   5  -7  13   -9.85   32.87
   7   5 -13   49.83   39.25
  -5   7 -13   -9.97   38.72
  -7   5 -13    8.67   37.20
  -7  -5  13   14.23   27.65
  -7   5 -13   14.63   24.45
   7   5 -13   10.55   19.69
  -7  -5  13   18.94   33.34
  -7  -5  13    8.18   36.06
   7   5 -13   11.78   23.58
   7  -5  13   66.15   33.05
  -5  -7  13   10.73   37.83
  -7   5 -14  248.44  342.91
  -7  -5  14  904.67  342.79
   7  -5  14  828.68  342.20
  -5   7 -14  -31.24  341.93
   5   7 -14   -6.10  340.46
   7   5 -14   30.75  340.64
   5  -7  14  527.31  342.21
  -7   5 -14  186.28  340.55
  -5   7 -14   16.57  340.44
  -7  -5  14  200.05  342.40
   7   5 -14  167.23  342.48
  -5  -7  14  813.02  344.16
   5   7 -14   22.61  342.44
  -5  -7  14  725.36  342.68
  -7  -5  14  824.17  344.09
   7   5 -14  661.81  341.34
  -7  -5  14 1080.24  343.23
   7   5 -14  479.95  341.18
   5  -7  14 1193.87  345.14
   7  -5  14  846.83  343.75
  -7  -5  15   10.24   38.42
   7   5 -15   47.34   24.33
   5   7 -15   35.19   47.65
   7  -5  15   73.14   36.96
  -5  -7  15   54.58   27.91
   5   7 -15   -6.33   26.51
  -5   7 -15   17.29   24.67
  -5  -7  15   11.41   43.12
   5  -7  15  -16.89   26.25
  -5   7 -15   21.74   50.57
   7  -5  15  -23.48   25.52
   5  -7  15  -42.43   44.93
   7   5 -15  -10.94   45.91
  -7   5 -15   48.50   42.50
  -7   5 -15   39.77   24.46
  -7  -5  15   17.11   24.34
  -7  -5  16   32.09   61.54
   5   7 -16   32.21   52.29
  -5   7 -16    5.98   51.17
   5  -7  16   70.43   52.04
  -5  -7  16   23.67   60.55
   7   5 -16   89.93   52.92
  -7  -5  16   80.45   52.67
  -5  -7  16   94.08   53.24
  -5   7 -16  -11.33   65.41
   7   5 -16   68.60   66.93
   5   7 -16   24.33   66.12
   5  -7  16   99.53   60.95
  -7   5 -16   41.95   51.10
  -7   5 -16   30.71   61.36
   7  -5  16   42.30   50.20
   7   5 -17   83.17   49.17
   7  -5  17    8.90   21.78
  -7  -5  17  -11.16   40.91
  -5  -7  17    9.74   25.78
   5   7 -17   12.60   51.02
  -5   7 -17   19.15   25.12
   5  -7  17   36.66   29.16
  -7   5 -17  -32.31   47.21
  -7   5 -17    6.43   22.54
  -7  -5  17   28.57   23.74
   5   7 -17   19.95   25.78
   7   5 -17  -13.40   22.62
  -5  -7  17  -24.51   43.58
   5  -7  17   33.76   37.50
  -5   7 -17   11.80   47.02
  -5   7 -18   49.08   54.05
   7  -5  18    9.54   26.32
   7   5 -18   -7.24   29.99
   7   5 -18   12.37   52.62
  -7   5 -18    6.75   28.27
  -7  -5  18   29.74   29.07
   5  -7  18  128.69   48.08
   5  -7  18   48.20   30.59
  -5   7 -18   -6.64   28.33
  -7   5 -18   33.08   48.99
   5   7 -18    6.88   28.92
  -5  -7  18   60.48   31.13
  -5   7 -19   28.62   35.17
  -5   7 -19   12.74   56.45
   5  -7  19   60.04   37.61
   7   5 -19   12.85   61.58
  -7   5 -19   28.87   33.72
   7  -5  19   19.97   31.46
   7   5 -19   52.62   36.35
  -7  -5  19   21.11   33.87
  -7   5 -19  -46.17   52.83
   5  -7  19  -12.14   50.21
   5  -7  20  190.75   57.18
  -7   5 -20  108.47   68.58
  -5   7 -20  -37.08   53.53
   5   7 -20  -41.71   76.70
   7  -5  20   41.69   51.83
  -5  -7  20  119.63   56.56
  -7   5 -20   52.75   52.48
   5   7 -20   15.03   52.90
  -5  -7  20   39.65   67.08
  -5  -7  21   13.62   50.57
   5  -7  21   51.33   50.48
   5   7 -21  -71.66   62.21
  -5  -7  21  -11.21   27.45
  -7   5 -21    7.85   22.18
   5   7 -21   24.14   25.82
   7   5 -21   67.32   55.43
   7  -5  21  -21.72   20.83
  -7   5 -21  -37.67   50.73
  -5   7 -21   13.67   58.31
  -5  -7  22  -82.87   54.87
  -5   7 -22   -8.23   25.91
   5  -7  22   13.26   48.70
  -7  -5  22   11.96   24.18
   7   5 -22   13.92   57.09
   7   5 -22   -8.51   25.25
  -5   7 -22  -28.24   57.18
  -5  -7  22  -11.79   31.32
   5   7 -22  -14.75   58.92
   5   7 -22    8.28   28.71
   5  -7  22  -34.83   29.95
   7   5 -23   28.72   54.45
  -5  -7  23   24.24   29.67
  -5  -7  23   42.60   49.77
   5   7 -23    8.84   30.18
   5  -7  23   23.96   30.89
  -5   7 -23   -8.67   28.88
  -7   5 -23   67.70   60.80
   7   5 -23   35.88   25.42
  -7   5 -23   17.12   21.83
   5   7 -23   15.17   60.28
  -7  -5  23   12.34   30.66
   5  -7  23  -41.05   50.86
  -5   7 -23   14.57   57.58
   7  -5  23  -23.42   24.48
   7   5 -24   14.79   61.34
  -7  -5  24  -12.71   27.05
   5  -7  24  -12.60   27.52
  -5  -7  24  -72.90   57.88
   5  -7  24  -42.29   53.82
   5   7 -24  140.19   64.79
   7   5 -24   55.44   30.65
  -5  -7  24   12.75   29.53
  -7   5 -24   70.08   57.28
  -5   7 -24   26.78   30.17
  -5   7 -24   74.79   63.13
   5   7 -24   45.37   31.92
   7  -5  24  -12.12   26.82
   5   7 -25   75.97   52.85
   5  -7  25   77.77   52.99
  -5  -7  25   59.79   72.75
   5   7 -25  175.68   83.57
   5  -7  25  -14.50   70.34
  -5   7 -25   30.77   79.72
   7   5 -25   76.04   77.17
  -5   7 -25   82.63   52.35
   7   5 -25   -9.50   48.14
  -5  -7  25   26.15   51.09
  -7   5 -25  115.85   73.96
  -7  -5  25  -13.07   48.18
  -5  -7  26  153.14   87.99
   5  -7  26   39.94   73.97
  -5   7 -26  158.04   98.92
  -5  -7  26  136.75   78.63
   5   7 -26   38.89   74.30
  -5   7 -26   19.27   74.21
   7   5 -26  249.88   99.87
  -7  -5  26  -13.42   72.23
  -7   5 -26  173.96   93.12
   5   7 -26   98.14   96.72
   7   5 -26  118.45   75.29
  -5  -7  27  -13.99   25.98
  -5   7 -27  -16.21   67.44
  -5  -7  27   15.66   56.68
  -7  -5  27  -13.76   23.98
  -7   5 -27   14.92   58.66
   5   7 -27  -50.01   68.49
   7   5 -27  -16.01   62.43
   5   7 -27   -9.94   27.29
  -5   7 -27  -19.75   28.59
   7   5 -27  -10.12   23.05
   5  -7  27   27.31   27.65
  -5  -7  28  -16.00   60.47
   5   7 -28  221.42   79.19
  -7   5 -28  122.69   64.81
  -7  -5  28   14.08   34.70
  -5   7 -28   16.60   76.62
  -5  -7  28   14.28   38.48
   5  -7  28   13.98   35.17
  -5   7 -28  -10.24   36.75
   5   7 -28   31.12   38.24
   7   5 -28   49.17   68.26
  -5   7 -29   33.96   80.90
  -5  -7  29  -32.64   69.33
   5   7 -29  121.64   89.98
   7   5 -29  150.75   77.28
  -5   7 -29   20.94   41.47
  -5  -7  29  116.58   47.65
   5  -7  29  -28.61   41.17
   5   7 -29  -10.58   42.01
  -5  -7  30   29.69   28.72
  -5  -7  30  -16.63   61.29
  -5   7 -30  -10.69   30.01
  -5   7 -30   17.34   70.95
   7   5 -30  119.71   69.08
   5   7 -30   17.70   75.96
   5   7 -30  -10.78   28.58
   5  -7  30   14.61   24.00
  -5  -7  31   67.70   65.52
   5   7 -31  -11.10   32.27
  -5  -7  31  -15.11   25.03
   5   7 -31  -36.02   72.15
   5  -7  31   14.90   23.71
  -5   7 -31   17.69   70.40
  -5   7 -32  -18.02   76.39
   7  -6   3   27.50   28.26
   7  -6   4   31.06   31.27
   7   6  -5   13.28   25.45
   7   6  -5   -5.75   25.30
   7  -6   5   50.93   25.90
  -7  -6   5   29.64   25.06
  -7  -6   6    7.37   11.41
   7   6  -6   -5.70   16.06
   6   7  -6   -5.04   12.41
   7   6  -6   -4.60   13.01
  -6   7  -6    4.31   11.71
   7  -6   6   12.03   11.67
  -7  -6   7  337.61   57.43
  -7  -6   7   -8.16   53.30
  -6   7  -7    4.48   52.86
  -7   6  -7   15.65   53.01
   7  -6   7  304.73   54.73
   7   6  -7    5.66   53.29
   7   6  -7   -9.59   53.52
   6   7  -7  -15.64   53.18
   7   6  -7    8.09   54.93
   6   7  -7  -10.74   52.90
   6  -7   8    7.97   14.05
  -6  -7   8    9.19   19.02
   7  -6   8    7.04   15.92
   7   6  -8   -5.57   10.09
   6   7  -8   16.20   15.64
   7   6  -8   15.02   16.80
  -7   6  -8   -3.97   14.23
   6   7  -8   -9.11   23.80
   7   6  -8   -8.45   23.15
   6  -7   8    3.38   11.03
  -6   7  -8   18.71   15.79
  -7   6  -8  -13.92   18.72
   6   7  -8   21.20   17.20
  -7  -6   8    7.33   15.44
   7   6  -8    5.66   17.91
  -7  -6   8   -8.52   18.97
   7   6  -9    5.58   10.34
   6  -7   9    8.33   17.60
  -6  -7   9   -9.53   23.22
   7   6  -9   -8.83   24.05
   6   7  -9  -16.81   17.32
  -6   7  -9   -4.80   15.01
   7   6  -9   11.19   17.67
  -7   6  -9   -4.10   13.54
   7  -6   9    7.45   19.72
  -7  -6   9   17.80   21.68
   7  -6   9   11.64   15.19
   6   7  -9  -18.92   28.86
   7   6  -9    5.14   17.23
   6   7  -9    5.24   16.92
  -7   6  -9   14.74   20.08
  -7  -6   9   -7.33   14.74
  -6   7  -9    8.24   20.43
   7   6 -10   11.17   13.11
  -7  -6  10   -7.25   18.25
   6   7 -10    5.71   18.19
  -7  -6  10  -18.61   26.02
   7  -6  10   12.29   15.74
   7   6 -10  -22.28   18.82
   7   6 -10   21.01   17.91
   6  -7  10    8.72   20.45
  -7   6 -10  -21.12   14.02
   6   7 -10    5.23   17.51
  -6  -7  10   -9.90   23.64
  -7  -6  10   14.66   17.19
   7  -6  10  -15.79   24.07
   7   6 -10   -9.24   29.41
  -6   7 -10   -4.91   15.98
  -7   6 -10   -7.81   24.34
  -6   7 -10    8.62   23.12
   6   7 -10    9.82   29.26
   6  -7  11   91.34   38.08
   7   6 -11   16.82   27.27
  -6  -7  11   61.70   38.12
   7   6 -11  -22.40   31.34
   6  -7  11   78.41   31.13
  -7  -6  11   22.66   31.46
   6   7 -11  -11.61   30.98
  -6   7 -11  -15.08   30.32
   7   6 -11    5.36   31.03
   7  -6  11   90.25   31.19
  -7   6 -11    8.77   28.84
   7   6 -11   -9.66   41.08
  -7  -6  11   96.73   36.27
   7  -6  11   83.07   35.70
  -6   7 -11  -18.07   36.44
  -6  -7  11   20.23   27.01
  -7   6 -11   24.79   38.89
  -7  -6  11   95.59   32.04
   6   7 -11   46.37   30.49
   6   7 -11  -20.41   42.59
  -7   6 -12   17.47   38.52
   7   6 -12   30.28   39.63
  -6  -7  12   60.60   20.59
   7   6 -12    5.63   18.30
   6  -7  12   52.10   24.81
  -6  -7  12   24.96   25.16
  -7  -6  12   15.64   23.85
   6   7 -12   18.09   24.83
  -6   7 -12  -21.05   22.71
   7   6 -12   -5.45   23.09
  -6  -7  12   42.50   32.44
   7   6 -12   33.86   25.79
  -7   6 -12   -9.27   21.49
   7  -6  12    6.80   21.17
  -6   7 -12    9.46   35.92
   6   7 -12  -53.03   39.04
   6  -7  12   57.07   30.33
  -7  -6  12   49.70   32.07
  -7  -6  12   36.64   23.60
   7  -6  12   25.91   31.33
   7   6 -13   45.35  155.16
  -6  -7  13  379.22  158.09
   6  -7  13  424.54  158.19
   6   7 -13   -6.12  155.62
  -7  -6  13  571.59  159.11
  -6   7 -13    5.35  155.82
   7   6 -13   44.66  155.88
  -7   6 -13  -27.67  158.77
   6   7 -13  -11.02  159.51
  -6   7 -13   -9.90  160.31
  -6  -7  13  529.68  161.76
   7   6 -13   10.54  158.87
  -7  -6  13  638.71  161.08
   7  -6  13  414.05  159.54
  -7  -6  13  404.73  160.23
   7  -6  13  509.31  158.31
   6  -7  13  469.96  160.56
  -7  -6  13  737.37  159.75
   7   6 -13   -5.81  155.95
  -7   6 -13   38.99  155.39
  -7   6 -14    9.72   42.91
   6  -7  14   24.15   22.33
  -6   7 -14    5.49   19.93
  -7  -6  14   25.49   19.93
   7   6 -14   -5.82   19.02
   6   7 -14  -11.44   40.94
   7   6 -14   43.96   42.50
   7  -6  14   -7.56   19.91
  -6   7 -14  -41.43   42.31
   6  -7  14   30.72   36.47
  -6  -7  14   11.27   35.39
  -6  -7  14   17.73   23.69
  -7  -6  14   32.06   39.26
  -7   6 -14    5.26   19.19
   7  -6  14   56.90   34.44
   6   7 -14  -12.35   18.99
  -7   6 -15   81.76  101.19
   7   6 -15   24.17   94.56
   6   7 -15    6.28   95.31
  -6  -7  15  285.04   97.59
  -7  -6  15  212.32   96.62
   7   6 -15  -11.45  103.04
   7  -6  15  200.99   96.04
   6  -7  15  227.07   96.92
  -6   7 -15   43.28  100.74
   6   7 -15   35.59  103.34
  -6  -7  15  233.68  103.73
   7  -6  15  311.91  101.32
  -7  -6  15  200.37  100.55
  -6   7 -15  -17.15   94.08
   6  -7  15  274.58  101.41
  -7   6 -15   11.06   94.32
   6   7 -16  -12.29   49.84
   7   6 -16    6.28   27.87
   7  -6  16   34.48   28.60
  -7   6 -16   10.73   49.99
  -6  -7  16   57.03   32.54
  -7  -6  16   55.22   33.28
   7   6 -16   11.91   51.83
  -7   6 -16   18.09   28.98
   6   7 -16   13.02   30.18
  -6  -7  16   59.78   45.16
   6  -7  16   88.14   39.86
  -6   7 -16  -11.29   50.35
  -7  -6  16   33.95   43.55
  -6   7 -16    5.96   28.02
   6  -7  16    8.77   28.57
   7  -6  16  -10.23   43.22
  -6  -7  17   39.36   31.76
  -7  -6  17   48.35   31.42
   6   7 -17   40.29   30.14
   7   6 -17  -24.74   53.81
   6   7 -17  -25.46   51.64
   6  -7  17   36.98   28.75
  -7   6 -17  -13.11   28.47
  -6   7 -17  -11.76   50.07
   7  -6  17   63.20   29.27
  -6  -7  17   37.14   42.41
   7  -6  17   10.72   42.49
   6  -7  17  -11.48   41.35
  -7  -6  17  -35.26   42.13
  -7   6 -17   11.23   50.32
  -6   7 -17   12.73   29.94
   7   6 -17   26.76   29.28
   7   6 -18   -6.94   19.94
  -6   7 -18  -13.23   23.57
   7   6 -18   38.50   55.33
   7  -6  18  -22.06   38.28
  -6   7 -18  -24.46   50.28
   6  -7  18   -9.62   21.22
  -7   6 -18   54.78   25.00
   7  -6  18  -38.68   24.76
  -7  -6  18  -10.03   22.61
   6   7 -18   20.83   23.90
   6  -7  18   11.67   45.51
  -7   6 -18   23.48   52.04
  -6  -7  18  -20.35   23.40
  -7  -6  18   36.58   42.68
  -7   6 -19   51.03   96.84
   7  -6  19   80.54  105.10
   6  -7  19  173.50   98.25
  -7   6 -19   61.25  105.90
  -7  -6  19  159.25   99.07
   7  -6  19  221.88   98.15
   6   7 -19  -27.19  109.19
  -6   7 -19  114.36  108.02
  -6   7 -19   -7.14   96.89
  -6  -7  19  116.29  104.83
   6  -7  19  181.80  104.19
   6  -7  20  -10.58   25.96
  -7  -6  20  -25.73   51.76
  -7   6 -20  -25.41   58.88
   7  -6  20  -11.98   47.65
   7   6 -20  -27.50   63.63
   6   7 -20  -30.32   28.48
  -6  -7  20   10.97   27.75
   7  -6  20   10.72   27.62
  -7   6 -20   -7.59   25.11
   6   7 -20   28.05   64.91
  -6   7 -20  -15.37   27.29
  -6  -7  20   26.66   49.60
   7   6 -21   14.20   89.26
  -7  -6  21  -39.84   85.41
   7   6 -21   91.00   74.15
  -7   6 -21   15.76   72.39
   6   7 -21  130.08   90.16
  -6  -7  21   34.64   75.33
   7  -6  21  111.38   73.28
  -6   7 -21   27.29   88.73
  -6  -7  21  206.01   86.47
   6   7 -21   73.04   74.41
  -7  -6  21  151.02   75.41
   6  -7  22   13.25   46.51
  -6   7 -22  -14.11   58.22
  -7  -6  22  -68.48   60.36
   6   7 -22  -41.74   31.04
   7   6 -22   -8.53   30.34
  -6   7 -22  -24.67   30.20
  -6  -7  22  -11.88   28.18
  -7  -6  22   35.93   28.88
   6  -7  22   11.60   29.67
   6   7 -22   44.63   56.46
   7   6 -22 -102.13   61.59
  -7   6 -22  -13.69   60.33
  -6  -7  22  -28.27   50.59
   6   7 -23    8.91   27.58
  -6  -7  23   14.30   50.46
   6  -7  23   13.68   44.01
   7   6 -23  -15.02   60.10
  -7  -6  23  -12.33   24.87
  -6   7 -23  -17.32   26.57
  -7   6 -23   -8.64   22.31
   7  -6  23  -11.95   22.21
   6  -7  23   48.94   29.90
  -7  -6  23   14.10   46.71
  -6  -7  23  -12.21   29.84
  -6   7 -23  131.05   61.65
   7   6 -23    8.96   26.82
   6   7 -23  107.02   61.17
  -7   6 -23   28.34   55.22
  -6  -7  24  -73.41   54.93
  -7   6 -24  -14.64   61.76
   6  -7  24  -14.10   55.94
   6   7 -24  -18.28   30.14
   7   6 -24  -30.89   63.47
   7   6 -24    9.22   27.24
  -6   7 -24   -8.93   29.84
  -7   6 -24  -18.07   28.68
   6   7 -24  -94.13   69.47
   6  -7  24  -12.61   28.66
  -6  -7  24  -12.84   27.88
  -7  -6  24  -12.95   28.69
   7  -6  24   12.35   25.17
  -6   7 -24   15.01   67.97
  -6  -7  25   65.80   68.31
  -7   6 -25  130.41   68.19
  -6  -7  25   75.25   85.24
   6  -7  25  -14.51   81.03
  -7  -6  25   26.58   66.52
   7  -6  25   25.47   64.75
   6   7 -25    9.56   66.28
   6   7 -25  128.70   90.93
   7   6 -25  206.14   89.91
  -7   6 -25   15.10   87.88
   7   6 -25   96.63   66.84
  -6   7 -25   84.41   67.61
  -6   7 -25  138.99   87.21
   6  -7  25   38.91   67.05
  -7   6 -26  -19.18   26.00
  -6  -7  26  -30.81   51.77
   6  -7  26  -66.63   29.99
   6  -7  26  -29.81   51.52
   7   6 -26   32.51   65.68
  -7   6 -26  -93.29   69.06
   7   6 -26   -9.90   28.63
  -6   7 -26   -9.63   28.27
   6   7 -26   32.94   70.29
  -6  -7  26  -13.76   25.96
  -7  -6  26   13.63   25.74
   7  -6  26   13.11   20.91
  -6   7 -26  -31.62   65.14
   6   7 -26   39.15   30.06
  -6  -7  27  126.03   66.01
   6  -7  27  -15.30   59.94
  -6  -7  27   14.07   36.85
  -6   7 -27   64.88   73.64
   7   6 -27   66.56   71.40
  -7   6 -27  -31.97   72.66
   6   7 -27   60.04   37.84
  -6   7 -27   50.03   34.93
   7   6 -27  -30.41   32.98
   6   7 -27   50.51   70.48
  -7  -6  27  -13.94   31.84
   6  -7  27   27.34   35.07
   7  -6  27   26.95   30.04
  -6  -7  28  -14.36   30.25
  -6  -7  28   16.08   63.14
   6  -7  28  -15.67   60.68
  -7   6 -28   16.00   70.13
   6   7 -28  -10.44   33.23
   7   6 -28  -20.97   27.68
  -6   7 -28  -16.62   77.87
  -7  -6  28   14.25   28.55
   6  -7  28   14.01   25.75
   6   7 -28  154.75   79.39
  -6   7 -28   10.25   27.05
   7   6 -28  -68.04   71.20
  -6  -7  29   14.65   33.76
   7   6 -29   86.84   75.57
  -6   7 -29  -20.96   30.11
   6   7 -29   35.08   69.60
  -6   7 -29   17.00   73.20
  -7   6 -29   98.35   65.71
   6   7 -29  -10.64   32.72
   7   6 -29   10.70   28.54
  -6  -7  29   16.40   60.82
  -7  -6  29   29.11   30.08
   6  -7  29   57.30   32.51
  -6  -7  30  -50.14   62.90
   7   6 -30   35.41   72.76
  -6   7 -30   69.48   69.58
   6   7 -30   35.60   74.04
   6   7 -30  -10.97   28.76
   7   6 -30   10.91   29.49
  -6  -7  30  -29.84   27.75
  -7  -6  30   74.18   25.87
   6  -7  30  -14.63   26.42
   6   7 -31  -11.16   40.44
  -6   7 -31  -17.71   77.03
   7   6 -31 -126.21   79.93
   6   7 -31 -108.63   81.51
  -6  -7  31  -30.35   39.14
  -7  -6  31  -15.10   39.67
  -6   7 -32  -72.19   97.65
  -7   7  -5   -4.10   14.34
   7  -7   5   -9.06   14.20
   7   7  -6   15.36   72.73
  -7   7  -6   -4.25   72.44
   7   7  -6  -12.03   72.91
   7   7  -7    5.29   15.90
  -7   7  -7  -13.28   14.11
   7  -7   7    4.07   13.13
   7   7  -7   -5.95   17.63
   7   7  -8    5.89   88.58
   7   7  -8  -10.96   88.60
  -7   7  -8   -9.25   88.41
  -7  -7   8  -18.65   88.54
  -7   7  -9    8.15   20.23
   7  -7   9   -8.25   18.24
  -7  -7   9   -7.62   11.19
  -7  -7   9   19.34   20.43
   7   7  -9   17.05   18.54
  -7   7  -9  -14.24   15.96
   7   7  -9  -19.20   24.21
   7   7  -9   -5.89   18.61
   7   7 -10    9.96   30.36
  -7  -7  10   -7.61   13.72
   7  -7  10   33.72   19.18
   7  -7  10   -8.64   22.33
   7   7 -10    5.79   18.41
  -7  -7  10   20.08   25.66
  -7   7 -10    4.87   18.07
   7   7 -10    5.81   20.11
  -7   7 -10  -17.08   22.10
  -7  -7  11  -15.20   18.07
   7   7 -11    5.88   20.69
  -7   7 -11    4.98   19.08
   7  -7  11   54.35   27.62
  -7  -7  11  -10.42   27.12
   7  -7  11    7.05   20.15
   7   7 -11   10.35   33.32
   7   7 -11   23.21   20.29
  -7   7 -11    8.96   27.03
  -7  -7  12  121.53   64.37
  -7  -7  12   84.26   65.90
   7  -7  12  113.98   71.15
   7  -7  12  146.46   67.16
   7   7 -12   11.94   64.30
  -7   7 -12   15.24   64.36
  -7   7 -12   28.17   71.98
   7   7 -12   10.75   72.39
  -7  -7  12  129.12   75.88
   7   7 -13  -11.16   40.73
   7   7 -13   -6.19   17.88
  -7   7 -13   15.66   17.73
  -7  -7  13   11.17   32.52
  -7  -7  13    8.72   21.67
   7  -7  13  -15.35   19.09
   7  -7  13  -29.69   28.09
  -7   7 -13  -19.68   34.48
  -7   7 -14  -10.30  133.98
  -7  -7  14  349.75  133.04
   7   7 -14  -12.50  129.96
  -7   7 -14   21.85  129.77
   7  -7  14  456.68  132.84
  -7  -7  14  250.79  135.60
   7  -7  14  325.96  134.84
   7   7 -14  -11.57  135.92
   7   7 -15  -19.07   19.98
  -7  -7  15  -23.64   37.32
  -7  -7  15   -9.30   22.75
   7  -7  15    8.37   18.64
   7  -7  15  -10.65   38.60
   7   7 -15  -12.00   44.53
  -7   7 -15  -53.84   45.42
  -7   7 -15   22.75   17.72
  -7   7 -16  -11.24   46.44
  -7  -7  16   12.24   44.64
  -7  -7  16    9.61   30.96
   7  -7  16   32.93   37.20
   7  -7  16   69.95   29.39
   7   7 -16    6.58   28.61
  -7   7 -16   12.17   26.13
   7   7 -16  -12.43   52.87
   7   7 -17  -25.73   54.16
   7  -7  17  -11.44   39.96
  -7   7 -17   35.17   51.26
   7  -7  17 -110.63   26.72
  -7  -7  17   87.55   46.38
  -7   7 -17   44.40   26.10
   7   7 -17   -6.79   24.89
  -7  -7  17    9.94   25.42
  -7  -7  18  184.96  103.46
   7  -7  18  196.11  102.79
  -7   7 -18  -12.20  111.25
  -7   7 -18  -27.43  100.54
   7  -7  19  108.88   51.05
  -7   7 -19  -50.72   67.52
   7  -7  19  -20.38   26.68
  -7   7 -19  -14.25   27.77
  -7  -7  19  -13.35   52.13
   7   7 -19   41.20   67.74
  -7  -7  20  376.67  237.03
   7   7 -20   14.16  237.88
  -7  -7  20  354.17  233.93
   7  -7  20  519.95  233.92
   7   7 -20  174.94  231.99
  -7   7 -20   99.75  231.82
   7   7 -21  -24.57   26.63
  -7   7 -21   68.17   61.06
  -7  -7  21  -23.29   27.82
   7   7 -21   29.17   54.04
  -7  -7  21   55.42   43.65
   7  -7  22  -26.90   52.06
  -7   7 -22  -14.10   60.68
   7   7 -22  -90.03   67.75
   7   7 -22   52.45   30.49
  -7   7 -22    8.39   27.26
   7  -7  22   34.81   26.99
  -7  -7  22  -11.98   27.77
  -7  -7  22  -14.25   49.76
   7  -7  23   54.74   50.98
  -7  -7  23   58.56   52.33
  -7  -7  23   25.22   27.20
   7   7 -23  -15.42   66.95
   7   7 -23   -8.98   28.89
  -7   7 -23  -17.32   27.38
   7  -7  23   12.24   26.48
  -7   7 -23   29.12   61.86
  -7  -7  24  -75.11   56.40
   7   7 -24  -63.27   70.53
   7   7 -24  -18.42   32.61
  -7   7 -24   18.24   31.26
  -7  -7  24  -25.87   31.33
  -7   7 -24   30.02   70.25
   7  -7  24  -12.61   30.22
   7  -7  24  -56.43   57.08
   7  -7  25   14.52   55.63
  -7  -7  25  -15.16   56.21
   7   7 -25   48.63   66.87
  -7  -7  25  -26.51   30.69
  -7   7 -25  -77.26   69.18
   7   7 -25  -38.54   31.06
   7  -7  25  -12.98   25.74
  -7   7 -25    9.38   29.80
   7  -7  26  -29.85   60.14
   7   7 -26   16.59   70.44
   7   7 -26   -9.86   33.94
  -7   7 -26   38.58   33.74
  -7  -7  26  139.66   63.10
  -7   7 -26 -111.16   71.48
  -7  -7  26   27.71   36.67
   7  -7  26   40.03   30.59
  -7  -7  27  -31.72   63.50
   7   7 -27  -84.77   71.41
  -7   7 -27  -32.60   68.45
   7   7 -27  -30.88   35.53
  -7   7 -27   10.02   33.61
  -7  -7  27  -14.16   32.32
  -7  -7  28  -48.57   83.25
   7   7 -28  -63.04   61.49
  -7   7 -28  -66.80   87.72
  -7  -7  28  -14.45   57.51
   7   7 -28 -103.87   96.74
   7   7 -29  -52.95   72.61
  -7  -7  29   16.51   67.24
  -7  -7  29  -29.47   35.56
   7   7 -29  -32.13   37.35
  -7  -7  30   50.42   65.09
   7   7 -30  -11.04   27.85
  -7  -7  30   15.00   22.95
   7   7 -31   44.89   38.89
  -7  -7  31   15.25   37.86
  -8   0   0  446.14  428.08
   8   0   0  493.39  427.64
   8   0   0  433.71  427.39
   8   0  -1  -10.52   16.13
  -8   0  -1    6.51   19.15
   8   0   1    5.14   15.96
  -8   0   1   12.45   17.42
   8   0  -1    4.39   11.47
   8   0   1    4.60   11.96
   8   0   2  488.14  557.54
  -8   0  -2  756.79  558.44
   8   0   2  694.84  557.85
  -8   0   2  559.82  557.99
  -8   0   3  -17.92   20.17
   8   0   3    5.12   15.67
  -8   0  -3   -6.54   19.89
  -8   0   3  -15.88    9.13
   8   0  -3   27.25   12.65
   8   0  -3   -4.17   10.60
   8   0   3   -9.63   11.18
   8   0   4   54.72  109.08
  -8   0   4   32.18  112.05
  -8   0   4   66.55  110.31
  -8   0  -4   39.48  109.51
   8   0   4   97.05  109.67
   8   0  -4  162.47  109.61
  -8   0  -4  140.67  108.70
   8   0  -4  132.51  110.39
   8   0  -4  183.60  109.72
   8   0   5   -5.09   17.05
  -8   0  -5   -7.67   13.71
   8   0   5   -5.17   19.51
   8   0  -5  -18.51   22.32
  -8   0   5   -8.23   36.85
   8   0  -5   12.08   22.96
   8   0  -5  -32.66   16.96
  -8   0  -5   -6.68   20.91
   8   0   6  -10.20  120.53
  -8   0   6  108.97  125.39
   8   0  -6  194.40  121.44
  -8   0  -6  289.19  120.76
   8   0   6  118.93  121.04
   8   0  -6  150.09  121.16
   8   0  -6  209.05  122.46
  -8   0  -6   40.48  121.10
   8   0   7   -5.12    8.51
  -8   0   7   17.08   32.37
   8   0  -7   -6.47   17.10
   8   0  -7   11.87   15.34
  -8   0  -7    5.94   10.51
   8   0  -7   -4.93   11.58
   8   0   7   -5.19   13.09
  -8   0  -7    6.78   14.30
  -8   0  -8    6.84   28.26
   0  -8   8   -9.31   30.09
   0   8  -8    5.47   28.96
  -8   0  -8   48.78   28.24
  -8   0   8    8.71   38.68
   8   0   8    5.25   29.18
   8   0  -8   67.31   29.37
   8   0  -8   33.27   30.03
   0   8  -9   -9.53   23.49
   8   0   9    5.29   14.08
   0  -8   9  -19.25   22.01
   0   8  -9   -5.65   16.87
  -8   0   9  -26.68   28.87
   8   0  -9   -5.29   12.27
  -8   0  -9   -8.00   13.30
   8   0  -9    6.79   15.46
   0   8 -10   17.55  101.95
   8   0 -10  237.57  102.78
   0  -8  10  159.44  103.90
   0   8 -10    9.87  103.64
   8   0 -10  297.08  103.88
   8   0 -10   90.59  101.98
   8   0  10   10.74  101.47
   0   8 -11  -12.12   17.41
   8   0 -11   11.37   13.86
   0  -8  11  -20.64   25.99
   8   0 -11   11.83   20.90
   8   0 -11  -14.30   15.09
   8   0  11   -5.43   16.58
   0   8 -11   30.67   28.59
   0   8 -12  -31.78  228.65
   0   8 -12    6.16  227.32
   8   0 -12   87.75  227.58
   8   0 -12 1169.51  230.91
   0  -8  12 1276.15  234.84
   0  -8  13   77.15   35.39
   0   8 -13   -6.24   19.59
   0   8 -13  -10.98   37.02
   8   0 -13   -6.93   23.65
   8   0 -13    5.95   16.15
   0   8 -14   45.51  463.15
   8   0 -14 1078.00  464.01
   0   8 -14    6.47  462.00
   0  -8  14  909.74  465.03
   8   0 -14  767.16  462.93
   0  -8  14  903.90  463.75
   0  -8  15  -27.73   26.39
   0   8 -15  -19.63   28.72
   0   8 -15  -23.57   46.17
   8   0 -15   15.59   27.67
   0  -8  15  -23.26   42.35
   8   0 -15   -6.38   18.77
   0   8 -16   -6.59   59.67
   0  -8  16   85.30   61.22
   8   0 -16   91.46   59.39
   0   8 -16 -121.98   77.53
   0   8 -17   37.85   52.54
   0  -8  17    9.80   24.35
   0   8 -17   13.36   25.55
   0  -8  17  -12.29   44.23
   0   8 -18   41.42   37.43
   0  -8  18   20.20   38.17
   0  -8  20   96.76   43.93
   0   8 -20    7.32   37.90
   0   8 -20   55.50   66.94
   0  -8  20  -13.21   53.46
   0   8 -21   30.90   28.28
   0  -8  21  -22.15   31.03
   0   8 -21   14.29   67.83
   0  -8  21  -13.61   51.86
   0   8 -22   -7.94   23.26
   0  -8  22   34.57   28.15
   0   8 -22  -58.82   63.44
   0  -8  22  -28.00   44.19
   0   8 -23   45.33   67.85
   0   8 -23   25.45   31.56
   0  -8  23   11.84   32.65
   0  -8  23  -14.39   56.90
   0  -8  24  413.44  165.42
   0   8 -24   62.03  168.08
   0  -8  24   99.34  158.07
   0   8 -24  147.98  157.34
   0  -8  25  -29.82   58.50
   0   8 -25  -27.78   36.97
   0  -8  25  -25.46   37.32
   0   8 -25  -15.90   69.05
   0  -8  26   61.07  100.02
   0   8 -26  113.76   91.41
   0   8 -26  179.04  114.18
   0  -8  26   53.41   91.98
   0  -8  27  -15.61   59.17
   0   8 -27  -66.58   72.32
   0   8 -27   -9.90   35.38
   0  -8  27  -13.65   30.47
   0  -8  28   63.78   87.59
   0   8 -28  170.04   94.97
   0   8 -28   50.52   68.59
   0  -8  28   56.98   66.80
   0  -8  29   81.35   86.13
   0   8 -29  -86.73   98.08
   0  -8  29 -159.82   69.43
   0   8 -29  -20.62   65.17
   0  -8  30  -33.16   72.86
   0   8 -30  -42.90   48.96
   0   8 -30  -53.02   81.92
   0  -8  30  -29.61   46.73
   0  -8  31  -50.61   65.22
   0   8 -31  -89.95   74.61
   0   8 -31  -10.91   31.21
   0  -8  31   15.06   28.14
  -8  -1   0  310.90  228.37
  -8   1   0  233.46  228.57
  -8   1   0  235.51  227.62
   8  -1   0  227.76  227.14
   8   1   0  280.80  227.42
   8  -1   0  270.46  227.07
   8   1   0  184.32  226.91
   8  -1  -1  964.54  710.80
  -8  -1   1  705.20  710.27
   8   1  -1  846.21  710.25
  -8   1  -1  739.54  711.12
  -8   1  -1 1256.40  711.91
   8  -1   1  772.66  710.94
   8   1   1  585.84  710.78
  -8  -1   1 1346.18  711.68
  -8  -1  -1  686.79  711.11
  -8   1   1  424.42  710.79
  -8   1   1  726.43  711.52
   8   1   1  426.58  710.55
  -8  -1   2   54.80   64.68
   8  -1   2   86.06   63.18
   8   1  -2   77.48   62.27
  -8  -1   2   80.56   61.15
   8  -1  -2   61.79   63.10
  -8   1  -2  129.64   65.51
   8   1  -2   62.65   60.99
   8   1   2   31.99   62.53
  -8   1   2   47.43   66.24
   8  -1  -2   76.09   62.25
   8  -1   2   43.03   61.98
  -8  -1  -2   33.89   64.30
   8   1   2   35.91   61.87
   8   1   3   31.49  199.86
  -8  -1   3  334.17  199.99
   8   1  -3  308.93  199.86
  -8  -1   3   -2.64  199.72
   8  -1  -3  274.82  199.93
  -8  -1  -3  213.19  200.96
   8  -1  -3  259.93  200.43
   8   1   3   74.51  200.17
   8   1  -3  227.36  200.87
  -8   1  -3  218.47  201.30
  -8  -1   3  313.52  201.59
   8  -1   3  310.33  200.99
   8   1  -3  299.10  200.65
   8  -1   3  312.60  200.49
   8   1  -3   -5.24  199.81
  -8  -1   4  150.86   86.12
   8   1   4   10.52   80.91
   8  -1   4  253.00   83.61
   8   1  -4  153.28   83.07
   8  -1  -4  161.69   81.34
  -8  -1  -4  118.16   83.06
  -8  -1   4  101.02   80.98
  -8  -1   4  -15.61   81.71
   8   1   4   37.33   81.96
  -8  -1   4  252.35   85.19
   8  -1  -4  151.29   82.50
   8   1  -4  144.11   81.07
   8  -1   4   22.01   80.72
   8   1  -4  251.60   82.93
  -8   1  -4  113.18   83.50
   8   1  -4  -12.66   82.55
  -8   1  -4   -4.67   80.85
   8  -1   4  164.25   82.27
  -8   1  -5  101.64   31.74
  -8  -1  -5   -6.98   19.59
   8   1   5  -10.56   14.21
   8   1  -5  -15.59   15.64
   8   1  -5   37.36   26.51
  -8  -1   5    8.04   40.15
   8   1   5   21.52   20.79
  -8   1   5  125.35   40.90
  -8   1  -5    2.21   17.80
   8  -1  -5    8.08   16.40
   8  -1  -5    6.32   21.42
  -8  -1   5   -6.25   15.23
  -8  -1   5   49.07   29.57
   8   1  -5   17.01   23.46
   8  -1   5   -4.94   20.99
   8  -1  -5    9.92   18.02
   8   1  -5    9.27   19.06
   8  -1   5   -9.67   16.69
  -8  -1  -6   28.14   56.18
  -8  -1   6   41.28   65.60
   8   1  -6  124.31   58.20
   8  -1  -6   70.89   56.05
   8   1  -6   47.37   59.10
  -8   1  -6   80.50   56.15
   8  -1  -6  102.02   56.10
  -8   1   6  -34.12   62.97
  -8  -1   6  136.89   59.16
   8  -1   6   19.74   55.78
  -8  -1   6   18.06   55.25
   8   1  -6   79.85   55.07
   8  -1   6   84.22   57.35
   8   1   6  -10.83   56.48
  -8   1  -6   51.11   57.88
   8  -1  -6   19.52   56.21
   8   1  -6   99.46   56.50
   8  -1   7   94.07   63.19
   8  -1  -7  149.25   63.12
   8   1  -7  111.65   64.43
  -8   1   7   -8.71   68.07
   8  -1   7    4.93   61.56
   8   1  -7  105.14   64.41
   8   1  -7   83.81   61.68
   8  -1  -7  140.81   62.55
  -8  -1   7  113.53   65.71
  -8  -1   7   33.78   68.96
   8   1   7   -5.48   62.50
  -8  -1  -7    7.10   61.55
  -8  -1   7   24.66   61.38
   8   1  -7   76.98   62.30
  -8   1  -7   32.39   62.61
  -8   1  -7  101.29   62.72
   8  -1  -7   20.03   62.81
   1  -8   8    9.22  107.74
   8   1  -8  233.41  108.61
   8  -1   8   -4.94  106.68
  -8   1  -8   45.81  107.42
   1   8  -8   33.16  107.45
  -1   8  -8  -10.83  107.22
  -8  -1   8   34.36  110.75
  -8   1  -8  321.47  108.28
   8  -1  -8  383.86  108.44
   8  -1   8  155.59  108.11
  -8  -1   8   50.73  106.76
   8   1  -8  251.78  107.39
   8   1   8   -5.54  107.18
   8  -1  -8   75.07  107.53
   8   1  -8  336.19  108.51
   8  -1  -8  108.98  107.91
  -8   1  -9  -13.16   91.58
   1  -8   9   28.61   92.62
   1   8  -9    5.71   91.92
  -1   8  -9   -5.60   91.79
  -8   1  -9  238.45   92.87
   8  -1  -9   49.05   91.83
   8  -1   9  115.85   92.60
   8  -1  -9  195.06   92.78
   8   1  -9  228.20   92.68
  -8  -1   9    8.75   95.31
   8   1  -9  152.61   93.31
   8   1  -9  161.82   93.95
  -1   8  -9   -9.44   92.88
  -8   1 -10  -13.25  104.58
   8   1 -10  277.46  105.53
   1   8 -10  -17.72  105.40
  -1   8 -10  -11.59  105.18
   1  -8  10  148.14  107.85
   8   1 -10  239.09  107.67
  -1   8 -10    9.78  107.21
  -8  -1  10   17.83  108.23
   8  -1 -10  204.36  105.85
  -8  -1  10    5.62  104.25
   8  -1 -10  345.49  106.79
   8  -1 -10   28.68  104.90
   8   1 -10  156.80  106.48
   8   1 -10  293.81  106.23
   8  -1  10   60.67  105.63
   1  -8  11  767.49  242.69
   8   1 -11  500.78  239.08
   1   8 -11   -6.11  238.50
  -1   8 -11   -6.01  238.41
   8   1 -11  118.19  238.88
  -8  -1  11   63.66  239.85
  -8   1 -11  825.68  240.39
   8   1 -11  676.62  241.03
  -1   8 -11  -20.27  239.67
   8  -1  11  147.74  238.62
   8   1 -11  788.59  240.05
   8  -1 -11  448.29  239.38
  -8  -1  11   24.50  238.07
   1   8 -12    6.21   92.15
  -1   8 -12   -6.11   92.09
  -1   8 -12   21.02   96.35
  -8   1 -12  207.90   93.41
   8  -1  12   20.67   91.82
   8  -1 -12  110.17   92.40
   8   1 -12   35.64   91.83
   8   1 -12  284.44   93.37
   8   1 -12  327.74   95.82
  -8  -1  12   26.51   91.08
   1  -8  12  390.37   98.09
  -1   8 -13   21.79  158.35
   1   8 -13   -6.30  154.97
  -1   8 -13  -12.39  155.03
  -8   1 -13 1212.74  160.55
   8   1 -13  967.48  160.98
   8   1 -13   43.86  154.76
   8  -1  13   31.34  154.67
   1  -8  13 1083.05  166.25
  -1  -8  14   72.13   52.81
   1  -8  14  106.67   52.61
   1   8 -14   -6.52   49.45
  -1   8 -14   -6.28   49.58
   8   1 -14  139.64   54.11
  -8   1 -14  104.64   51.45
   1  -8  14  122.69   58.90
   8   1 -14   -7.47   48.19
   8  -1  14    5.32   48.28
   8   1 -14  126.82   49.93
  -1   8 -14   11.30   58.98
  -1  -8  15  698.07  265.18
   1  -8  15  339.81  264.04
   1   8 -15  -13.19  262.69
  -1   8 -15   -6.50  262.38
   1  -8  15  901.40  267.75
  -8   1 -15  690.36  264.63
   8   1 -15  437.76  265.21
  -1   8 -15  -70.24  268.50
   8   1 -15  553.91  263.46
  -1  -8  16   47.70   69.62
   1  -8  16   75.38   70.60
   1   8 -16   39.78   69.63
  -1   8 -16  -19.63   69.08
  -1   8 -16  -48.49   81.88
  -8   1 -16  218.73   72.19
   1  -8  16  141.80   77.83
   8   1 -16  138.60   69.00
   8   1 -16   70.05   72.93
  -1   8 -17  -62.71   57.31
   1  -8  17   19.50   26.92
   1   8 -17  -34.27   26.61
  -1   8 -17   26.57   26.34
   8   1 -17  -12.70   21.26
   8   1 -17    9.25   34.77
   1  -8  17   61.13   41.72
  -1  -8  18  193.02   91.59
  -1   8 -18    6.87   88.44
   8   1 -18  181.91   88.88
   1  -8  18  130.69   91.00
   1   8 -18  -13.89   89.02
   8   1 -18  126.49   92.97
   8   1 -19  -10.21   36.95
   8   1 -19   -6.65   19.79
   1   8 -20   36.79   53.58
  -1   8 -20   -7.29   52.94
  -1  -8  20  172.83   57.05
  -1   8 -20   41.44   73.49
   1  -8  20   78.94   66.42
  -1  -8  20   26.56   66.45
  -1   8 -21   46.15   36.61
  -1  -8  21   22.24   35.28
  -1   8 -21  170.79   74.05
   1   8 -21    7.76   35.92
   1  -8  21  -11.16   36.08
  -1  -8  21   13.67   56.65
   1  -8  21   40.67   53.06
   1   8 -22  -88.63   60.06
  -1   8 -22   29.29   69.79
   1   8 -22   15.96   38.18
  -1  -8  22   57.85   38.68
   1  -8  22   68.90   38.53
  -1   8 -22   39.58   38.88
  -1  -8  22  -56.24   56.64
   1  -8  22   27.90   56.67
  -1   8 -23   -8.45   37.86
  -1  -8  23   83.19   38.52
   1   8 -23  -60.70   69.14
   1  -8  23   12.06   35.97
   1   8 -23   51.10   37.61
  -1   8 -23  150.56   67.97
  -1  -8  23  -28.89   53.40
   1  -8  23   14.34   53.10
  -1   8 -24  -17.35   31.28
   1  -8  24  -14.73   50.81
   1   8 -24   17.47   30.14
  -1   8 -24   15.46   66.59
  -1  -8  24  112.13   36.90
   1  -8  24   37.15   32.01
   1   8 -24   46.71   65.88
  -1  -8  24  -88.92   58.31
   1  -8  25  386.61  162.83
   1   8 -25  143.61  163.52
  -1   8 -25   46.17  149.99
  -1  -8  25  204.28  151.39
   1  -8  25  177.76  150.54
  -1   8 -25  190.24  162.34
   1   8 -25  204.45  150.22
  -1  -8  25   14.96  156.51
  -1  -8  26  -15.31   55.68
   1  -8  26  -15.23   53.14
  -1  -8  26  -13.39   28.76
  -1   8 -26  -48.71   71.77
   1   8 -26   38.05   27.88
  -1   8 -26  -18.91   29.05
   1  -8  26  -13.32   28.62
   1   8 -26  -48.99   69.81
  -1  -8  27   78.27  120.09
   1  -8  27   15.58  118.87
   1   8 -27  148.89  108.10
  -1   8 -27   98.72  107.85
   1  -8  27  109.02  108.61
  -1   8 -27   16.61  123.99
  -1  -8  27  136.92  110.11
   1   8 -27  166.97  126.78
  -1  -8  28  -31.97   82.76
   1  -8  28   63.68   79.28
  -1  -8  28  157.02   70.09
  -1   8 -28   33.94   90.84
   1   8 -28   30.40   66.53
  -1   8 -28   90.74   67.89
   1  -8  28   28.44   65.93
   1   8 -28   68.21   94.08
  -1  -8  29   48.91   66.87
   1  -8  29  -64.98   68.28
   1   8 -29  -34.78   81.72
   1   8 -29   30.99   30.30
  -1   8 -29  -10.51   29.25
  -1  -8  29  -14.56   30.56
   1  -8  29  -29.02   36.44
  -1   8 -29  -34.63   82.13
  -1  -8  30   49.82   62.03
   1  -8  30  -99.33   70.17
  -1   8 -30  -52.94   76.09
   1   8 -30   17.71   78.53
   1   8 -30   21.50   28.47
  -1  -8  30   14.83   34.15
   1  -8  30   29.57   30.47
  -1   8 -30  -42.83   30.81
   1   8 -31   72.11   73.31
  -1  -8  31   84.50   62.30
   1  -8  31  -33.70   60.16
   1  -8  31  -15.05   28.91
  -1  -8  31  -30.18   29.80
   1   8 -31  -10.93   31.34
  -1   8 -31  -10.90   28.73
  -1   8 -31   17.96   75.78
   1  -8  32   15.30   31.56
  -8   2   0  904.58 1249.45
   8  -2   0 1794.47 1249.56
  -8  -2   0 2207.86 1250.11
   8  -2   0 2260.33 1249.48
   8   2   0  563.32 1248.96
   8   2  -1  217.48  149.28
   8   2   1   27.46  148.67
   8   2   1   43.34  148.52
  -8   2   1   31.49  150.68
   8   2  -1    3.20  148.11
  -8  -2   1  559.92  152.54
   8  -2  -1  357.34  149.98
   8  -2   1  615.31  150.96
  -8   2  -1  244.28  149.77
   8   2  -1  220.49  149.51
   8  -2  -1  481.06  149.86
  -8   2  -1  243.28  151.70
  -8  -2  -1  467.88  151.68
  -8   2  -2  736.06  282.20
   8   2   2   21.71  279.09
  -8  -2  -2  673.40  281.31
   8   2  -2  231.64  279.16
   8  -2  -2  552.31  280.52
   8   2   2   38.71  279.40
  -8   2   2   64.22  280.42
   8  -2   2  802.80  280.87
  -8  -2   2  919.55  281.91
  -8   2  -2  493.48  280.36
   8   2  -2  338.97  280.09
   8   2  -2  611.69  280.41
   8   2   3   32.69   40.34
  -8  -2   3   89.72   45.53
  -8  -2   3   47.55   39.69
   8  -2  -3    4.86   40.24
   8   2  -3   32.79   42.56
   8   2  -3   58.19   39.82
  -8   2  -3  -21.75   51.09
   8  -2  -3   24.97   41.37
   8   2   3    5.55   41.75
   8  -2   3   56.05   41.73
  -8   2   3   -8.19   50.52
  -8   2  -3   76.86   44.62
   8  -2   3   54.15   40.63
   8   2  -3   56.86   41.82
  -8  -2  -3   57.55   43.01
  -8  -2  -4   50.72   43.79
   8   2  -4  -19.12   44.97
   8  -2   4  -19.87   40.85
  -8  -2   4   34.68   46.25
  -8  -2   4  204.27   42.22
   8   2  -4  172.19   41.72
  -8   2  -4 -124.46   41.63
  -8   2  -4  -12.21   40.15
  -8   2  -4  151.58   50.97
   8   2  -4  148.92   45.92
  -8  -2   4  312.84   52.31
   8   2   4  -11.22   42.68
  -8   2  -4  358.12   57.59
   8  -2   4    1.67   39.97
   8  -2  -4   76.71   42.94
   8  -2   4  157.64   45.10
   8  -2   4  205.19   43.33
   8   2  -4   98.42   43.06
  -8  -2  -5  102.37  144.24
   8   2  -5  -64.64  146.01
   8   2  -5  380.08  144.23
  -8  -2   5  422.81  144.57
  -8  -2   5  -47.49  145.29
   8  -2   5  -35.52  144.25
   8  -2   5  346.29  145.94
  -8  -2   5  626.54  148.25
   8   2  -5  333.96  145.57
  -8   2  -5  166.36  146.21
   8   2   5   11.30  143.97
   8  -2  -5  224.78  144.76
   8  -2   5    2.18  143.44
   8   2  -5  317.78  144.98
   8  -2   5  230.05  145.07
   8   2  -6  163.01   72.76
   8   2  -6  107.08   72.03
  -8  -2   6  302.23   77.12
   8   2  -6   28.95   74.25
   8  -2  -6    6.70   72.52
   8  -2   6   -2.69   71.21
   8   2  -6   62.04   73.30
  -8  -2   6  245.16   78.69
   8  -2   6  193.10   74.09
  -8  -2   6   -4.69   73.13
  -8   2  -6   36.68   73.52
   8  -2  -6   65.69   72.52
   8  -2   6   51.51   72.54
  -8  -2   6   86.78   72.03
  -8   2  -6    3.19   72.80
   8  -2   6  109.38   72.65
   8  -2   7  356.57  491.91
  -8  -2   7  599.66  492.11
  -8  -2   7  786.12  493.49
   8  -2  -7  403.41  492.11
   8   2  -7  560.30  492.37
   8  -2   7  983.76  492.61
  -8   2  -7  320.82  492.16
  -8   2  -7  417.06  492.11
   8  -2  -7  282.07  492.01
  -8  -2   7 1179.58  493.46
   2  -8   8    9.14   14.26
   8   2  -8   -6.09   17.30
   8  -2   8   -9.56   12.61
  -2  -8   8    9.52   16.06
   2   8  -8   -5.59   15.29
  -2   8  -8    5.36   14.90
  -8  -2   8   16.97   30.86
   8   2  -8    4.84   11.95
   8  -2   8   -4.77   15.49
   8  -2  -8   -5.74   13.53
  -8   2  -8   18.86   18.07
  -8  -2   8   27.33   20.82
  -8   2  -8   38.71   19.10
   8  -2  -8    7.04   14.07
  -8   2  -9  742.95  238.49
   8  -2   9   -9.55  236.36
   2   8  -9    9.74  237.29
   2  -8   9  113.44  237.26
  -8  -2   9  652.58  237.96
  -2  -8   9  275.24  238.00
   2   8  -9    5.77  236.66
  -2   8  -9   -5.55  236.57
  -8   2  -9   37.99  236.71
   8   2  -9  433.68  237.79
   8   2  -9  733.76  237.64
   8   2  -9  352.79  238.28
   8  -2   9  909.56  238.65
   8  -2  -9  196.15  237.29
  -8  -2   9  707.56  239.14
  -8  -2   9  416.42  239.48
  -2   8  -9    9.35  237.24
  -2   8 -10  -22.99  182.15
   8  -2  10   -9.55  181.64
  -8  -2  10  502.19  183.25
  -8  -2  10   97.00  184.46
   2   8 -10  -23.87  182.23
   2  -8  10  244.86  183.91
  -2  -8  10  508.26  186.23
   8   2 -10  541.64  185.37
   8  -2  10  695.00  184.08
  -8  -2  10  606.84  185.05
   8   2 -10  375.95  183.50
  -2   8 -10  -29.07  183.16
   8   2 -10  517.84  183.48
   2   8 -10   10.07  183.01
  -8   2 -10    6.34  181.83
  -8   2 -11   44.58  316.64
  -8  -2  11  516.56  317.74
   8   2 -11  617.84  317.64
   2   8 -11   -6.18  317.01
  -2   8 -11   23.83  316.98
   8   2 -11  719.78  319.17
   2  -8  11  538.15  318.72
  -2  -8  11  557.39  319.29
  -8   2 -11  525.48  318.20
   8  -2  11  802.51  317.96
  -2   8 -11  -30.16  317.60
  -8  -2  11  515.68  318.21
   2   8 -11   31.27  317.73
   8   2 -11  190.72  317.35
   8   2 -11  731.48  317.91
  -8  -2  11   26.91  317.99
   8   2 -12  813.11  385.48
  -2   8 -12  -31.29  383.75
  -8  -2  12  507.60  383.31
   2   8 -12    6.27  382.64
  -2   8 -12  -12.13  382.62
   8   2 -12  153.84  382.89
  -8  -2  12  -18.27  383.81
   2   8 -12  -21.58  383.61
   8  -2  12  893.80  383.70
   8   2 -12 1114.99  384.01
   2  -8  12 1057.91  386.11
  -8  -2  12  756.90  384.08
  -8   2 -12 1027.37  384.77
  -2  -8  12 1169.29  386.80
  -8  -2  13   -9.31  150.54
  -8  -2  13  168.85  148.75
   2   8 -13   19.06  148.90
  -2   8 -13    6.15  148.68
  -2  -8  13  291.42  152.88
   8  -2  13  172.01  148.79
   2  -8  13  369.45  152.56
   8   2 -13  328.36  151.93
   8   2 -13  309.87  148.99
  -8   2 -13  331.13  151.13
  -2   8 -13   21.64  152.27
   8   2 -13   42.95  148.83
   2   8 -13   11.18  151.73
   8   2 -13  232.54  149.02
   2   8 -14  -34.70  375.18
  -2  -8  14 1154.50  377.01
   8   2 -14 1223.65  375.53
  -2   8 -14   24.94  373.80
   8   2 -14 1382.45  377.71
  -8   2 -14 1175.20  376.56
   2  -8  14 1130.86  376.76
   2   8 -14  -19.72  373.80
   8   2 -14   -7.30  373.61
  -2   8 -14   11.22  374.96
  -8  -2  14  172.07  373.93
  -2  -8  14 1437.79  379.90
   2  -8  14 1374.51  378.53
  -8   2 -15  260.74  211.12
   2  -8  15  292.27  211.87
   2   8 -15   93.06  210.14
  -2   8 -15   96.95  210.27
  -2   8 -15  151.27  217.53
  -2  -8  15  375.16  211.32
   2   8 -15  347.10  218.68
   8   2 -15  307.88  212.30
   8   2 -15  360.57  209.93
  -2  -8  15  684.75  215.63
  -8  -2  15   58.10  209.03
   8   2 -15  297.27  209.98
   8   2 -15   14.95  209.31
   2  -8  15  528.58  215.76
  -2   8 -16   60.28  214.86
  -2  -8  16  326.72  212.88
   2  -8  16  440.59  213.48
   2   8 -16  -13.36  211.07
  -2   8 -16  -19.53  211.17
  -8   2 -16  565.56  214.03
  -2  -8  16  720.25  217.82
   8   2 -16  421.22  215.21
  -8  -2  16   17.54  210.45
   8   2 -16  435.13  211.91
   8   2 -16  355.28  211.73
   2  -8  16  523.79  216.27
   2   8 -16   99.02  214.74
  -2  -8  17  387.19  193.93
   2  -8  17  368.75  193.50
   2   8 -17   20.71  191.35
  -2   8 -17  -13.22  191.63
  -2   8 -17   24.96  196.13
   8   2 -17  262.23  195.21
  -8   2 -17  245.83  193.48
   2   8 -17  -12.79  198.00
  -2  -8  17  460.87  196.44
   2  -8  17  705.71  198.68
   8   2 -17  258.56  191.52
   8   2 -17  339.23  191.84
  -8  -2  17   36.96  190.79
  -2  -8  18  -40.89   30.18
  -2   8 -18    6.83   24.10
   2  -8  18  -10.01   26.56
   8   2 -18   20.42   39.34
  -8   2 -18   -8.98   32.93
   2  -8  18  -25.17   45.47
  -2   8 -18  -25.81   49.19
  -8  -2  18   19.41   16.34
   8   2 -19  224.54  190.99
  -8   2 -19  312.88  189.22
  -2  -8  19  132.62  191.33
   2   8 -19   40.86  193.18
  -2  -8  20  -10.86   24.64
  -2   8 -20   68.79   59.37
   2   8 -20  -42.10   59.86
   8   2 -20   11.17   40.83
  -8   2 -20  -19.94   36.48
   2   8 -20   22.20   23.99
  -2  -8  20   13.35   50.31
   2  -8  20  -13.11   39.61
  -2   8 -21    7.67   72.26
   2   8 -21   14.44   92.82
   2  -8  21  111.25   73.96
   2   8 -21   23.42   72.45
  -2   8 -21   42.55   92.94
  -2  -8  21  167.70   77.00
  -2  -8  21  219.88   91.35
   2  -8  21  108.09   87.61
   2  -8  22   13.91   45.64
  -2   8 -22  -16.39   27.93
  -2   8 -22   14.60   56.92
  -2  -8  22   11.63   26.17
   2  -8  22   11.45   26.83
   8   2 -22  -36.25   45.78
  -2  -8  22   28.26   52.34
   2   8 -22   14.85   58.69
   2   8 -22   -8.02   25.54
   2   8 -23   34.24   40.89
  -2   8 -23    8.43   39.85
   2   8 -23   15.25   62.38
  -2   8 -23   15.01   67.54
  -2  -8  23   59.70   41.00
   2  -8  23   60.16   42.96
   8   2 -23  -12.52   53.70
  -2  -8  23  -14.51   57.82
   2  -8  23   85.82   59.80
   2  -8  24  117.55  147.67
   2   8 -24   87.78  140.72
   2   8 -24   62.57  150.88
  -2   8 -24   44.92  140.63
  -2   8 -24   92.52  152.34
  -2  -8  24  337.83  142.86
   2  -8  24  296.58  142.85
  -2  -8  24  104.18  148.24
  -2  -8  25   60.99   59.80
   2  -8  25  -29.68   60.88
  -2   8 -25  -79.08   81.15
   2   8 -25    9.33   39.61
  -2   8 -25   82.91   42.63
   2  -8  25   77.91   42.12
   2   8 -25  -48.07   77.33
  -2  -8  25   12.82   40.56
   2  -8  26   60.83  154.52
  -2  -8  26  174.71  145.64
   2   8 -26  262.38  158.85
  -2   8 -26   64.82  156.85
   2   8 -26  114.59  144.23
  -2   8 -26   28.31  143.89
   2  -8  26  478.94  149.34
   2  -8  27  -15.56   71.17
   2   8 -27   29.27   49.79
  -2   8 -27   68.97   52.13
  -2  -8  27   54.94   55.40
  -2   8 -27  -33.16   79.88
   2  -8  27   81.67   53.03
   2  -8  28   15.90   73.90
  -2   8 -28  135.53   87.46
   2   8 -28   71.16   54.27
  -2   8 -28   40.28   51.02
  -2  -8  28   42.96   51.11
   2  -8  28   14.20   51.40
   2  -8  29  -81.15   82.34
  -2  -8  29   14.60   41.08
   2   8 -29   31.10   42.27
  -2   8 -29   41.98   42.35
   2  -8  29  -14.49   43.00
   2  -8  30  -33.09   58.59
   2  -8  30  -29.55   27.59
  -2   8 -30   17.63   81.53
   2   8 -30   64.68   33.22
  -2   8 -30  -21.40   31.47
  -2  -8  30   14.87   26.02
   2  -8  31   16.84   64.19
  -2   8 -31  -53.83   80.02
   2   8 -31   87.73   36.44
  -2   8 -31  -10.89   32.61
  -2  -8  31   30.24   38.02
   2  -8  31  -15.04   33.15
  -2   8 -32  -22.41   29.27
   2  -8  32   15.29   27.85
   8   3   0  -11.21  100.21
   8  -3   0  191.98  102.34
  -8  -3   0  206.92  102.72
   8   3   0   28.55  100.85
  -8   3   0    7.88  104.67
   8  -3   0  303.46  102.08
  -8   3   1  -24.15   69.56
   8   3  -1   44.77   62.31
   8   3   1    5.63   61.73
  -8   3  -1   -6.92   61.24
   8   3  -1   96.46   63.96
  -8   3  -1  131.26   75.45
  -8  -3  -2   37.34   45.32
   8  -3   2  194.55   51.28
   8   3  -2   16.79   44.56
   8  -3   2  119.78   46.42
   8   3  -2   -2.34   43.54
  -8   3  -2   22.10   43.20
   8   3  -2   34.11   46.86
  -8   3   2  106.96   55.49
   8  -3  -2  132.12   48.39
   8   3   2   -5.79   45.32
   8  -3  -2   60.28   45.30
  -8  -3   2  138.97   50.85
   8   3  -3  301.41  271.96
  -8   3  -3  227.88  272.54
  -8  -3  -3  399.23  272.59
  -8   3  -3  247.24  271.22
   8   3  -3   65.51  271.21
  -8   3  -3  -81.82  274.13
   8  -3   3  908.65  273.86
   8  -3   3  605.11  272.26
   8   3  -3  250.58  272.25
   8  -3  -3  436.68  272.23
   8  -3  -3  360.37  272.35
  -8  -3   3  982.33  274.67
   8  -3   4  133.79   72.11
   8  -3   4  127.71   70.14
   8  -3  -4   79.35   71.45
  -8   3  -4   36.40   69.85
   8   3  -4   80.48   70.36
   8   3  -4   11.30   71.47
  -8  -3   4  165.34   73.91
   8  -3  -4   80.77   70.94
  -8   3  -4   16.44   72.76
   8  -3   4  112.09   71.28
  -8   3  -4   14.63   77.56
   8   3  -4  110.00   71.41
  -8  -3   4   -9.30   70.33
  -8   3  -5   -7.15   30.79
   8   3  -5   20.10   19.55
   8  -3   5   -3.23   11.69
  -8  -3   5   11.79   13.79
  -8  -3   5  -20.26   15.86
   8   3  -5   30.71   13.47
   8   3  -5   11.29   19.20
  -8   3  -5   17.31   20.59
  -8   3  -5   -9.59   12.87
   8  -3   5   16.23   14.68
  -8  -3   5   28.91   22.42
   8  -3  -5    5.58   16.43
   8  -3   5    2.52   11.01
   8  -3   5   -5.11   18.22
  -8   3  -5    3.48   11.16
   8   3  -5   32.03   16.10
   8  -3   6  260.14  151.68
  -8  -3   6  437.39  154.69
  -8  -3   6  267.24  152.12
   8   3  -6  195.18  151.70
   8  -3   6  230.27  152.41
   8  -3   6    3.72  151.41
  -8   3  -6  310.52  154.37
  -8   3  -6  147.69  152.87
   8   3  -6  136.68  152.32
   8  -3  -6   40.01  151.45
   8  -3   6  325.92  152.23
  -8   3  -6   71.13  151.20
  -8   3  -6    3.71  151.57
   8   3  -6  188.18  152.07
  -8   3  -7    4.25   17.68
  -3   8  -7   25.73   15.56
   8   3  -7   -5.13   14.40
   8  -3   7   -4.84   15.26
  -8  -3   7   -7.23   24.12
  -8   3  -7  -12.43   10.95
   8  -3   7    3.51    9.74
   8  -3   7   -4.20   16.25
   8   3  -7  -11.52   16.58
  -8   3  -7  -17.98   22.02
   8  -3   7    4.22   11.12
  -3  -8   8   19.26  278.40
   8   3  -8   -6.46  278.88
   3   8  -8   11.32  278.30
  -3   8  -8   -5.32  278.23
  -8   3  -8 1371.49  282.19
  -8  -3   8 1583.08  284.26
  -8  -3   8  257.35  279.17
  -8   3  -8  172.40  278.14
   8   3  -8  628.28  279.62
  -8   3  -8  319.33  279.24
   8  -3   8  512.43  278.93
  -8  -3   8 1430.93  282.64
  -8   3  -8  216.78  278.91
   8  -3   8  674.25  279.46
   3  -8   8   27.17  278.21
   8  -3   9   45.40   60.09
  -8  -3   9   97.01   61.36
   3  -8   9    9.37   61.28
  -3  -8   9    9.94   62.09
   3   8  -9    9.85   62.69
   3   8  -9   -5.84   61.03
  -3   8  -9   -5.50   61.00
  -8  -3   9  165.02   65.41
   8   3  -9  132.09   60.70
   8   3  -9   34.87   63.99
  -8   3  -9   16.08   59.49
   8  -3   9   49.99   59.80
   8   3  -9   66.18   62.16
   8  -3   9  135.00   61.84
  -3   8  -9  -18.55   63.13
  -8   3  -9   78.38   62.30
  -8  -3   9  137.91   69.22
  -8  -3   9   46.39   64.16
   8   3  -9  140.08   60.88
   8  -3  10   32.32  193.63
  -8  -3  10  492.82  195.34
   8   3 -10  446.63  194.78
   3   8 -10   -6.04  194.13
  -3   8 -10   -5.70  194.10
  -3  -8  10  205.55  195.90
   3  -8  10  165.20  195.63
   3   8 -10  -10.19  194.90
  -8   3 -10  226.47  195.94
  -8  -3  10  238.73  195.51
   8   3 -10  276.07  195.01
  -8  -3  10  485.06  196.13
   8   3 -10  210.16  195.92
   8  -3  10  424.74  194.93
   8   3 -10  451.09  195.02
  -3   8 -10   57.68  194.93
  -8   3 -10   -6.08  193.94
  -8  -3  10  358.03  197.68
   8  -3  11    4.60  236.32
  -8  -3  11 1150.13  239.78
  -3   8 -11   -5.91  236.84
  -3  -8  11  807.70  241.30
  -8   3 -11  850.09  239.94
   3   8 -11  -21.07  237.93
   3   8 -11   -6.24  236.90
  -8  -3  11  553.03  240.91
   8   3 -11  633.28  239.97
   8  -3  11 1609.33  240.13
  -8  -3  11 1461.88  242.04
   8   3 -11  183.80  237.71
  -3   8 -11    9.98  237.62
   3  -8  11  655.17  241.10
  -8   3 -11   56.00  236.44
  -8   3 -11   -6.11  236.55
   8  -3  11  293.48  237.02
   3   8 -12  -32.71  142.02
   8   3 -12  256.78  143.94
   8   3 -12  260.59  139.94
   8  -3  12   12.07  138.74
  -3  -8  12  208.95  142.89
   3   8 -12    6.34  139.73
  -3   8 -12   18.07  139.62
  -3   8 -12  -41.42  142.78
  -8   3 -12  236.88  142.79
  -8   3 -12   -8.83  138.80
  -8  -3  12  404.77  141.13
   8   3 -12   27.55  140.08
  -8  -3  12   63.41  143.58
  -8  -3  12  383.73  142.37
   8  -3  12  384.72  140.50
   8   3 -12  364.35  140.35
   3  -8  12  251.12  142.95
   8   3 -13 1234.75  492.45
   3  -8  13 1498.78  492.33
  -8  -3  13 1405.95  491.65
   8   3 -13 1263.25  490.93
  -3   8 -13    6.11  489.51
  -8   3 -13 1671.64  492.62
   3   8 -13   -6.42  489.59
  -8   3 -13   90.86  489.38
  -8  -3  13 1563.35  492.22
   8   3 -13 1997.71  491.61
  -8  -3  13   55.24  490.20
   8  -3  13  196.22  489.55
   3   8 -13   22.57  490.49
   8   3 -13  293.98  489.94
  -3  -8  13 2070.86  495.32
   3  -8  13 2267.99  495.05
  -3   8 -13  -32.25  490.29
   3   8 -14   23.35  110.72
  -3   8 -14  -22.31  111.19
  -3  -8  14  220.11  107.60
   3  -8  14  175.24  107.72
   3   8 -14   -6.64  105.82
  -3   8 -14  -12.40  106.29
   8   3 -14  236.47  106.08
   8   3 -14  178.93  111.06
  -8   3 -14  221.07  110.44
  -3  -8  14  269.26  111.66
   3  -8  14  179.32  110.54
  -8   3 -14   15.44  104.38
   8   3 -14  -28.71  106.17
  -8  -3  14  182.17  107.80
  -8  -3  14  237.84  106.45
  -8  -3  14   18.74  108.71
   8   3 -14  278.01  106.07
   8  -3  14   21.13  104.39
   3  -8  15  781.62  376.52
  -8  -3  15  718.63  375.70
   8   3 -15 1108.94  375.93
  -3  -8  15  728.27  376.36
   3   8 -15    6.71  374.23
  -3   8 -15  -25.01  374.21
  -3   8 -15  -57.86  377.38
   8   3 -15  608.55  377.18
  -3  -8  15 1166.90  379.18
   3  -8  15 1189.01  380.24
  -8  -3  15  755.98  376.10
   8   3 -15 1045.21  375.58
   8   3 -15   44.05  374.14
   8  -3  15   22.63  373.79
  -8   3 -15 1209.45  377.94
   3   8 -15  -48.31  377.18
   8   3 -16  193.32  137.69
  -3   8 -16   11.99  139.72
   3   8 -16   -6.74  132.79
  -3   8 -16    6.48  132.91
   3   8 -16   12.48  139.85
   8   3 -16  262.23  133.16
  -8  -3  16  181.25  134.12
   3  -8  16  331.80  140.26
  -8  -3  16  126.16  132.68
   8   3 -16    7.51  132.26
   3  -8  16  139.99  133.98
   8   3 -16  271.73  133.02
  -8   3 -16   95.86  136.20
  -3  -8  16  369.20  139.03
  -3  -8  16  213.09  134.15
  -3   8 -17  -37.27   80.56
  -3  -8  17  140.03   73.59
   3   8 -17   -6.96   69.77
   3  -8  17   86.77   71.82
  -3   8 -17    6.58   69.12
   8   3 -17  106.87   77.53
  -8   3 -17  157.27   75.87
   8   3 -17  192.76   69.61
  -3  -8  17  200.82   80.23
   3  -8  17  181.74   79.50
  -8  -3  17   29.56   70.39
  -8  -3  17   28.38   67.66
   3   8 -17   12.89   81.61
  -8   3 -18  254.27  132.17
   3  -8  18  239.36  127.90
  -3   8 -18  -13.57  125.79
   3  -8  18  350.98  133.20
  -3   8 -18  -12.85  133.81
   8   3 -18  246.27  132.83
   8   3 -18  173.03  125.89
  -8  -3  18   79.28  125.40
   8   3 -19  -11.69   45.04
   8   3 -19    7.62   17.77
   3   8 -19   82.30   61.82
  -3  -8  19   13.35   44.34
  -8  -3  19  -10.35   19.84
  -8   3 -19  -10.31   39.45
  -3  -8  20   76.52   70.43
  -8  -3  20   10.79   64.75
   3   8 -20    7.45   66.58
   3   8 -20   42.38   82.40
   8   3 -20   85.30   79.22
  -8   3 -20  162.36   75.03
   8   3 -20  142.91   66.72
  -3   8 -20   13.71   80.61
  -3  -8  20  178.75   84.10
   3  -8  20   52.28   77.69
  -3   8 -21   42.42   61.74
   3  -8  21  -11.10   25.56
  -3  -8  21   13.83   50.17
   3   8 -21  -15.71   30.03
   3   8 -21 -101.75   63.79
  -3  -8  21  -11.25   30.16
   3  -8  21  -13.48   49.33
  -3   8 -21    7.64   25.45
   3   8 -22  -44.81   73.83
  -3   8 -22   43.69   67.57
  -3  -8  22   46.76   41.87
   3  -8  22   45.71   45.64
   8   3 -22   25.40   60.59
  -3   8 -22   40.89   42.38
   3   8 -22   24.21   42.49
  -3  -8  22   85.25   64.70
   3  -8  22   27.76   59.31
   3   8 -23    8.61   56.93
   3  -8  23   28.56   68.73
   3   8 -23  -30.67   80.09
  -3   8 -23  119.83   77.74
  -3  -8  23  120.01   60.24
   8   3 -23   13.14   69.12
   3  -8  23  132.11   59.49
  -3  -8  23   14.59   74.75
  -3   8 -23   33.64   57.27
   3  -8  24   44.00   54.26
  -3   8 -24   26.90   30.90
   3   8 -24   31.45   62.29
  -3   8 -24   15.39   66.51
   8   3 -24   13.58   54.19
  -3  -8  24  -12.57   32.28
   3  -8  24  -24.67   30.75
   3   8 -24   35.30   34.78
  -3  -8  24   14.96   48.44
   3  -8  25   44.47  240.81
   8   3 -25  252.00  238.11
  -3  -8  25  412.04  235.09
   3  -8  25  441.03  235.37
   3   8 -25   16.11  242.22
   3   8 -25   75.04  233.00
  -3  -8  25  428.82  240.44
  -3   8 -25  505.32  247.39
  -3   8 -25  202.35  234.45
  -3  -8  26  109.69   64.10
   3  -8  26   75.94   64.34
   3   8 -26  181.21   77.63
  -3   8 -26   16.18   72.30
   3   8 -26   19.19   36.37
  -3   8 -26    9.62   36.42
  -3  -8  26  -13.50   37.31
   3  -8  26   13.29   35.43
  -3  -8  27  173.45  141.81
   3  -8  27  155.46  138.81
  -3   8 -27   68.91  128.84
  -3   8 -27  331.24  146.04
   3   8 -27  150.06  129.45
  -3  -8  27  137.88  130.69
   3  -8  27   97.24  131.40
   3   8 -27  185.16  145.05
  -3  -8  28   16.09   64.03
   3  -8  28  127.14   76.38
   3   8 -28  -20.41   41.74
   3   8 -28  -34.36   77.70
  -3   8 -28  -33.85   74.33
  -3   8 -28  120.71   45.86
  -3  -8  28   43.12   43.45
   3  -8  28   14.19   40.11
   3   8 -29   52.02  112.19
  -3  -8  29  114.83  131.15
   3  -8  29  292.01  138.49
  -3  -8  29   14.65  113.33
  -3   8 -29  104.89  111.25
  -3   8 -29  155.50  128.62
   3  -8  29  159.44  115.69
   3   8 -29  455.30  149.19
  -3  -8  30  -50.11   63.79
   3  -8  30   49.63   61.80
   3  -8  30  -14.77   29.11
  -3   8 -30  -70.47   75.49
   3   8 -30   10.82   30.48
  -3   8 -30   32.08   30.55
   3   8 -30   35.66   73.71
  -3  -8  30   14.91   27.72
   3  -8  31  -67.40   61.75
   3  -8  31   60.18   33.38
   3   8 -31   11.00   32.83
  -3   8 -31  -11.02   34.02
  -3  -8  31  -15.16   32.87
   3  -8  32  -15.30   36.75
  -3   8 -32  -33.61   39.21
  -8  -4   0 1234.43  507.10
   8  -4   0  957.33  506.27
   8  -4   0 1300.41  506.43
   8   4   0   -5.98  505.13
  -8  -4  -1    7.77   13.77
   8   4  -1  -11.62   13.01
   8  -4  -1    6.36   15.55
   8   4  -1  -11.84   17.30
   8  -4  -1   25.92   16.32
   8  -4   1   28.99   15.80
   8  -4   1   24.21   16.23
  -8  -4   1   -7.67   17.97
  -8   4  -2   69.73  110.66
   8   4  -2    5.79  107.35
  -8   4  -2    1.87  107.22
   8  -4  -2  515.08  110.86
   8   4  -2   11.81  108.25
   8   4  -3   -5.79   12.08
   8   4  -3   -9.22   10.30
  -8   4  -3    5.97    8.88
   8   4  -3  -23.47   16.97
   8  -4  -3   -5.50   12.31
   8  -4   3   -8.72   11.87
   8  -4   3    5.77   14.90
  -8  -4   3   15.24   16.55
   8   4  -4   34.72   49.01
   8   4  -4   -6.50   48.04
  -8   4  -4    6.36   47.72
  -8   4  -4   -7.43   55.03
   8  -4   4  129.89   49.38
   8  -4   4  180.74   51.13
   8   4  -4   23.51   50.11
  -8  -4   4  249.32   53.97
   8   4  -5   -5.80   12.88
   8  -4   5   15.73   11.26
  -8   4  -5    4.46   11.22
  -8   4  -5   10.88   18.91
   8  -4   5   10.99   16.19
   8   4  -5  -23.28   19.71
  -8   4  -5   43.69   28.39
  -8  -4   5   30.27   21.08
   8  -4   5   16.50   13.75
   8   4  -6    5.69   14.11
   8  -4   6    4.46   12.80
  -8  -4   6   -6.27   16.57
   8   4  -6   -5.84   17.97
   8  -4   6   -5.40   16.60
   8  -4   6   13.79   11.83
  -8   4  -6   14.36   12.09
  -8   4  -6    4.41   13.49
  -8   4  -6  -10.71   19.36
   8   4  -6   18.67   17.89
  -8  -4   6    7.49   21.36
   8  -4   6   12.15   12.36
  -8   4  -6   21.44   28.79
   8   4  -7   40.01   64.20
  -4   8  -7  -15.30   63.98
  -8  -4   7  103.94   64.71
   8   4  -7   18.47   63.64
   8  -4   7   -9.86   64.24
  -8   4  -7   51.72   63.07
   8  -4   7  167.39   64.03
   8   4  -7   70.01   65.11
   8   4  -7   13.29   66.07
   8  -4   7   77.00   65.00
  -8   4  -7   -4.88   64.16
  -8   4  -7   84.26   68.42
  -8   4  -7   39.37   65.22
  -8  -4   7   -6.70   64.60
  -8  -4   7  158.01   67.18
   8  -4   7  168.85   64.39
  -4   8  -8   -5.27   15.49
   8  -4   8   -8.29   10.89
   4   8  -8  -22.92   15.90
   8   4  -8  -11.50   13.01
   8  -4   8   -4.19   10.49
  -8   4  -8   55.27   28.69
  -8  -4   8    7.11   22.77
   8   4  -8    7.10   24.10
  -8   4  -8   -5.98   20.62
  -8  -4   8   11.00   14.45
  -8  -4   8   -7.51   21.67
  -8   4  -8   -5.84   11.27
   8   4  -8  -11.77   18.41
   8  -4   8    5.05   15.25
   8   4  -8   -5.56   13.42
  -4  -8   8   -9.75   18.93
   4   8  -9   -9.98   67.68
   4  -8   9   -9.30   65.89
   8   4  -9  112.33   65.04
  -4  -8   9   10.06   66.15
   4   8  -9  -17.74   65.35
  -4   8  -9  -16.37   65.49
  -8  -4   9  129.02   65.76
   8   4  -9   -7.57   69.62
  -8  -4   9   81.99   68.08
   8  -4   9   86.92   65.90
   8   4  -9   29.74   66.17
  -8   4  -9   68.09   69.39
  -8   4  -9  -11.63   66.21
  -8  -4   9  204.45   70.15
  -4   8  -9   18.39   66.78
   8  -4   9  129.63   65.37
   8   4  -9  117.64   65.56
  -8   4 -10  480.44  253.06
   8  -4  10  513.70  251.80
   8   4 -10  463.80  251.61
   4  -8  10  212.25  252.04
   4   8 -10   30.54  251.14
  -4  -8  10  218.35  252.31
  -8   4 -10  137.87  250.88
   8   4 -10  429.80  251.87
  -8  -4  10  313.33  252.52
   8  -4  10  282.73  251.06
  -4   8 -10   16.98  251.06
  -8   4 -10   45.11  251.61
   8  -4  10  533.93  252.20
   8   4 -10   16.11  252.32
  -4   8 -10   -9.54  251.54
   8   4 -10  214.86  251.61
  -8   4 -10   -5.88  251.04
   8  -4  10  448.45  252.37
   4   8 -10   10.31  251.61
  -8  -4  10  410.97  252.03
  -8  -4  10  881.16  254.43
  -8  -4  10  998.52  255.54
   4   8 -11  -10.66   53.01
   4   8 -11   37.88   48.83
  -4   8 -11    5.76   47.27
   4  -8  11   40.06   51.23
  -4  -8  11   64.48   53.37
   8  -4  11   91.59   47.92
   8   4 -11   24.82   48.59
  -4   8 -11   39.62   54.61
   8   4 -11   -8.56   55.87
  -8   4 -11   14.00   54.02
  -8  -4  11   44.40   57.11
   8  -4  11   46.18   46.30
  -8  -4  11  106.58   52.59
   8  -4  11   17.88   45.16
  -8  -4  11   56.91   51.96
  -8   4 -11   24.52   46.34
   8   4 -11    9.04   46.50
  -8  -4  11  112.41   47.93
   8   4 -11   97.24   46.89
   8  -4  11  133.42   51.03
  -8  -4  12 1389.25  448.30
   4   8 -12   -6.41  446.02
  -4   8 -12   -5.85  445.98
   8   4 -12  489.69  448.08
   4   8 -12   22.05  446.88
  -8   4 -12  740.94  447.88
  -4   8 -12   10.29  446.66
  -8   4 -12  297.33  446.09
   8   4 -12  336.23  446.51
  -8  -4  12  724.05  448.59
   8   4 -12 1629.52  448.15
   4  -8  12 1154.18  449.31
  -4  -8  12 1322.72  450.67
  -8  -4  12 2087.99  450.64
  -8  -4  12 1154.33  448.76
  -4   8 -13   21.37   38.30
  -8  -4  13   17.93   33.73
   4  -8  13   25.26   24.04
   4   8 -13    6.48   21.01
  -8  -4  13    9.17   39.06
  -4   8 -13   -6.08   22.49
   8   4 -13  -38.34   36.98
  -8   4 -13  -24.30   34.51
  -8  -4  13   44.95   20.01
  -8   4 -13   -4.84   16.34
   4  -8  13   42.95   32.66
   8   4 -13   13.52   22.64
  -8  -4  13   15.85   28.25
  -4  -8  13  -11.43   35.03
   8   4 -13    5.39   18.72
   8   4 -13   15.88   16.61
   4   8 -13  -11.40   39.73
  -4  -8  14 1361.14  543.01
   4  -8  14 1534.45  543.39
   8   4 -14  162.92  540.71
  -8  -4  14 1694.49  543.12
   8   4 -14 1725.96  542.28
  -4   8 -14   99.86  542.10
  -8  -4  14 2579.80  544.68
   4   8 -14    6.55  540.41
  -4   8 -14   18.50  540.46
   4   8 -14   58.97  542.13
   8   4 -14  674.55  543.10
  -8   4 -14  927.68  542.68
  -8   4 -14  254.08  540.43
  -8  -4  14    9.31  541.56
   4  -8  14 2296.87  547.92
  -8  -4  14 1370.33  543.38
  -4  -8  15  152.71   52.58
   4  -8  15   71.71   49.00
   4   8 -15   -6.77   47.91
  -4   8 -15  -12.44   46.91
   4   8 -15  -60.96   66.44
   8   4 -15  111.53   47.82
   8   4 -15   21.17   60.33
  -8   4 -15   18.03   55.77
  -8   4 -15   56.40   46.15
  -4  -8  15  120.18   58.28
  -8  -4  15  -66.15   56.05
  -8  -4  15   33.93   47.45
  -8  -4  15  120.83   51.69
  -4   8 -15   34.55   61.87
   8   4 -15    7.25   47.57
   4  -8  15   56.90   54.17
   8   4 -15   59.98   46.22
  -4   8 -16  -35.83  180.79
  -4   8 -16  -12.66  175.84
  -4  -8  16  390.76  178.55
   4  -8  16  381.14  177.86
   4   8 -16  -13.60  175.61
  -8  -4  16  -38.41  177.65
   4   8 -16  -12.60  180.66
   8   4 -16  474.39  177.23
  -8   4 -16  239.22  179.73
  -8   4 -16   59.84  175.28
  -8  -4  16  382.95  177.68
  -4  -8  16  533.86  183.17
   8   4 -16  210.97  180.74
   4  -8  16  413.06  181.86
  -8  -4  16  521.80  179.04
   4  -8  17   24.15   42.40
  -4  -8  17   10.08   29.33
   4   8 -17    6.88   28.62
   4  -8  17   28.82   28.70
  -4   8 -17   13.11   27.03
   8   4 -17   13.88   26.38
  -8   4 -17   40.49   44.36
  -8   4 -17    6.41   22.00
  -4   8 -17  -12.37   48.24
   8   4 -17   34.01   47.89
  -8  -4  17   47.71   26.48
  -4   8 -18  -51.24   52.64
  -8  -4  18   10.17   23.34
  -4   8 -18    6.76   26.90
   8   4 -18   11.84   47.06
   8   4 -18   72.45   25.92
  -8   4 -18  -13.51   20.35
   4  -8  18    9.94   26.37
  -8   4 -18   10.36   42.74
   4  -8  18   49.98   47.08
   4  -8  19   10.28   26.16
   4   8 -19  -41.47   56.45
   8   4 -19   12.33   45.17
   8   4 -19    7.55   22.42
  -4  -8  19  -40.35   45.89
  -8  -4  19   21.20   23.07
   4   8 -19   29.17   27.89
  -8  -4  20   55.08   49.10
   4   8 -20  156.52   77.69
   8   4 -20   64.12   45.38
   4   8 -20   52.54   49.13
  -4   8 -20  136.78   81.22
  -4  -8  20  -27.70   66.47
   4  -8  20   13.34   63.40
  -4  -8  20  -11.01   45.85
  -4  -8  21  -11.32   24.94
   4   8 -21   43.90   59.38
   4  -8  21  -26.90   48.27
  -4   8 -21   -7.63   25.75
   4  -8  21   33.23   25.45
  -4   8 -21   84.66   59.06
   8   4 -21  -26.60   55.67
  -4  -8  21  -41.75   51.95
   4   8 -21   -7.91   25.95
   4  -8  22   55.43   51.21
  -4  -8  22   58.81   36.75
   4  -8  22   46.64   38.45
   8   4 -22    8.71   29.30
   4   8 -22   16.25   34.01
  -8  -4  22   23.66   29.80
  -4  -8  22   28.60   50.88
  -4   8 -22    8.16   33.70
   4   8 -22  -60.14   64.04
  -4   8 -22  -14.53   61.07
   8   4 -22   82.62   62.90
   4   8 -23   15.43   61.91
   4   8 -23   -8.66   28.09
  -8  -4  23  -12.23   21.33
   8   4 -23  -13.81   56.52
  -4  -8  23  -24.14   29.57
  -4   8 -23   -8.40   27.25
   4  -8  23   35.99   25.52
   8   4 -23  -17.99   20.58
  -4   8 -23   59.83   67.43
  -4  -8  23   44.02   57.71
   4  -8  23  -28.52   48.72
   4  -8  24  176.84   72.73
   4   8 -24   63.27   89.74
  -8  -4  24  -12.61   67.68
   8   4 -24  -14.25   83.50
  -4  -8  24  189.64   76.14
  -4   8 -24   92.22   91.28
   4   8 -24   71.01   71.13
  -4   8 -24   35.82   71.24
   8   4 -24   18.56   67.95
  -4  -8  24  270.68   90.04
   4  -8  24  -14.66   82.31
   4  -8  25  -15.04   53.22
   4   8 -25   -9.43   32.11
   4   8 -25  -16.19   68.18
  -4   8 -25  -31.55   71.06
  -4   8 -25   -9.19   32.77
   8   4 -25   14.67   63.02
  -4  -8  25  -38.82   33.71
  -8  -4  25  -12.98   23.96
   4  -8  25   12.96   31.59
  -4  -8  25   15.40   61.76
   4   8 -26   99.37  168.78
   4  -8  26  197.41  170.08
  -4  -8  26  420.44  160.01
   4   8 -26   77.15  157.36
  -4   8 -26   38.45  156.78
   4  -8  26  172.73  157.41
  -4   8 -26   97.03  168.27
   8   4 -26  196.03  167.59
  -4  -8  26  362.10  169.10
  -4  -8  27   32.16   54.91
   4  -8  27  -15.55   58.45
   4  -8  27  -13.89   36.51
  -4   8 -27   66.22   76.69
   4   8 -27   30.16   39.25
  -4   8 -27   29.52   39.76
   8   4 -27  108.30   67.08
  -4  -8  27  -13.85   37.54
   4   8 -27  169.17   79.36
  -4  -8  28  196.92  104.67
   4  -8  28   63.58  104.24
   4   8 -28   92.30   88.86
   8   4 -28   15.85  105.41
  -4   8 -28   30.82   89.88
  -4  -8  28  144.30   92.20
   4  -8  28   70.99   88.63
  -4   8 -28  118.47  112.80
   4   8 -28  155.35  109.32
  -4  -8  29   16.47   64.80
   4  -8  29  -48.69   72.81
   4  -8  29   14.49   30.85
   4   8 -29   17.59   83.33
  -4   8 -29  -34.56   79.52
   4   8 -29  -10.45   31.07
  -4   8 -29  -20.98   31.56
  -4  -8  29   14.70   29.01
  -4  -8  30   50.29   61.73
   4  -8  30  -33.10   63.74
   4  -8  30   14.78   30.06
   4   8 -30  -10.86   34.20
  -4   8 -30   10.69   29.09
  -4   8 -30  -88.11   76.43
  -4  -8  30   59.86   34.76
   4   8 -30   17.90   76.77
   4  -8  31   84.30   59.76
  -4  -8  31  -15.21   26.94
  -4   8 -31  -71.79   78.37
   4   8 -31  -11.04   31.08
  -4   8 -31  -22.05   31.03
   4  -8  31  -15.05   33.10
  -4   8 -32  -11.21   34.56
   4  -8  32   91.88   40.58
   8  -5   0   10.62   17.02
  -8  -5   1  585.01  500.91
   8  -5   1  828.97  500.77
   8  -5  -1  304.86  500.28
  -8  -5   2  183.22  144.34
   8  -5   2  263.30  144.10
   8  -5   2  171.65  143.75
   8   5  -2  -12.36  143.43
  -8  -5   3  300.93   80.80
  -8   5  -3    2.59   77.02
   8  -5   3  155.52   78.74
   8   5  -3   12.25   78.33
   8  -5   3  228.38   78.90
   8   5  -4   -5.99   18.50
   8   5  -4  -11.38   19.39
   8  -5   4   23.36   20.58
   8   5  -4  -12.15   23.90
  -8   5  -4    5.46   18.18
   8  -5   4   81.13   21.43
  -8  -5   4   86.85   26.40
  -8   5  -5   11.61   11.83
   8   5  -5  -11.91   12.84
   8  -5   5   -5.68   12.72
   8   5  -5   -5.99   11.20
   8   5  -5   12.14   17.31
   8  -5   5   17.12   13.20
  -8  -5   5    7.87   17.31
   8   5  -6  -11.98   17.63
   8   5  -6    4.17   17.81
  -8   5  -6    2.99   16.51
   8   5  -6   18.25   22.78
   8  -5   6   49.22   17.36
   8  -5   6   16.66   18.84
  -8  -5   6   31.50   24.85
  -8  -5   6   -7.09   17.55
   8   5  -7   18.00   13.71
  -8  -5   7  -14.94   19.94
  -5   8  -7   -5.05   15.02
   8   5  -7   -8.62   15.63
  -8   5  -7  -21.33   20.85
   8   5  -7    7.41   19.20
  -8   5  -7    7.12   24.46
   8  -5   7  -10.87   15.85
   8   5  -7   -6.02   17.87
   8  -5   7   32.23   13.23
  -8  -5   7   31.29   22.33
   8   5  -8   -6.02   14.57
  -8  -5   8    6.13   17.45
   5   8  -8  -11.61   18.76
  -5   8  -8   20.90   20.22
   8   5  -8    8.89   16.82
  -8  -5   8  -15.74   21.61
  -8   5  -8   39.04   22.24
  -8   5  -8    6.97   26.45
   8  -5   8   10.59   17.97
   8   5  -8   15.63   26.09
   8   5  -8  -12.01   21.33
  -8   5  -8   18.21   19.83
  -8  -5   8   31.39   25.93
   8  -5   8   19.57   12.97
   5  -8   9   -9.23   18.11
   8   5  -9   12.10   15.19
   8   5  -9   -8.24   27.71
  -5  -8   9  -20.38   20.42
   5   8  -9  -10.11   24.59
  -5   8  -9   -5.41   15.65
  -8  -5   9    6.44   14.67
   8   5  -9   18.31   16.70
   5   8  -9    5.99   18.03
  -8   5  -9    3.47   13.79
  -8   5  -9   -5.91   21.88
  -8   5  -9   -6.54   22.17
  -8   5  -9   54.58   29.62
  -8  -5   9  -16.51   23.24
   8   5  -9  -36.27   22.54
   8  -5   9    5.19   15.42
  -8  -5   9   38.86   22.22
   5   8  -9    4.98   16.38
   8  -5   9   19.50   12.14
   8   5 -10   11.90   18.76
   5   8 -10  -10.44   30.04
   8  -5  10   36.02   16.82
   5   8 -10   -9.78   19.57
   5  -8  10   38.31   26.48
  -5  -8  10  -10.52   25.66
   5   8 -10   -6.18   21.99
  -5   8 -10  -22.47   21.45
  -8  -5  10   13.46   20.18
   8   5 -10   18.77   18.41
  -8   5 -10   -7.03   26.74
  -8  -5  10   17.40   26.67
   8  -5  10   65.57   21.92
   8   5 -10   -8.69   31.57
  -8  -5  10   39.10   25.49
   8   5 -10   12.16   20.62
  -5   8 -10   -9.47   25.87
  -8   5 -10   -3.72   16.33
   8   5 -11  377.56  201.33
  -8  -5  11  609.52  202.73
   5   8 -11   -6.27  200.57
  -5   8 -11    5.73  200.41
   5  -8  11  318.34  202.77
  -5  -8  11  326.26  203.30
   8   5 -11  363.57  201.19
   5   8 -11  -21.58  201.66
  -8  -5  11  279.21  202.89
  -5   8 -11   39.35  201.79
  -8   5 -11   -7.54  201.77
   8   5 -11   86.01  201.02
   8   5 -11    9.15  202.17
  -8   5 -11  236.95  200.65
  -8  -5  11  913.85  204.98
   8   5 -12   38.48   45.54
   5   8 -12   -6.48   30.40
  -5   8 -12  -11.64   28.42
   5  -8  12   62.01   33.21
  -5  -8  12   33.72   36.77
   8   5 -12   40.77   27.01
  -5   8 -12   20.45   37.69
  -8  -5  12   29.74   26.77
  -8   5 -12    9.07   26.50
  -8   5 -12   -8.06   38.92
  -8  -5  12   84.17   40.20
  -8  -5  12   70.92   32.98
   5   8 -12   11.15   41.30
   8   5 -12    6.34   30.62
  -8  -5  12   35.81   42.32
   8   5 -12   36.28   26.81
   5  -8  13  980.25  351.41
  -8  -5  13 1014.44  350.89
   8   5 -13  559.93  349.42
   5   8 -13   -6.55  348.58
  -5   8 -13   64.98  348.89
  -8  -5  13  164.68  353.42
  -8  -5  13 1432.67  352.62
   8   5 -13   60.61  351.19
   8   5 -13   26.35  348.73
  -8  -5  13  775.64  351.99
   5   8 -13   23.06  350.47
   8   5 -13  613.28  349.36
  -5   8 -13   21.25  350.51
  -8   5 -13  261.05  348.80
   5  -8  13 1009.81  353.88
  -8   5 -13   85.93  350.33
  -5  -8  13 1016.84  353.77
   8   5 -14    6.87   23.11
   5   8 -14  -47.67   42.83
  -5  -8  14    9.35   23.35
   5  -8  14   -8.68   23.96
   5   8 -14  -13.24   22.77
  -5   8 -14   29.83   21.18
  -8  -5  14    9.31   39.59
   8   5 -14   29.81   18.72
   8   5 -14   28.63   20.62
  -8  -5  14    8.18   20.80
   8   5 -14  -21.18   41.50
  -8   5 -14   -5.33   18.95
  -5  -8  14   11.94   34.78
  -5   8 -14  -11.04   36.41
  -8  -5  14   24.14   26.86
  -8   5 -14   -9.13   37.93
  -8  -5  14   30.17   33.97
   5  -8  14  -22.19   37.29
  -8  -5  15  554.16  245.59
  -5  -8  15  424.04  244.77
   5  -8  15  473.25  244.76
   5   8 -15   -6.84  243.03
  -5   8 -15   30.97  242.91
   8   5 -15  251.64  243.33
   8   5 -15  155.12  246.88
  -8   5 -15  299.91  247.21
  -8   5 -15  146.79  242.77
  -5  -8  15  789.64  248.83
   5  -8  15  521.25  246.89
  -8  -5  15 1027.15  246.82
   5   8 -15   12.31  246.35
  -8  -5  15  557.68  246.97
  -8  -5  15    9.43  245.08
  -5   8 -15   11.46  245.65
  -8  -5  16  -10.82   39.17
  -5  -8  16   78.89   28.33
   5   8 -16  -27.45   28.13
   5  -8  16  -18.48   26.15
  -5   8 -16    6.30   22.42
   5  -8  16   11.76   40.17
  -8   5 -16  -40.73   46.48
  -5   8 -16   11.89   45.12
  -8  -5  16   64.67   25.09
  -8   5 -16   24.35   21.84
   8   5 -16    6.50   23.52
  -5  -8  16   37.59   42.22
   5   8 -16  -38.15   53.12
   8   5 -16  -11.57   50.56
  -8  -5  17   22.56   41.85
   5  -8  17   19.16   26.21
  -5  -8  17   61.04   30.99
   5   8 -17  -20.85   27.56
  -5   8 -17   13.02   22.32
  -5   8 -17   12.33   52.44
   8   5 -17   12.06   49.20
  -8  -5  17    9.63   23.17
   8   5 -17   13.55   21.10
   5  -8  17  -24.38   37.88
  -5   8 -18   13.48   26.47
   5  -8  18   39.67   28.46
   8   5 -18   37.52   52.21
   5  -8  18   12.46   43.47
  -5   8 -18   38.31   55.74
  -8  -5  18  -10.27   25.93
  -8  -5  18   35.21   45.94
   8   5 -18   14.63   27.32
  -5  -8  19  -10.78   23.23
   5   8 -19   -7.35   24.37
   8   5 -19   -7.60   22.90
   5  -8  19   20.52   27.49
  -5  -8  19  -13.56   44.50
  -8  -5  19   21.33   23.51
   8   5 -19   38.98   53.39
   5   8 -19  -13.94   59.05
  -5   8 -19   -7.14   23.22
   5   8 -20   -7.57   31.64
  -5  -8  20   44.36   28.27
   5   8 -20  -14.35   63.30
  -5   8 -20   81.89   62.01
  -5  -8  20   69.77   51.51
   5  -8  20  -53.28   46.24
  -5  -8  21  -28.69   51.78
   5   8 -21   55.79   29.99
  -5   8 -21  -15.82   27.02
   5   8 -21   58.99   63.02
  -5   8 -21  -56.35   61.69
  -5  -8  21   11.53   28.91
   8   5 -21   83.64   57.62
   8   5 -21   -8.32   26.78
   5  -8  21   44.25   31.03
   5  -8  21   13.43   50.24
  -8  -5  21   11.68   27.69
  -5   8 -22   16.30   29.92
   5   8 -22   60.59   58.22
  -5  -8  22  -11.84   27.51
   8   5 -22  -14.40   58.22
   8   5 -22   26.34   27.93
   5  -8  22   23.30   28.71
  -5   8 -22  101.61   63.04
  -8  -5  22  -12.07   27.90
  -5  -8  22   86.39   55.91
   5  -8  22  -13.85   47.51
   5   8 -22    8.18   28.32
   5   8 -23   15.54   62.25
  -5   8 -23 -104.57   59.86
  -5   8 -23   34.83   27.19
   8   5 -23  -59.41   59.12
  -5  -8  23   37.24   32.31
   8   5 -23  -18.11   23.23
   5  -8  23  -11.99   24.70
   5   8 -23   17.44   28.10
  -8  -5  23  -12.45   21.47
  -5  -8  23   73.84   58.39
   5  -8  23  -28.50   50.32
   5  -8  24   12.63   26.90
   5   8 -24  -15.92   67.55
  -5   8 -24   44.75   32.64
   8   5 -24  -89.52   60.68
   8   5 -24    9.32   27.06
  -5  -8  24   12.72   29.50
  -5   8 -24   61.44   71.74
   5   8 -24   -8.93   30.72
  -8  -5  24  -12.82   26.65
  -5  -8  24   15.13   49.82
   5  -8  24  -43.95   59.59
  -5   8 -25  -15.77   88.72
  -5   8 -25   -9.38   63.91
   8   5 -25  199.36   89.00
   8   5 -25   87.27   65.25
  -5  -8  25  143.20   71.87
   5  -8  25  116.68   66.63
   5   8 -25   85.41   65.67
  -8  -5  25  -13.18   61.79
   5   8 -25   97.76   90.75
  -5  -8  25   77.44   82.45
   5  -8  25   15.04   78.55
   5  -8  26   46.27   59.65
  -5   8 -26  -32.33   67.06
  -5  -8  26   54.54   33.11
  -8  -5  26   13.52   27.79
   5   8 -26   49.97   69.85
   5   8 -26   38.80   34.16
   8   5 -26   15.74   66.18
  -5   8 -26  -19.22   31.21
   8   5 -26   29.85   25.97
   5  -8  26  -27.15   30.54
  -5  -8  26   15.83   54.75
   8   5 -27  101.96   96.26
   5   8 -27   17.01  114.51
  -5   8 -27  165.55  117.18
   5   8 -27  131.42   97.52
   8   5 -27  161.34  117.68
  -5   8 -27   39.36   95.42
   5  -8  27  -15.79  105.58
  -5  -8  27  250.59  100.84
  -8  -5  27  -27.71   94.53
   5  -8  27  152.88   97.73
  -5  -8  27  193.98  109.77
   5  -8  28  -63.62   75.76
   5  -8  28   14.21   35.52
   5   8 -28 -156.14  106.87
  -5   8 -28 -101.57   85.54
   8   5 -28   16.51   75.54
   5   8 -28  -10.31   38.37
  -5   8 -28  -10.28   40.82
  -5  -8  28  -29.00   37.90
  -8  -5  28  -28.36   32.98
  -5  -8  28  148.42   74.68
  -5  -8  29   50.39   64.08
   5  -8  29  -16.24   57.32
   5  -8  29   72.56   32.84
   5   8 -29   53.02   76.54
  -5   8 -29   51.86   69.64
   8   5 -29 -118.10   70.16
   5   8 -29  -10.50   30.66
  -5   8 -29   10.50   30.27
  -5  -8  29  -14.77   29.74
  -5  -8  30  -17.09   70.09
   5  -8  30   49.71   69.36
   5   8 -30  125.91   85.92
  -5   8 -30  123.45   81.55
   8   5 -30  -17.21   71.85
   5   8 -30   54.57   39.11
  -5   8 -30   54.15   37.58
  -5  -8  30  -45.09   32.60
   5  -8  30  -14.80   31.55
   5  -8  31   33.76   56.44
  -5   8 -31   53.89   82.88
   5   8 -31  -33.27   33.90
  -5   8 -31   22.06   30.53
  -5  -8  31   61.09   28.24
   5  -8  31  -30.15   27.90
   5  -8  32   17.18   55.49
   5  -8  32  -15.33   29.95
  -5   8 -32  -22.45   29.50
   8  -6   2  141.87  134.21
   8   6  -3  -19.27   71.15
   8  -6   3  146.70   70.85
  -8  -6   4   41.15   17.01
   8   6  -4    4.35   15.52
  -8   6  -4   -6.63   13.65
   8   6  -4   -6.39   19.55
   8  -6   4   33.68   15.51
  -8  -6   5  155.75   75.08
   8   6  -5   -4.50   73.49
   8   6  -5    6.34   74.25
   8  -6   5  191.02   74.41
  -8  -6   6  179.58   68.60
   8   6  -6   37.42   67.50
   8   6  -6   31.45   68.16
   8  -6   6   75.31   67.28
   8   6  -7    6.20   15.16
  -6   8  -7   20.03   19.31
   8   6  -7  -24.37   20.23
  -8   6  -7   -3.77   17.15
   8   6  -7   -6.29   21.04
   8  -6   7    5.59   15.71
   8  -6   7   50.31   15.91
  -8  -6   7   -8.29   17.23
  -8  -6   7   40.76   21.10
   8   6  -8   -6.20   32.70
  -8  -6   8    8.65   36.30
   6   8  -8   -5.89   35.28
  -6   8  -8  -31.08   33.99
   8   6  -8  -14.98   34.67
  -8   6  -8   11.71   34.03
   8   6  -8   25.76   38.51
   8  -6   8   21.78   32.86
   8   6  -8    6.30   35.23
   6   8  -8   -5.64   34.62
  -8   6  -8   -5.32   36.38
   8  -6   8  236.32   35.14
  -8  -6   8  203.81   41.17
   8   6  -9    8.97   31.57
  -6  -8   9   30.98   27.90
   8   6  -9   -6.21   20.13
   6   8  -9    6.07   25.00
  -6   8  -9   26.85   24.86
  -8  -6   9    9.04   28.59
   8   6  -9   20.40   23.85
  -8   6  -9   -4.05   22.14
  -8   6  -9   36.32   25.51
   8   6  -9   37.39   26.01
   6   8  -9  -11.12   23.75
   6   8 -10   21.15   26.86
   6  -8  10   -9.51   20.93
   8   6 -10   12.45   15.01
  -6   8 -10    9.40   22.01
  -6  -8  10  -10.66   21.65
  -8  -6  10   22.05   21.43
   6   8 -10    6.26   20.65
  -6   8 -10   32.84   19.94
   8   6 -10   10.42   18.15
  -8   6 -10   -4.17   14.99
  -8  -6  10    9.44   25.29
   6   8 -10    5.49   17.08
   8   6 -10  -24.85   21.84
   8   6 -10   -9.38   32.53
  -8  -6  10   40.88   24.24
  -8   6 -10  -23.12   25.77
   8   6 -11    6.25   19.56
   6  -8  11   39.54   26.77
  -6  -8  11   22.02   28.99
  -8  -6  11  130.20   27.31
   8   6 -11   -5.44   22.52
  -6   8 -11  -11.13   21.81
  -8   6 -11    4.34   19.79
   8   6 -11    6.25   22.87
  -8  -6  11   39.24   32.47
  -6   8 -11  -19.54   29.08
   6   8 -11  -10.92   35.48
  -8   6 -11   32.69   33.00
   6   8 -11   -6.35   25.03
  -8  -6  11   81.43   27.07
   8   6 -11    9.80   35.14
   8   6 -12   37.73   58.14
   6  -8  12  208.42   63.32
   6   8 -12  -12.83   59.70
  -6   8 -12   -5.78   59.05
  -8  -6  12  277.41   64.52
   6   8 -12  -11.29   65.67
   6  -8  12   82.22   66.70
  -6  -8  12  181.96   68.44
   8   6 -12   66.30   59.73
   8   6 -12   -6.30   60.27
  -8  -6  12  153.67   69.40
  -8   6 -12   -8.65   65.52
   8   6 -12  -10.24   67.77
  -8  -6  12  294.66   64.38
  -6   8 -12  -20.32   64.82
  -8   6 -12    9.15   58.71
  -6  -8  13   94.02   69.39
   8   6 -13   50.64   62.47
   6  -8  13  149.62   70.19
  -6  -8  13  109.81   66.53
   6  -8  13  157.94   67.05
   6   8 -13   -6.63   64.06
  -6   8 -13    5.88   63.35
  -8  -6  13  313.53   67.59
   8   6 -13   21.36   72.21
   8   6 -13   33.94   63.36
  -8   6 -13   24.78   62.72
  -8  -6  13   18.30   74.79
  -8  -6  13  115.65   71.55
  -6   8 -13  -21.14   68.46
   8   6 -13   25.94   64.39
   6   8 -13   11.67   72.51
  -8   6 -13    9.15   69.01
  -8  -6  13  230.67   67.68
   8   6 -14  -11.13  117.70
  -6  -8  14  188.54  113.89
   6  -8  14  436.68  115.81
   6   8 -14  -13.39  112.25
  -6   8 -14   23.75  112.03
   8   6 -14   29.38  111.77
  -6   8 -14  -10.99  116.75
   6  -8  14  397.74  118.57
  -8  -6  14  219.20  119.19
  -8  -6  14  318.17  114.71
   6   8 -14   12.05  118.44
  -6  -8  14  169.03  117.43
   8   6 -15   61.17   35.21
  -6  -8  15   68.15   39.11
   6   8 -15  -13.44   35.07
   6  -8  15  142.34   41.41
  -6   8 -15   -6.05   35.85
  -8  -6  15   53.72   37.02
  -6   8 -15  -11.41   51.42
   6   8 -15  -12.45   52.84
   8   6 -15   11.59   51.42
  -6  -8  15   12.47   48.02
   6  -8  15   22.95   45.91
  -8  -6  15   11.26   47.70
  -8  -6  16   46.55   39.25
  -6  -8  16   99.58   43.17
   6   8 -16   20.80   38.78
  -6   8 -16    6.28   38.90
   6  -8  16    9.21   38.89
  -6  -8  16   50.62   48.29
   6  -8  16  105.47   50.54
  -8  -6  16  163.98   53.58
   6   8 -16  -51.40   59.34
   8   6 -16   19.55   38.32
  -6   8 -16   35.55   53.71
   8   6 -16  -12.05   58.90
  -6   8 -17   61.47   50.70
  -6  -8  17   10.24   31.14
   8   6 -17   13.53   27.39
  -8  -6  17   95.10   46.74
   6  -8  17    9.55   28.73
   8   6 -17   50.07   54.93
  -8  -6  17   29.33   29.84
  -6   8 -17  -25.97   29.42
   6  -8  17  109.40   46.32
   6  -8  18  188.92   99.04
   6  -8  18  197.94   91.43
   8   6 -18   72.88   90.58
   8   6 -18   38.93   99.57
   6   8 -18  136.58  102.01
  -8  -6  18  101.39   90.70
  -6  -8  18  107.64   98.93
  -8  -6  18   49.29   96.08
  -6   8 -18   53.79   90.55
  -6   8 -18  -50.96  101.86
   6   8 -19   22.26   40.66
   6   8 -19  -28.13   78.04
   6  -8  19  134.70   44.60
  -6  -8  19  136.79   55.24
  -6  -8  19  -10.87   42.84
  -6   8 -19   -7.13   40.61
  -8  -6  20   39.57   57.32
  -6  -8  20   44.73   38.48
   6   8 -20  -57.89   67.21
  -6   8 -20  136.28   67.51
   8   6 -20  -41.67   65.26
  -6  -8  20  112.57   54.14
   6   8 -20    7.82   38.10
   8   6 -20   24.29   36.58
  -8  -6  21   26.82   62.65
   6   8 -21  -14.87   68.62
  -6   8 -21   70.34   67.08
  -6  -8  21   58.12   49.75
   8   6 -21   33.42   47.65
   6  -8  21  192.04   51.36
  -8  -6  21   46.92   46.61
   8   6 -21  143.41   71.97
   6   8 -21  -16.07   46.04
  -6  -8  21   14.46   64.32
   6  -8  21  123.61   64.20
  -6   8 -21  -15.80   46.40
  -8  -6  22  -55.28   51.98
   6   8 -22   -8.57   27.00
   6   8 -22   15.26   56.10
  -6   8 -22   25.36   25.77
   8   6 -22  -59.13   58.42
   8   6 -22   17.58   25.22
  -6  -8  22  -11.93   26.86
   6  -8  22   11.65   25.67
  -8  -6  22   12.09   26.64
  -6   8 -22  -14.50   58.47
  -6  -8  22  -74.22   53.27
   6  -8  22   13.84   48.00
  -8  -6  23  -14.22   57.16
  -6  -8  23  -15.22   54.54
   6   8 -23  -93.93   66.53
  -6   8 -23   14.93   61.75
  -6   8 -23   60.92   32.67
   8   6 -23    9.05   32.37
  -6  -8  23   75.00   35.94
   6   8 -23   26.36   31.39
  -8  -6  23  -25.41   34.00
   8   6 -23  121.69   64.75
   6  -8  23  -12.29   27.32
   6  -8  23  -14.25   51.76
   6  -8  24   12.63   27.34
  -8  -6  24   13.06   26.26
  -6   8 -24   15.36   63.15
   6   8 -24  -17.99   30.76
  -8  -6  24  -29.24   55.03
   8   6 -24  -62.54   70.43
  -6   8 -24   26.84   28.29
   8   6 -24  -18.59   27.46
  -6  -8  24   25.61   27.07
   6   8 -24   32.07   68.76
   6  -8  24  -87.92   55.57
  -6  -8  24  -30.47   53.36
  -8  -6  25   13.40   27.67
  -6   8 -25   47.31   67.03
  -8  -6  25  120.01   60.39
   6   8 -25  -16.41   66.34
   6   8 -25  -19.11   33.53
   8   6 -25  -95.93   66.34
  -6   8 -25  -37.52   34.34
   8   6 -25   58.46   31.07
  -6  -8  25   26.85   36.07
   6  -8  25   39.75   31.78
   6  -8  25   15.05   49.26
  -6  -8  25  -15.59   54.38
  -8  -6  26   92.22   63.08
   6   8 -26   16.77   74.55
  -6   8 -26  177.91   83.36
   6   8 -26   -9.76   43.50
  -6   8 -26  -19.24   43.19
   8   6 -26   19.97   42.51
  -6  -8  26  123.46   49.56
  -8  -6  26   13.72   39.79
   6  -8  26   81.53   44.72
  -6  -8  26  111.51   69.59
   8   6 -26   49.15   70.77
   6  -8  26  -30.87   61.26
   6   8 -27  119.83   72.55
  -8  -6  27  -15.73   58.29
  -6   8 -27   66.27   71.18
   8   6 -27 -167.69   75.21
   6  -8  27   13.91   30.46
   6   8 -27   91.55   39.21
  -6   8 -27   30.18   35.12
   8   6 -27  -10.34   30.40
  -6  -8  27   14.00   33.80
  -8  -6  27  -14.05   33.26
  -6  -8  27  130.09   68.33
   6  -8  27  -31.62   57.18
   6  -8  28  -16.17   66.92
   8   6 -28  -51.42   76.21
  -8  -6  28  -14.35   31.10
   6   8 -28  -10.37   37.53
  -6   8 -28  -10.29   33.82
   8   6 -28   10.56   30.57
  -6   8 -28  -33.90   72.11
  -6  -8  28   14.58   37.34
   6  -8  28  -14.23   31.58
  -6  -8  28  -16.58   59.47
   6  -8  29  -82.61   69.56
   6   8 -29   53.32   77.73
   8   6 -29  192.38   80.71
   6   8 -29   32.36   38.83
  -6   8 -29   42.54   37.23
   8   6 -29   10.78   35.17
  -6  -8  29   59.38   39.39
   6  -8  29   14.53   35.89
  -8  -6  29  -14.65   37.28
  -6   8 -29  121.18   76.74
  -6  -8  29  -33.77   64.70
   6  -8  30  -16.60   58.59
   6   8 -30  -18.08   79.24
  -6   8 -30 -141.26   78.65
   8   6 -30  -17.83   70.46
   6   8 -30  -10.97   28.96
  -6   8 -30  -10.85   28.19
  -6  -8  30   45.31   35.39
   6  -8  30   14.83   26.39
  -8  -6  30   14.93   22.75
  -6  -8  30   17.17   59.05
   6  -8  31   16.92   61.20
  -6   8 -31   35.98   77.98
   6  -8  31   15.11   24.06
  -6   8 -31  -22.10   26.39
   8   6 -31  -18.14   73.14
   6  -8  32   17.21   51.97
   6  -8  32  -15.37   25.71
   8  -7   4   78.08   74.71
  -8   7  -5    4.03   62.86
   8   7  -5   -6.64   63.65
  -7   8  -6   19.22   24.27
   8   7  -6   10.40   23.61
  -8   7  -6   25.11   22.08
   8  -7   6   23.74   21.42
   8   7  -6    6.58   25.39
   7   8  -7   11.60  119.68
  -7   8  -7   14.87  119.68
   8   7  -7   -5.37  119.85
  -8   7  -7   17.45  119.63
   8   7  -7    6.53  120.35
   7  -8   7  267.96  120.37
   8   7  -8   -6.51   21.39
  -8  -7   8   33.80   17.62
   7   8  -8   17.91   20.01
  -7   8  -8   15.40   19.85
   8   7  -8    5.56   20.00
  -8   7  -8    4.48   18.23
   7   8  -8   12.42   19.81
   8   7  -9    5.66   19.29
  -8  -7   9    9.81   20.49
   7   8  -9  -18.46   22.93
  -7   8  -9  -21.30   17.48
  -8   7  -9   -4.59   18.77
  -7  -8   9   31.39   22.21
   8   7  -9   -6.52   21.39
   7   8  -9  -30.73   20.32
   8   7  -9   29.22   23.13
   7  -8  10   37.75   26.95
   7   8 -10   64.30   34.52
  -8  -7  10   67.41   23.33
  -7  -8  10   21.60   25.81
  -8  -7  10   10.18   28.72
  -7   8 -10   27.15   23.81
   8   7 -10  -17.24   20.43
  -8   7 -10   -4.71   20.70
   7   8 -10   -6.35   24.69
  -8   7 -10  -16.90   28.60
   8   7 -10   32.19   24.97
   7   8 -10    6.11   21.73
   8   7 -10   50.54   34.06
  -8  -7  11    8.43   16.67
   7  -8  11   -9.82   22.27
   8   7 -11   -6.42   12.12
  -8  -7  11   -8.22   19.83
  -7  -8  11   33.45   25.25
   7   8 -11   12.86   20.44
  -7   8 -11   -5.53   18.68
   8   7 -11    5.96   19.57
  -8  -7  11   10.57   27.17
  -8   7 -11   -9.60   16.14
   8   7 -11   31.48   30.99
  -8   7 -11   -8.87   23.57
  -7   8 -11  -19.40   26.13
   8   7 -11   38.45   22.20
   7   8 -11   22.13   29.34
  -7   8 -12   20.19   32.87
   7   8 -12   11.43   40.48
   8   7 -12   -6.44   17.30
   7  -8  12   79.46   25.88
  -8  -7  12   85.11   26.97
   7  -8  12  -30.65   27.78
   7   8 -12    6.50   26.68
  -7  -8  12   23.03   31.45
  -7   8 -12   -5.62   23.30
   8   7 -12    6.05   24.53
  -8  -7  12  -10.96   32.63
   8   7 -12  -10.89   36.79
   8   7 -12   -6.44   24.78
  -8  -7  12   42.27   24.79
  -8  -7  13   67.88   42.33
   7   8 -13  -35.43   45.15
  -7  -8  13   83.32   35.54
   7  -8  13   49.62   35.92
  -8  -7  13  106.00   34.80
   7   8 -13   -6.56   33.87
  -7   8 -13   -5.68   31.69
   8   7 -13  -12.20   33.18
   7  -8  13   63.78   38.97
  -7  -8  13   83.25   42.29
  -7   8 -13   10.51   41.91
   8   7 -13  -11.30   47.70
   8   7 -14  -11.72   53.57
  -7  -8  14   38.14   43.78
   7   8 -14   -6.77   39.68
   7  -8  14  230.17   45.24
  -8  -7  14  145.24   45.55
  -7   8 -14  -17.73   40.37
   8   7 -14  -31.63   41.57
   7  -8  14  154.84   49.00
  -8  -7  14   46.93   49.95
  -7   8 -14  -10.93   50.00
  -7  -8  14   36.84   48.30
   7   8 -14   12.19   54.56
   7   8 -15  -25.18   42.87
  -7  -8  15    9.75   22.95
   7   8 -15   20.39   22.00
   7  -8  15    8.84   23.31
  -8  -7  15   37.53   25.68
  -7   8 -15  -18.09   21.54
   8   7 -15   19.30   21.81
   8   7 -15  -24.29   45.71
   7  -8  15  -22.87   36.91
  -8  -7  15   11.96   37.33
  -7   8 -15   56.83   40.92
  -7  -8  15  -12.61   37.06
  -7   8 -16  -12.48   23.07
  -7  -8  16   30.18   26.73
   7   8 -16  -13.76   24.70
   7  -8  16  -18.37   25.23
   7   8 -16   51.96   52.32
   8   7 -16   12.58   47.98
  -8  -7  16   74.28   42.93
   8   7 -16   13.28   25.75
  -7   8 -16  -11.81   53.45
   7  -8  16  -23.75   37.82
  -8  -7  16   38.87   23.85
   8   7 -17    6.87   44.02
  -7   8 -17  -19.42   44.24
  -8  -7  17   90.42   46.55
  -7   8 -17  -24.52   69.93
   7  -8  17   97.00   55.74
   8   7 -17  -39.04   62.18
   7  -8  17  171.53   50.12
   7  -8  18   89.96   42.38
  -7   8 -18  -38.12   68.05
  -7  -8  18   27.17   52.87
   7  -8  18  138.28   57.29
  -7   8 -18   -6.88   39.32
   7   8 -18  -13.80   68.89
  -7  -8  19  460.69  127.60
   7   8 -19   14.20  132.71
   8   7 -19  -27.75  132.91
   7  -8  19  341.55  125.56
   8   7 -19    7.50  121.98
  -8  -7  19  148.32  130.44
  -7   8 -19    7.12  121.77
  -7  -8  19  293.62  132.95
   7   8 -20   87.63   63.60
   7   8 -20    7.89   35.94
   8   7 -20    8.03   37.33
  -7   8 -20  -68.04   64.14
   8   7 -20  -28.61   67.50
  -8  -7  20   91.33   40.60
  -7  -8  20   45.13   36.48
  -7  -8  20   28.39   52.49
  -8  -7  20   55.59   57.64
  -7   8 -21  -14.06   95.17
  -8  -7  21  181.79   97.15
   7  -8  21  -13.73   87.86
   8   7 -21   24.80   81.90
  -7   8 -21   63.17   81.24
  -7  -8  21  222.70   87.08
  -8  -7  21  141.02   84.58
   7  -8  21  180.65   85.13
   7   8 -21  -90.01   97.43
   8   7 -21  -14.73   98.17
  -7  -8  21  218.74   94.06
   7   8 -21   32.42   81.12
  -7   8 -22   14.50   60.72
   8   7 -22   90.88   63.69
   8   7 -22   26.47   31.16
  -7   8 -22    8.45   29.85
  -7  -8  22  -12.03   29.23
   7  -8  22   47.75   30.07
   7   8 -22   61.58   59.87
  -8  -7  22  -12.08   28.80
   7  -8  22  -28.32   51.76
   7   8 -22   34.57   30.13
  -8  -7  22  -57.52   52.93
  -7  -8  22   14.97   54.52
   7   8 -23  -35.43   33.87
   7   8 -23  -15.78   73.85
  -7   8 -23  -74.66   62.80
   8   7 -23 -108.88   76.21
   8   7 -23    9.06   30.35
  -7   8 -23   17.41   26.02
  -7  -8  23   12.60   32.80
  -8  -7  23   50.87   34.12
   7  -8  23   12.29   29.44
  -7  -8  23   30.68   60.53
   7  -8  23   29.17   52.69
  -8  -7  23   73.84   54.20
   7   8 -24   28.24   43.03
   8   7 -24  111.66   72.69
   8   7 -24   18.97   40.48
  -7   8 -24   18.27   39.80
  -7  -8  24   38.69   39.77
  -8  -7  24  -13.04   39.52
   7  -8  24   64.57   43.59
   7   8 -24   96.96   70.81
  -7  -8  24  157.06   70.29
   7  -8  24  -14.66   58.49
  -8  -7  24  -45.43   64.21
  -7   8 -24  107.52   70.45
  -8  -7  25  -13.64   26.31
   7   8 -25  -33.05   62.19
   8   7 -25  -49.03   66.79
   7  -8  25   26.53   28.39
   7   8 -25    9.62   29.74
   8   7 -25    9.72   27.58
  -7  -8  25   40.54   31.44
  -7   8 -25   18.77   28.74
  -7  -8  25   47.09   54.07
  -7   8 -25  -15.78   63.30
  -8  -7  25  -46.54   55.77
   7   8 -26  -50.65   68.09
  -7  -8  26   27.62   31.15
  -7   8 -26  -48.57   72.91
   8   7 -26   33.43   66.55
   7   8 -26   -9.83   26.43
   8   7 -26  -19.87   25.09
  -7   8 -26    9.83   30.04
  -8  -7  26  -13.96   24.92
  -7  -8  26   16.04   60.80
  -8  -7  26   47.61   59.72
  -8  -7  27   97.31  142.95
  -8  -7  27   42.78  130.70
  -7   8 -27  248.80  160.12
   8   7 -27  153.76  155.76
   7   8 -27  112.64  133.19
   8   7 -27  114.08  132.43
  -7  -8  27   86.33  131.95
  -7  -8  27   98.18  144.22
  -8  -7  28  146.71   63.44
   8   7 -28  -87.17   73.21
   7   8 -28  -20.87   30.81
   8   7 -28  -10.58   31.57
   7   8 -28  -87.82   73.30
  -7  -8  28  -29.34   30.26
  -8  -7  28   14.55   32.88
  -7  -8  28  -16.68   63.97
  -8  -7  29  -66.47   62.51
   7   8 -29   35.77   75.76
   8   7 -29  -71.07   78.74
   7   8 -29   10.85   28.69
   8   7 -29  -21.57   27.18
  -7  -8  29   14.93   35.00
  -8  -7  29   29.65   25.54
  -7  -8  29   50.95   59.96
  -8  -7  30  -33.82   65.04
   7   8 -30  -72.73   75.21
   8   7 -30   90.43   75.73
   7   8 -30   11.03   29.20
   8   7 -30  -11.11   29.83
  -7  -8  30   15.18   27.98
  -8  -7  30  -15.09   27.81
  -8   8  -6  -14.24  203.56
   8  -8   6  600.94  205.00
   8   8  -7    5.88   19.91
  -8   8  -7   -9.81   18.14
   8   8  -7  -20.52   21.79
   8   8  -8  -12.11   21.21
  -8   8  -8  -20.32   19.80
   8   8  -8    6.81   21.27
  -8   8  -9    5.18   20.72
   8   8  -9   -6.24   22.06
   8   8  -9  -33.77   25.16
  -8  -8  10   10.94   23.47
   8   8 -10  -18.94   24.51
   8   8 -10   -6.75   24.68
  -8  -8  11  -11.30   25.86
   8   8 -11   -6.52   22.10
   8   8 -11   22.43   33.73
   8   8 -11  -19.98   23.33
  -8  -8  12   63.51   39.90
  -8  -8  12   23.33   40.76
   8   8 -12   19.74   37.77
   8   8 -12   11.58   45.24
  -8  -8  13    9.34   25.03
   8   8 -13   -6.64   22.83
  -8  -8  13   12.04   32.72
   8   8 -13  -11.96   38.07
  -8  -8  14   -9.65   24.45
   8   8 -14   -6.66   21.87
   8   8 -14  -12.35   40.06
  -8  -8  14   12.43   34.19
   8   8 -15   25.48   49.55
  -8  -8  15  -19.72   30.67
   8   8 -15   20.62   27.61
  -8  -8  15  102.58   42.32
  -8  -8  16  -10.17   27.14
   8   8 -16   -6.96   27.83
  -8  -8  18  484.57  148.43
   8   8 -18  -41.84  151.84
  -8  -8  18  150.99  152.04
   8   8 -18   29.42  143.39
   8   8 -19   15.14   25.13
  -8  -8  19  -11.08   24.46
  -8  -8  19  -14.12   46.36
   8   8 -19  -28.70   53.58
   8   8 -20   79.70  139.93
  -8  -8  20  357.05  143.28
   8   8 -20  -59.00  148.00
  -8  -8  20  116.11  148.56
   8   8 -21  -60.58   60.55
  -8  -8  21   59.13   32.94
   8   8 -21   -8.18   32.16
  -8  -8  21   58.88   56.17
  -8  -8  22  272.73  143.72
   8   8 -22   95.92  140.20
  -8  -8  22  120.77  151.67
   8   8 -22   46.60  154.04
   8   8 -23   15.92   59.48
  -8  -8  23  -12.70   28.11
  -8  -8  23  -77.33   53.71
   8   8 -23   26.81   29.71
   8   8 -24    9.49   29.90
  -8  -8  24  -13.32   29.06
  -8  -8  24   31.66   52.85
   8   8 -24   65.18   64.71
   8   8 -25   16.66   65.43
   8   8 -25   -9.70   28.22
  -8  -8  25  -48.57   60.44
  -8  -8  25   40.86   31.32
   8   8 -26  -20.23   44.00
  -8  -8  26  -13.91   41.20
  -8  -8  26   49.60   64.27
   8   8 -27  -20.63   34.76
  -8  -8  27  -14.49   36.44
  -8  -8  27   32.96   66.71
   8   8 -27  -69.44   75.73
   8   8 -28  -31.53   35.84
  -8  -8  28   29.53   32.63
  -8  -8  28   33.59   64.44
   8   8 -29   10.92   29.22
   8   8 -29  -36.01   74.47
  -8  -8  29  -15.02   32.02
  -8  -8  29  -51.26   61.41
   8   8 -30  -22.21   46.15
  -8  -8  30  -61.07   48.54
  -9   0   0   -7.48   23.14
   9   0   0   11.68   17.81
   9   0   0    9.95   14.59
  -9   0   1  258.43  300.77
  -9   0  -1  388.07  301.29
   9   0  -1  389.63  300.49
   9   0  -1  301.04  300.19
   9   0   1  274.03  300.10
   9   0   1  353.57  300.49
  -9   0  -2   -7.28   22.09
  -9   0   2   -7.05   21.66
   9   0   2   17.26   17.12
   9   0  -2   -4.98   12.60
  -9   0   2  -17.31   31.68
   9   0   2   -5.44   12.27
   9   0   3   85.94   64.16
  -9   0   3   26.71   65.13
  -9   0  -3   29.45   64.68
   9   0  -3   90.71   62.89
   9   0   3   50.52   62.88
   9   0   4    5.60   14.03
  -9   0   4   -8.97   31.21
   9   0  -4  -10.28   14.54
  -9   0  -4    7.41   19.97
   9   0   4   -5.75   16.01
  -9   0   4    6.76   21.64
   9   0  -4   32.14   18.58
  -9   0   5  100.79  105.51
   9   0  -5  192.92  100.90
   9   0   5   34.35   99.83
  -9   0   5   95.80  101.78
   9   0  -5  221.87  102.24
   9   0   5   45.98  100.15
  -9   0  -5  112.65  102.12
   9   0   6    5.73   12.32
  -9   0   6   -9.30   34.38
   9   0   6  -17.47   16.67
   9   0  -6    6.82   19.41
   9   0  -6   -5.27   15.17
  -9   0  -6  -15.16   17.44
   9   0   7   -5.75   23.95
   9   0   7   35.03   27.92
   9   0  -7   32.12   25.05
   9   0  -7   57.30   29.26
  -9   0   7   -9.45   42.55
  -9   0  -7   15.21   27.19
  -9   0  -8    7.65   15.48
   9   0  -8  -14.57   17.85
  -9   0   8   -9.61   33.71
   9   0   8  -17.55   19.34
   9   0  -8    5.55   11.91
   0  -9   9  -10.44   18.66
  -9   0  -9   -7.71   11.87
   0   9  -9   36.78   17.45
  -9   0   9   -9.78   32.45
   9   0  -9  -14.94   20.95
   9   0   9  -17.66   18.22
   9   0  -9   11.30   14.78
   0  -9  10   10.75   21.94
   0   9 -10  -12.62   20.52
   9   0  10  -11.91   16.51
   9   0 -10   11.23   21.84
   9   0 -10   15.29   19.70
   0   9 -10  -10.64   24.32
   9   0 -10  -11.51   15.99
  -9   0  10    9.96   31.33
   0  -9  11  210.40  103.93
   0   9 -11   -6.50  100.49
   0   9 -11   32.89  102.84
   9   0 -11  276.74  102.95
   9   0 -11   23.36  100.17
   9   0 -11  295.58  101.58
   9   0  11   24.04  100.01
   0   9 -12  -20.09   21.20
   0  -9  12   22.83   25.62
   9   0 -12   -6.68   23.87
   9   0 -12   15.94   18.94
   0   9 -12  -22.61   33.61
   9   0  12    6.10   19.00
   9   0 -12   18.45   16.94
   9   0 -13  796.63  208.78
   0   9 -13   13.55  206.44
   0  -9  13  800.35  213.14
   9   0 -13  770.58  209.51
   9   0 -13   56.91  206.13
   0   9 -13   69.95  208.98
   9   0  13   -6.17  205.96
   0   9 -14   24.05   44.75
   0   9 -14   -6.84   25.14
   0  -9  14   97.11   49.74
   9   0 -14  -15.02   26.88
   9   0 -14   13.19   20.47
   0  -9  15  204.78  109.85
   0   9 -15  -28.19  109.36
   0  -9  15  174.26  115.52
   0   9 -15   62.00  115.04
   9   0 -15  144.22  110.68
   9   0 -15  154.80  109.26
   0  -9  16   10.02   28.79
   0   9 -16   -7.10   23.10
   0   9 -16   25.57   46.27
   9   0 -16   -6.87   18.98
   0  -9  16   25.66   38.67
   9   0 -16    8.51   26.54
   0  -9  17   30.98   25.11
   0   9 -17  -21.33   24.44
   0  -9  18   13.39   51.73
   0   9 -18   54.25   57.51
   0  -9  19   86.51   47.99
   0   9 -19   29.55   45.88
   0  -9  19   27.55   59.03
   0   9 -19  -27.91   66.33
   0   9 -20   15.14   27.36
   0  -9  20  -27.96   52.52
   0   9 -20   86.08   65.85
   0  -9  20  -11.12   25.71
   0   9 -21   31.09   43.00
   0   9 -21   14.74   68.44
   0  -9  21   14.36   56.58
   0  -9  21   57.08   42.79
   0  -9  22   11.71   29.68
   0   9 -22  -24.52   30.56
   0  -9  22  -29.48   50.53
   0   9 -22  -60.50   60.36
   0  -9  23   24.30   39.35
   0   9 -23    8.38   35.30
   0  -9  23  -30.22   55.44
   0  -9  24   24.88   33.73
   0   9 -24   -8.91   29.11
   0  -9  24   15.47   57.39
   0   9 -24   47.64   65.71
   0  -9  25   30.95   67.31
   0   9 -25   27.35   42.04
   0  -9  25   91.04   47.95
   0   9 -25 -113.73   87.67
   0   9 -26   -9.32   34.34
   0  -9  26   39.88   34.29
   0   9 -26   83.01   73.74
   0  -9  26   31.63   56.76
   0   9 -27  -16.95   69.98
   0   9 -27   29.61   38.14
   0  -9  27   27.81   39.87
   0  -9  27   32.29   67.82
   0   9 -28 -103.70   73.86
   0   9 -28   10.06   33.15
   0  -9  28   42.53   31.06
   0  -9  28   32.93   59.45
   0   9 -29   41.85   37.08
   0   9 -29  -35.22   84.03
   0  -9  29   28.88   37.08
   0  -9  29  -16.77   65.64
   0   9 -30  -10.64   36.75
   0  -9  30  -30.00   37.62
   0   9 -30  -17.92   76.10
   0  -9  30  -34.12   61.73
   0   9 -31   44.19   43.09
   0  -9  31   15.25   42.00
   9  -1   0  893.24  623.54
   9   1   0  702.64  623.32
  -9   1   0  586.44  623.45
  -9  -1   0  727.48  623.89
  -9   1   0  888.92  624.27
   9   1   0  474.67  622.91
  -9   1   1   43.33   46.65
  -9   1   1   13.07   39.86
   9  -1  -1   24.81   37.81
  -9   1  -1   13.66   40.27
  -9   1  -1  100.50   45.08
  -9  -1   1   75.06   40.65
  -9  -1  -1   37.75   40.13
   9   1   1   41.43   38.53
   9  -1   1   40.35   37.92
   9  -1  -1   49.62   36.78
   9  -1   1   44.09   35.37
   9   1  -1    5.31   36.65
   9   1   1   28.81   36.89
   9   1   2   63.24  188.60
  -9  -1  -2  311.46  190.27
   9   1   2  124.00  189.33
  -9   1   2   85.87  189.48
   9  -1  -2  169.69  189.27
  -9   1  -2  197.45  190.07
  -9  -1   2  168.74  190.38
   9  -1   2  405.60  190.06
  -9   1   2  176.86  192.03
   9  -1  -2  311.72  189.30
   9  -1   2  257.32  189.05
   9   1  -2  197.68  189.07
   9   1   3   11.76   52.64
  -9   1   3   71.78   60.35
   9  -1  -3   32.88   54.31
  -9  -1   3  100.54   57.30
   9  -1   3   56.55   55.05
  -9   1  -3   57.22   56.19
   9   1  -3   60.55   54.52
   9   1   3    5.97   54.23
   9  -1  -3   60.94   53.71
  -9  -1  -3   92.43   55.93
   9   1  -3   72.04   53.14
   9  -1   3   80.72   53.32
   9   1   4   17.65   14.34
  -9   1  -4  -21.33   22.76
  -9  -1   4    7.23   24.04
  -9  -1   4   -2.65    8.90
   9   1  -4  -12.23   18.59
   9  -1   4   16.87   17.26
   9   1   4   47.83   20.18
  -9  -1   4  -17.73   32.41
   9  -1  -4   -5.16   13.76
  -9  -1  -4   30.85   22.41
   9   1  -4   -5.20   15.40
   9  -1   4   31.84   15.49
   9   1   5    5.90   18.23
  -9  -1   5    9.42   16.46
  -9  -1   5   29.27   21.20
   9   1   5    5.98   21.54
  -9  -1   5   14.61   27.28
   9   1  -5    6.32   22.01
   9  -1  -5    5.34   19.43
   9  -1   5   50.27   22.90
  -9   1  -5   21.56   25.30
  -9   1   5   37.05   35.32
   9   1  -5   -5.17   20.02
  -9  -1  -5    7.80   21.42
  -9  -1   5   63.50   34.96
   9  -1  -5   28.05   23.17
   9  -1   5   38.30   19.79
  -9  -1   6   36.73   31.76
   9  -1   6   16.37   29.27
   9   1   6   -5.92   28.08
  -9  -1   6   45.93   41.84
   9   1   6  -24.15   32.22
  -9  -1   6   27.69   35.58
   9  -1   6   72.43   32.46
   9  -1  -6    7.19   31.53
  -9   1   6   -9.42   40.23
   9   1  -6   59.28   33.20
  -9  -1   6   18.21   27.39
  -9   1  -6   65.05   34.90
   9  -1  -6   38.06   30.09
   9   1  -6   57.52   31.44
  -9  -1  -6   54.89   30.12
  -9  -1  -7   23.70   39.76
   9  -1   7   22.31   38.83
   9  -1  -7   91.15   40.64
  -9  -1   7   56.12   44.93
  -9   1   7   -9.60   48.11
   9   1  -7   33.38   42.14
  -9  -1   7   56.25   52.12
   9  -1   7   50.40   40.68
   9   1   7   12.14   40.20
   9  -1  -7    7.32   41.02
  -9  -1   7   20.75   37.63
   9   1  -7   64.08   39.65
  -9   1  -7   51.28   41.58
   9  -1   8   16.74   12.10
  -9  -1   8    9.51   31.75
  -9   1   8   -9.78   30.04
   9  -1  -8  -14.99   16.96
  -9  -1   8  -14.20   22.94
   9   1  -8   27.94   19.91
   9  -1   8   -5.60   17.32
   9   1   8   -6.11   15.87
  -9  -1   8   -9.32    9.15
   9  -1  -8   11.61   14.87
   9   1  -8    5.42   15.02
  -9   1  -8   36.96   17.42
   9  -1   9  -11.19   17.23
   1   9  -9   -6.19   20.96
  -1   9  -9   12.15   20.73
   9   1  -9   40.89   27.87
  -9  -1   9   -7.21   27.12
   9  -1   9   17.05   20.75
   9   1   9  -18.59   21.37
  -9   1  -9    7.42   19.34
   9  -1  -9   67.07   20.77
   9   1  -9   27.39   19.00
   9   1  -9   21.99   22.72
  -9  -1   9    9.66   35.61
   9  -1  -9   30.55   21.46
   1  -9   9  -10.36   20.89
  -9   1 -10    7.46   55.42
   1  -9  10   74.64   58.41
   1   9 -10   -6.36   56.07
  -1   9 -10   25.03   56.79
   9   1 -10  210.92   61.07
   9   1 -10   37.25   57.39
  -9  -1  10   29.46   62.90
   9  -1 -10   54.74   56.09
  -1   9 -10  -21.11   59.71
   9  -1  10   45.64   57.24
   9   1  10   43.80   56.05
   9   1 -10  167.05   57.00
  -9  -1  10   11.36   54.21
   9  -1 -10  111.93   56.74
   9  -1  11   34.36   53.58
   1  -9  11   87.92   58.25
   1   9 -11   -6.55   54.41
  -1   9 -11   -6.45   54.12
  -1   9 -11   10.88   56.80
  -9  -1  11   -9.99   61.26
   9   1 -11   94.66   58.07
   9  -1 -11  104.10   55.00
   9  -1 -11   63.84   54.12
   9   1 -11   22.91   54.05
   9  -1 -11  126.90   53.94
   9   1 -11   84.97   53.58
   1   9 -12   13.50  212.55
  -1   9 -12    6.65  212.76
   1  -9  12  612.04  216.93
  -9  -1  12   10.17  214.18
   9   1 -12  179.61  213.16
   9  -1 -12  635.39  215.02
   9  -1  12   46.14  212.41
   9   1 -12  581.86  214.17
   9   1 -12  592.60  215.37
   9  -1 -12  395.05  213.37
  -1   9 -12   11.22  213.74
   1   9 -13   27.32   30.40
  -1   9 -13  -26.92   29.30
   1  -9  13   23.38   34.76
  -1   9 -13  -23.15   36.88
   9   1 -13   37.93   33.94
   9   1 -13   -7.95   28.18
   9  -1  13   11.63   25.75
   9   1 -13   59.87   23.57
   9  -1 -13   13.54   25.16
   1   9 -14  -13.77  151.70
  -1   9 -14  -33.96  151.94
   1  -9  14  868.43  161.68
   9   1 -14  900.64  158.31
   9   1 -14   40.68  151.09
   9  -1  14   17.70  150.92
  -1   9 -14  -11.95  155.95
   9   1 -14  622.18  153.63
  -1  -9  15   -9.81   24.70
   1  -9  15   29.09   26.36
   1   9 -15  -49.68   23.74
  -1   9 -15  -14.01   24.30
   1  -9  15   24.75   34.11
   9   1 -15   69.11   34.15
   9   1 -15  -16.59   17.47
   9   1 -15   24.87   18.30
  -1   9 -15  -12.32   43.86
  -1  -9  16   90.77   52.76
   1  -9  16   59.82   53.61
   1   9 -16  -35.72   52.78
  -1   9 -16   14.12   51.42
   1  -9  16   63.80   62.66
   9   1 -16  109.87   60.22
   9   1 -16  123.97   51.84
  -1   9 -16  -25.42   65.48
   9   1 -17   66.56   56.19
   1  -9  17   71.27   59.53
  -1   9 -17   28.29   57.67
   9   1 -17   67.65   63.07
  -1  -9  18   53.83   60.00
   9   1 -18   30.50   53.22
   9   1 -18   40.75   42.07
   9   1 -19   76.23   40.60
  -1  -9  19   32.60   44.01
   1  -9  19   86.13   44.97
   1   9 -19   -7.43   43.63
  -1   9 -19   22.06   43.09
  -1   9 -19  -13.89   62.20
   9   1 -19   51.55   51.74
   1  -9  19  -27.43   55.22
  -1  -9  19   41.53   56.61
   1   9 -20   45.79   61.68
  -1   9 -20   15.07   61.11
  -1   9 -20   14.28   84.13
   9   1 -20  118.54   71.25
   1   9 -20  158.62   88.40
  -1  -9  20   98.33   73.20
   1  -9  20   41.77   72.07
  -1  -9  20   78.17   61.95
   1  -9  20   66.44   62.25
   1   9 -21    7.81   29.06
  -1   9 -21   -7.74   28.87
  -1  -9  21   68.79   34.63
   1   9 -21   44.42   60.97
  -1   9 -21   73.40   61.96
   1  -9  21   11.37   30.63
  -1  -9  21  -14.42   48.96
   1  -9  21  -14.31   51.62
  -1  -9  22  -14.80   50.60
   1   9 -22   -8.21   25.09
  -1   9 -22   24.43   24.89
  -1  -9  22  -23.52   25.12
   1   9 -22   75.94   56.85
  -1   9 -22   15.07   60.11
   1  -9  22   14.69   52.45
   1  -9  22   11.68   27.68
  -1   9 -23  -25.05   27.74
  -1   9 -23  -30.90   67.34
  -1  -9  23   48.78   27.76
   1  -9  23  -12.11   27.59
   1   9 -23   -8.41   27.66
   1   9 -23   15.57   64.35
  -1  -9  23  -45.50   53.97
   1  -9  23  -30.13   53.17
  -1   9 -24  -15.83   74.37
  -1  -9  24   74.90   47.32
   1  -9  24  161.31   45.77
   1   9 -24    8.95   45.09
  -1   9 -24   -8.89   43.25
   1   9 -24   15.94   69.19
  -1  -9  24   15.53   63.95
   1  -9  24  -77.16   67.12
   1   9 -25  -16.30   69.62
   1   9 -25  -27.45   33.55
  -1   9 -25   36.36   32.03
  -1   9 -25  -81.01   72.73
  -1  -9  25  -13.05   35.36
   1  -9  25   12.97   29.71
  -1  -9  25  -93.11   66.00
   1  -9  25  -46.30   59.63
   1   9 -26   28.03  126.57
   1   9 -26   83.28  140.94
  -1   9 -26  165.61  145.80
  -1  -9  26  413.09  130.85
   1  -9  26  159.17  129.07
  -1  -9  26  269.58  142.72
   1  -9  26  173.57  137.66
  -1   9 -26   19.29  126.04
  -1   9 -27   67.64   65.94
   1   9 -27    9.90   28.45
  -1   9 -27   -9.85   28.67
  -1  -9  27   27.88   30.76
   1  -9  27  -27.75   29.27
  -1  -9  27   16.18   58.10
   1  -9  27  -48.34   59.71
   1   9 -27   34.00   71.60
   1   9 -28  -17.33   79.16
  -1   9 -28   17.25   80.82
   1   9 -28   30.27   45.57
  -1   9 -28   20.09   45.71
  -1  -9  28   85.23   47.09
   1  -9  28   28.31   45.16
  -1  -9  28   16.50   70.94
   1  -9  28   49.30   72.31
   1   9 -29  -52.96   71.68
  -1   9 -29  -52.73   75.82
   1   9 -29   10.49   36.91
  -1   9 -29  -10.44   39.79
   1  -9  29   14.73   36.38
  -1  -9  29  -84.03   68.43
   1  -9  29  -66.99   63.25
  -1   9 -30  -31.88   33.89
   1   9 -30   17.96   71.95
  -1   9 -30   53.65   73.98
   1   9 -30   21.33   31.05
  -1  -9  30  -15.03   30.95
   1  -9  30   14.99   30.86
  -1  -9  30  -17.10   60.36
   1  -9  30   34.09   56.51
   1   9 -31  -43.34   34.63
  -1   9 -31  -22.06   30.99
  -1  -9  31  -30.54   33.05
   1  -9  31   45.71   29.03
   1  -9  31   86.62   54.66
   9   2   0   42.31  123.22
  -9   2   0   34.68  126.64
   9  -2   0  247.65  125.32
  -9  -2   0  257.35  125.78
   9  -2   0  171.62  123.69
  -9   2   0   71.25  124.66
   9   2   1  181.20  514.03
  -9   2   1  281.67  515.10
  -9   2  -1 1231.30  516.51
   9   2   1  263.88  514.23
   9  -2  -1 1372.77  515.85
  -9  -2   1 1820.98  517.40
   9   2  -1  811.26  514.77
  -9   2  -1  704.27  515.17
   9   2   2    6.05   49.36
  -9  -2   2   68.38   49.05
  -9   2  -2   75.47   58.16
   9  -2  -2   81.18   52.10
  -9   2  -2   12.65   52.77
   9  -2   2   77.96   51.89
   9   2  -2   18.20   50.99
   9   2   2   12.26   51.36
  -9  -2   2   77.80   54.71
   9  -2  -2   61.87   50.47
   9  -2   2   76.19   50.44
  -9  -2  -2   55.40   52.45
  -9   2   2  -53.67   59.96
   9   2  -2   74.61   51.53
   9   2   3  -12.12  146.82
  -9  -2   3  250.55  147.18
  -9  -2   3  331.32  150.11
   9   2  -3  158.61  148.36
   9   2   3   24.58  147.31
   9  -2  -3  227.02  148.77
  -9   2  -3  126.98  148.58
   9  -2   3  230.45  148.26
  -9   2   3    9.10  149.48
   9  -2  -3  173.02  147.85
   9  -2   3  220.35  147.64
  -9   2  -3  157.52  150.09
  -9  -2  -3  184.01  148.62
   9   2  -3  161.55  147.76
  -9  -2   4   -7.79   10.46
  -9  -2   4    7.76   23.25
   9   2   4   12.17   12.03
  -9   2  -4  -32.46   28.74
  -9  -2   4   11.93   10.39
  -9   2   4   18.52   28.25
   9  -2  -4    7.06   17.72
   9   2  -4   -6.15   17.98
  -9   2  -4   21.46   23.43
   9   2   4   -6.20   17.65
   9  -2  -4  -10.98   14.07
   9  -2   4   14.23   12.92
   9   2  -4    5.49   13.60
   9  -2   4   11.41   16.13
  -9  -2  -4    8.04   17.51
  -9  -2  -5  -16.20   18.37
   9  -2  -5  -11.19   14.74
   9  -2   5    5.54   17.05
   9   2  -5    6.22   17.22
  -9  -2   5  -31.74   26.65
  -9   2  -5   -6.99   24.22
   9   2   5   18.70   17.95
  -9  -2   5   17.58   14.79
  -9  -2   5    6.82    9.74
   9   2  -5    5.53   14.37
   9  -2   5   24.63   15.30
   9  -2  -6   80.97  177.13
  -9  -2  -6   73.42  176.88
  -9  -2   6  354.81  181.16
  -9  -2   6  328.45  178.95
   9   2  -6  228.24  176.77
  -9  -2   6  248.32  176.97
  -9  -2   6   28.89  176.93
   9   2  -6  232.32  177.87
   9   2  -6   -4.89  177.36
   9  -2   6  439.92  178.49
  -9   2  -6  140.99  178.05
   9   2   6    6.30  176.77
   9  -2  -6  176.26  177.28
   9   2  -6  330.87  177.44
   9  -2   6  186.40  177.20
   9  -2   7    5.34   17.19
   9   2  -7   15.29   14.62
  -9  -2   7    8.68   14.72
   9  -2  -7   75.35   24.26
  -9  -2   7   29.97   26.93
   9   2  -7  -12.98   21.00
   9  -2   7   43.66   20.87
   9   2   7  -25.43   19.42
  -9   2  -7   21.22   23.32
   9  -2  -7   17.98   17.84
   9   2  -7   -5.39   17.65
  -9  -2   7   18.61   37.66
   9  -2   8   27.19   73.49
  -9  -2   8    9.42   79.45
   9  -2  -8   69.19   74.33
  -9  -2   8  106.14   77.55
   9   2  -8   40.55   74.98
   9  -2   8  146.82   75.25
   9  -2  -8   61.14   74.34
  -9   2  -8   21.15   75.56
   9   2  -8  193.19   75.06
  -9  -2   8   11.40   75.22
  -9  -2   9    9.61   48.84
   9  -2   9    5.43   36.36
   2   9  -9    6.25   38.69
  -2   9  -9  -24.12   39.62
  -9  -2   9   24.58   41.26
   9  -2   9  113.76   40.54
   9   2  -9   52.37   44.86
   9   2  -9   82.20   37.21
   9  -2  -9   15.70   38.76
  -9  -2   9   59.13   37.41
  -9  -2   9   84.49   44.73
   9   2  -9   49.44   39.81
   9  -2  -9    6.39   39.29
   9   2  -9   59.80   38.21
  -9   2  -9  -14.28   39.51
  -2  -9   9   42.56   39.08
   2  -9  10   31.76   61.34
  -2  -9  10   32.83   61.57
   9  -2  10   -5.43   58.56
   2   9 -10   19.28   60.70
  -2   9 -10   -6.21   60.31
  -9  -2  10   97.43   70.00
  -2   9 -10  -31.42   63.12
   9   2 -10  163.82   65.90
   9   2 -10  119.19   59.81
   9  -2  10  162.48   61.95
   2   9 -10  -10.84   64.07
  -9  -2  10  174.92   64.98
   9   2 -10   71.63   61.31
  -9  -2  10   65.68   59.62
   9  -2 -10   78.28   60.87
   9   2 -10  105.53   61.00
  -9   2 -10   -7.20   59.72
  -9   2 -11   -7.22  256.30
  -2   9 -11   10.80  257.38
   2  -9  11  294.67  258.53
  -2  -9  11  326.72  258.75
   2   9 -11  -13.23  256.59
  -2   9 -11   12.80  256.70
   9   2 -11  615.99  259.56
   9  -2  11  769.50  258.07
   9   2 -11  202.81  257.30
  -9  -2  11  651.03  259.14
  -9  -2  11  329.25  256.95
   2   9 -11   11.16  257.63
   9   2 -11  766.81  258.07
  -9  -2  11    9.89  258.46
  -9   2 -12   -7.25   55.77
   2   9 -12   20.43   58.56
  -2   9 -12    6.60   58.65
   2  -9  12  101.35   61.79
  -2  -9  12   69.63   62.89
   2   9 -12   11.50   62.75
   9   2 -12  153.51   65.24
   9   2 -12  161.77   57.60
   9   2 -12  115.37   60.62
  -9  -2  12  -50.24   67.09
  -9  -2  12   -6.94   56.22
   9  -2  12   93.04   58.25
   9   2 -12   63.00   56.78
  -2   9 -12   33.43   62.07
  -9  -2  12   67.49   60.93
   2   9 -13  -35.55  343.52
   9   2 -13  887.13  342.59
   2   9 -13   -6.89  341.60
  -2   9 -13   -6.69  341.35
   2  -9  13  824.98  345.56
  -2  -9  13 1219.38  346.80
  -2   9 -13  -34.51  343.19
   9  -2  13  533.21  342.20
  -9  -2  13  419.23  342.59
  -9  -2  13  207.96  341.42
   9   2 -13 1129.72  343.09
   9   2 -13 1200.06  345.30
  -9  -2  13  -10.21  343.12
   9   2 -13  203.28  341.82
   2   9 -14   13.88   31.35
  -2   9 -14  -13.50   31.56
   9   2 -14   17.88   42.39
   9   2 -14   34.98   26.75
   9   2 -14   15.98   30.98
  -9  -2  14    7.75   34.09
  -9  -2  14   15.82   27.19
   9   2 -14   64.88   29.33
   2   9 -14  -24.42   49.98
  -2   9 -14  -11.87   48.27
  -2  -9  14   98.55   44.95
   2  -9  14   23.99   38.95
  -2  -9  15  769.88  301.61
   9   2 -15  729.71  298.15
  -2  -9  15  751.34  299.84
   2  -9  15  598.04  299.44
   2   9 -15   42.90  297.32
  -2   9 -15   47.66  297.17
   9   2 -15  687.20  300.60
   9   2 -15   -8.16  296.75
   2  -9  15  689.26  301.24
   2   9 -15   62.91  300.41
   9   2 -15  822.49  298.38
  -9  -2  15   50.35  296.66
  -2   9 -15  -24.51  299.35
  -2  -9  16   50.77   56.91
   2  -9  16  109.16   59.03
   2   9 -16  -21.59   56.83
  -2   9 -16   14.04   56.33
  -2   9 -16  -25.29   70.15
   2  -9  16  152.37   65.79
   9   2 -16   77.47   64.18
   9   2 -16  117.62   55.11
   9   2 -16    8.31   54.78
   9   2 -16  128.40   55.51
  -9  -2  16   -8.87   53.79
   2  -9  17   10.14   36.13
  -2   9 -17    7.04   34.41
   9   2 -17   50.99   44.42
   9   2 -17   62.28   30.38
  -9  -2  17   -9.34   27.69
   9   2 -18  160.62   88.26
  -2  -9  18   94.79   87.42
   2   9 -18  -27.46   93.44
   9   2 -18   77.67   77.97
  -2   9 -19   13.83   54.21
  -2  -9  19  -21.86   28.49
   2   9 -19  -14.95   25.59
   2  -9  19  -10.73   22.72
  -2   9 -19   29.30   24.65
   2   9 -19  -42.34   52.17
   9   2 -19   33.62   44.03
  -2  -9  19  -55.68   47.32
   2  -9  19  -13.66   42.00
  -2  -9  20  -22.45   31.00
   2   9 -20  -38.37   35.05
   2   9 -20  -14.50   70.97
   9   2 -20   58.49   45.85
   2  -9  20   55.19   30.11
  -2   9 -20  -14.23   64.26
  -2  -9  20   70.61   63.77
   2  -9  20   13.88   44.95
  -2   9 -20   30.04   26.76
   2   9 -21   44.66   61.74
  -2   9 -21  -14.63   57.23
  -2   9 -21   30.87   25.93
  -2  -9  21   11.52   31.07
  -2  -9  21  -43.49   58.66
   2  -9  21   28.53   47.99
   2  -9  21  -68.06   28.32
   2   9 -21  -23.55   35.21
  -2   9 -22  -90.13   61.57
   2   9 -22   16.10   31.27
   2   9 -22  106.87   61.34
   2  -9  22  -11.65   30.72
   9   2 -22   50.60   49.33
  -2  -9  22  -11.81   30.61
  -2  -9  22   29.73   57.42
   2  -9  22   14.65   50.71
  -2   9 -22   40.60   29.67
  -2   9 -23   49.96   41.63
   2   9 -23   25.35   44.00
   2   9 -23  -62.57   70.19
  -2  -9  23   97.97   45.58
   2  -9  23  -12.09   40.61
   9   2 -23   65.55   61.89
  -2   9 -23  107.88   69.37
   2  -9  23  -15.03   59.00
  -2   9 -24 -173.70   80.00
  -2  -9  24 -112.79   46.25
   2  -9  24   24.77   42.66
  -2   9 -24  -44.32   43.48
   2   9 -24  -17.29   43.34
   2  -9  24  107.80   63.50
   2   9 -24   16.01   76.82
   2   9 -25   64.30  105.18
  -2   9 -25   45.36  104.74
  -2  -9  25  209.48  107.80
   2  -9  25  194.31  107.16
  -2   9 -25   80.83  122.07
   2  -9  25   61.62  114.71
   2   9 -26   28.15   35.79
  -2   9 -26   16.53   73.03
  -2   9 -26   48.13   34.28
  -2  -9  26  -13.37   31.53
   2  -9  26   26.49   30.73
   2  -9  26  -47.27   59.26
   2  -9  27  249.52   80.28
  -2   9 -27  101.31   98.98
   2   9 -27  -19.87   76.57
  -2  -9  27  167.77   80.19
  -2   9 -27   29.50   75.90
   2  -9  27   16.09   95.81
  -2   9 -28   34.46   78.59
   2   9 -28  -40.48   37.63
  -2   9 -28   10.24   36.22
  -2  -9  28  -14.25   35.72
   2  -9  28  -14.14   33.02
   2  -9  28  -16.42   58.36
  -2   9 -29   87.77   74.12
   2   9 -29   42.08   40.94
  -2   9 -29   83.44   40.41
  -2  -9  29  -43.51   39.94
   2  -9  29  -14.72   40.35
   2  -9  29  -33.46   63.48
  -2   9 -30  -53.61   84.49
   2   9 -30   32.09   45.94
  -2   9 -30   31.85   44.71
  -2  -9  30   30.13   44.52
   2  -9  30   59.92   46.49
   2  -9  30   68.12   75.25
  -2   9 -31  -22.05   31.23
   2  -9  31   30.45   29.68
   9   3   0   31.09  505.11
   9  -3   0 2631.86  508.86
  -9   3   0    8.80  505.90
   9  -3   0 2719.97  508.28
   9   3  -1    6.21   27.96
   9   3   1   12.46   27.38
   9  -3  -1    6.82   31.09
   9  -3   1   32.69   30.38
  -9   3   1   26.86   36.79
   9   3  -1   12.63   30.76
   9  -3  -1   58.35   30.07
   9  -3   1   48.87   28.89
  -9   3  -1    8.65   40.08
  -9  -3   1   24.37   32.79
  -9  -3  -1   32.87   32.06
  -9   3  -2  519.44  331.83
   9   3   2   -6.25  329.26
   9  -3  -2 1173.31  332.11
  -9   3  -2  222.66  330.17
   9   3  -2  265.39  330.07
  -9  -3   2 1715.61  334.63
  -9  -3  -2 1023.95  332.30
   9   3   2    6.37  329.50
   9  -3   2 2073.23  332.60
   9   3  -2  429.13  330.31
  -9   3   2   54.70  330.22
   9   3  -3   24.37   17.26
  -9  -3  -3   16.62   16.52
   9  -3   3   -9.52   13.88
   9  -3  -3   22.69   17.05
  -9   3  -3    8.39   28.24
   9  -3  -3   35.53   18.38
  -9   3  -3  -18.85   22.68
   9  -3   3   12.28   18.05
   9   3  -3   -6.26   19.87
   9   3   3   -6.43   17.11
  -9  -3   3   16.07   23.89
  -9  -3  -4  117.13  122.07
  -9  -3   4  198.16  121.43
   9   3  -4   74.56  120.97
  -9   3  -4  107.61  124.03
   9  -3  -4   65.21  121.65
  -9   3  -4   99.21  122.37
   9   3   4   -6.47  121.42
  -9  -3   4  239.93  124.55
   9  -3  -4  208.24  122.34
   9   3  -4   74.93  121.99
   9  -3   4  279.81  122.11
   9  -3   4  146.84  122.14
   9   3  -4   97.87  121.57
  -9   3  -5   48.73   32.18
  -9  -3   5  -10.28   14.15
  -9  -3   5    3.99   12.26
   9   3  -5   -5.51   11.85
   9  -3  -5   -7.42   16.99
   9  -3   5   17.41   18.59
  -9   3  -5   19.64   23.03
   9   3  -5  -12.55   17.53
  -9  -3   5   40.19   27.74
   9  -3  -5    6.04   14.76
   9  -3   5   23.43   14.13
   9   3  -5   -5.10   14.83
   9   3  -5   17.81   15.29
  -9  -3   6   25.76   17.45
   9   3  -6   17.68   15.40
  -9   3  -6  -40.16   32.42
  -9   3  -6   -7.00   26.15
   9   3  -6   12.66   21.93
  -9  -3   6   23.92   24.66
   9  -3  -6    6.17   18.93
   9  -3   6   37.09   17.52
   9   3  -6   -5.98   17.28
   9  -3   6   -5.58   19.19
  -9   3  -7   62.90   76.71
  -9  -3   7   -6.05   73.32
   9   3  -7   12.09   75.08
   9   3  -7   76.78   74.53
  -9  -3   7   96.41   77.30
  -9   3  -7   20.50   74.49
   9  -3  -7   25.19   72.36
   9  -3   7   93.92   73.42
   9   3  -7  170.78   73.47
   9  -3   7  105.77   72.90
  -9   3  -8   93.56   65.01
  -9  -3   8  113.51   63.13
  -9  -3   8   56.07   67.45
   9   3  -8   81.57   58.76
   9  -3   8   82.20   60.00
   9   3  -8   33.00   60.68
  -9  -3   8   96.16   59.52
  -9   3  -8    6.88   61.05
  -9  -3   8   32.26   60.89
   9   3  -8   80.43   60.10
   9  -3   8   15.14   58.59
   9   3  -8   39.32   62.33
   9  -3   9   10.39   24.39
   3   9  -9  -12.63   27.89
  -3   9  -9    5.99   26.32
  -9  -3   9   49.77   25.90
   9   3  -9   26.81   25.00
   9   3  -9   13.34   30.45
   9  -3   9   47.94   28.59
  -9  -3   9   41.57   34.67
  -9  -3   9   -6.88   32.05
  -9  -3   9    9.55   42.73
  -9   3  -9   13.79   29.15
   9   3  -9   66.54   26.18
   9   3  -9  -21.23   36.40
  -3  -9   9  -10.75   27.40
  -9  -3  10   48.33  215.95
   3  -9  10  115.65  212.99
   9  -3  10   63.46  212.18
  -3  -9  10  176.85  213.86
  -9  -3  10  455.85  213.50
   9   3 -10  569.21  213.30
   3   9 -10    6.49  212.43
   9   3 -10  129.43  214.26
   9  -3  10  530.08  213.82
   9   3 -10  403.80  213.71
   9   3 -10  284.73  213.58
   3   9 -10  -10.95  213.40
  -9  -3  10  613.85  216.29
  -3   9 -10    6.17  212.48
  -9   3 -10   20.89  212.58
  -9  -3  10  274.75  213.92
  -9  -3  11  -15.26   27.73
   9   3 -11   14.28   16.26
   9  -3  11    5.27   12.00
   3  -9  11  -21.69   25.79
  -3  -9  11   22.75   24.30
   3   9 -11    6.68   20.97
  -3   9 -11  -12.72   19.86
  -3   9 -11  -10.73   27.37
   9   3 -11  -24.47   36.17
  -9  -3  11   -9.86   37.93
  -9  -3  11   13.02   16.92
  -9  -3  11   31.52   26.20
   9  -3  11   10.54   19.30
   3   9 -11  -11.27   30.49
   9   3 -11   39.76   16.61
  -9   3 -11  -13.99   16.80
   9   3 -11   -7.25   22.35
  -9  -3  12   39.96  603.54
  -9  -3  12 1224.96  603.77
   9   3 -12 1376.44  603.54
   3   9 -12   -6.88  602.45
  -3   9 -12   -6.44  602.43
  -9  -3  12  553.67  603.54
  -3  -9  12  831.61  604.57
   3  -9  12 1354.55  605.12
  -3   9 -12  -22.15  602.97
   9   3 -12  884.88  604.55
   9  -3  12 1756.29  604.08
  -9  -3  12 1948.38  605.29
   9   3 -12  470.54  602.96
   9   3 -12 1686.19  603.99
   3   9 -12   11.61  602.87
  -9  -3  13   24.30   36.37
   3   9 -13   13.90   27.76
  -3   9 -13   -6.65   27.90
   3  -9  13   23.11   46.30
  -3  -9  13   12.06   36.40
   9   3 -13   33.08   25.15
   9   3 -13   83.03   47.83
  -9  -3  13   15.15   23.79
  -9  -3  13   10.13   45.23
   3   9 -13  -11.96   44.41
   9   3 -13   22.96   25.27
  -3   9 -13   45.74   44.36
   9   3 -13   15.41   30.42
  -9  -3  14  786.85  488.79
   9   3 -14 1518.63  489.27
   3   9 -14   -7.00  487.61
  -3   9 -14    6.72  487.60
   9   3 -14  118.27  487.75
  -9  -3  14  -10.29  488.53
  -9  -3  14 1331.35  490.03
   9   3 -14 1154.31  491.10
   3   9 -14  -36.95  488.57
   9   3 -14 1672.43  489.55
   3  -9  14 1682.58  492.43
  -3  -9  14 1565.28  492.61
  -3   9 -14  -23.62  488.45
  -3   9 -15  -24.39   44.82
  -3  -9  15  -19.93   28.95
   3  -9  15   48.01   26.83
   3   9 -15  -21.63   24.79
  -3   9 -15  -13.55   22.23
  -9  -3  15  -10.45   35.94
   3   9 -15   12.69   45.15
   3  -9  15   12.25   36.04
  -3  -9  15   12.72   33.58
   9   3 -15   20.15   40.89
   9   3 -15   -6.17   17.00
  -9  -3  15   46.90   28.05
   9   3 -15   -8.05   21.56
  -9  -3  15    8.66   15.40
   9   3 -15   -5.92   16.99
   9   3 -16  537.36  258.33
  -3  -9  16  491.02  259.45
   3  -9  16  454.61  259.38
   3   9 -16   36.26  257.23
  -3   9 -16   -6.99  257.27
   3  -9  16  859.84  262.68
   9   3 -16  583.40  261.66
   9   3 -16  -24.54  256.93
  -9  -3  16  254.22  258.46
  -3   9 -16  -12.59  259.99
  -9  -3  16  118.50  257.03
   9   3 -16  727.77  258.44
  -9  -3  17    9.57   31.82
   3  -9  17  111.10   40.15
  -3   9 -17  -28.04   35.00
   9   3 -17   77.96   53.52
   9   3 -17   34.82   30.18
   9   3 -17   25.06   33.04
  -9  -3  17    8.08   38.98
   9   3 -17   43.18   31.53
   3   9 -18   29.84   40.93
   9   3 -18   45.28   53.73
   9   3 -18   29.51   37.67
  -3  -9  18   81.80   52.53
  -9  -3  18   20.04   36.50
   3   9 -18   41.48   64.04
  -3   9 -19  -27.58   60.93
  -3  -9  19  -11.00   28.05
   3   9 -19    7.52   28.45
   9   3 -19   59.11   47.26
   9   3 -19   30.82   18.28
  -3  -9  19  -42.04   50.90
   3  -9  19   13.62   43.15
   3   9 -19  -85.28   62.80
  -9  -3  19   10.46   22.49
  -3   9 -20   -7.49   26.31
   3   9 -20  -30.90   35.86
  -3   9 -20   14.19   55.25
  -3  -9  20  -11.29   32.76
   9   3 -20   49.25   51.97
   9   3 -20   -8.02   20.08
  -3  -9  20 -100.72   70.51
   3  -9  20  -42.05   45.93
   3   9 -20  -29.19   67.95
   3  -9  20   11.01   29.93
  -9  -3  20   10.90   19.43
  -3   9 -21   -7.70   36.03
   3  -9  21  -22.64   36.55
  -3  -9  21   23.17   41.68
   3   9 -21   78.98   45.20
  -3   9 -21   43.77   65.57
   3  -9  21  -14.23   54.10
  -3  -9  21  102.07   61.29
   3   9 -22  -24.89   29.09
   3  -9  22   35.28   31.80
   9   3 -22   26.54   48.50
  -3   9 -22 -119.91   62.74
  -3  -9  22   23.75   28.67
   3   9 -22  -46.06   62.28
  -3   9 -22  -32.40   29.17
  -3  -9  22   14.95   52.75
   3  -9  22   43.86   52.48
   3   9 -23    8.50   27.52
  -3   9 -23   24.93   28.27
   3   9 -23  -15.73   62.90
  -3   9 -23   46.13   58.19
  -3  -9  23   12.31   28.44
   3  -9  23  -12.07   27.36
   9   3 -23   27.47   53.55
   3  -9  23  -30.01   49.17
  -3  -9  23  -15.31   48.64
   3   9 -24    8.69  126.31
   3   9 -24   16.09  142.50
  -3   9 -24  141.90  145.19
  -3  -9  24  138.49  127.74
   9   3 -24  -14.18  132.70
   3  -9  24  505.61  130.02
  -3  -9  24  438.55  142.19
   3  -9  24   46.13  140.61
  -3   9 -24   26.55  125.71
   3   9 -25  -49.34   65.50
  -3   9 -25   16.14   64.71
  -3   9 -25  -36.23   27.45
   9   3 -25  -14.62   63.43
  -3  -9  25   13.15   32.10
   3  -9  25   12.94   28.04
   3   9 -25   -9.23   32.43
  -3  -9  25   80.05   57.99
   3  -9  25   15.75   53.74
   3  -9  26  141.64  137.37
   3   9 -26    9.42  128.27
  -3   9 -26  -16.51  142.84
  -3   9 -26   -9.62  128.93
  -3  -9  26  483.39  133.83
  -3  -9  26  575.24  145.90
   3  -9  26  189.83  131.07
   3   9 -26   33.59  143.63
   3   9 -27   51.39   69.96
  -3   9 -27 -118.07   79.79
   3   9 -27  -19.95   31.76
  -3   9 -27   19.64   27.46
   3  -9  27   41.56   31.83
  -3  -9  27   16.30   57.52
   3  -9  27   16.08   57.71
  -3  -9  27  -28.07   29.56
   3   9 -28  890.32  212.36
  -3   9 -28  499.22  198.80
   3   9 -28  193.03  176.99
  -3   9 -28   71.59  174.69
  -3  -9  28  157.29  175.14
   3  -9  28  254.44  175.99
  -3  -9  28  116.25  184.90
   3  -9  28   16.41  180.05
   3  -9  29  -14.71   29.57
   3   9 -29   53.30   77.93
  -3   9 -29  -17.54   75.71
   3   9 -29   52.79   35.34
  -3   9 -29   52.13   36.24
  -3  -9  29  -14.55   34.22
  -3  -9  29  -67.60   66.96
   3  -9  29  -16.73   66.31
   3   9 -30 -162.57   86.00
  -3   9 -30   17.86   84.37
   3   9 -30  128.79   46.23
  -3   9 -30   10.84   41.41
  -3  -9  30  -30.22   46.63
   3  -9  30   14.98   40.40
  -3  -9  30   85.92   72.26
   3  -9  30   85.17   70.45
  -3   9 -31 -127.15   70.53
  -3   9 -31  -22.05   37.87
   3  -9  31   15.23   38.32
   3  -9  31  -51.96   67.18
  -9  -4   0  135.78  123.76
   9   4   0   -6.55  122.74
   9  -4   0  207.62  123.11
   9  -4   0  171.80  123.38
   9   4  -1  -19.23  438.54
   9  -4  -1 1695.27  441.50
  -9  -4  -1 1664.86  442.40
  -9   4  -1    8.83  439.11
   9   4  -1    6.53  438.67
   9   4   1    6.61  438.70
   9  -4  -1 2153.68  441.52
   9  -4   1 2570.08  441.81
  -9  -4   1 2892.99  444.52
  -9  -4  -2   25.76   27.14
   9   4  -2   -6.40   26.46
   9   4  -2   -2.97   24.85
   9  -4   2   39.56   27.84
  -9   4  -2   -8.67   37.28
   9  -4  -2    7.18   27.52
   9   4  -2   19.48   29.42
   9  -4  -2   51.37   28.41
   9  -4   2   79.75   28.03
  -9  -4   2   50.60   30.64
   9   4  -3   19.20  203.26
   9   4  -3   -9.36  203.08
   9  -4   3  641.30  205.61
   9  -4  -3  322.30  204.87
  -9  -4   3  851.30  208.32
  -9   4  -3  -34.06  204.84
   9   4  -3   13.00  203.61
   9  -4  -3  542.77  205.06
   9  -4   3  936.73  205.49
   9   4  -4   51.25  144.02
  -9   4  -4   25.02  144.58
   9  -4   4  271.79  145.37
  -9   4  -4   16.75  146.78
   9   4  -4   19.53  144.54
   9  -4   4  434.68  145.31
   9  -4  -4   66.99  144.43
  -9  -4   4  443.45  147.58
   9   4  -5   25.69   30.11
   9   4  -5   -6.45   33.19
   9  -4   5   24.89   31.74
  -9   4  -5   -6.17   32.66
  -9  -4   5   90.95   38.88
   9  -4   5   56.05   30.39
  -9   4  -5    8.24   39.17
   9   4  -6  -12.60   16.82
  -9  -4   6  -12.74   16.44
  -9   4  -6   56.82   34.44
   9   4  -6  -14.06   14.81
   9  -4   6   65.28   19.45
   9   4  -6    6.33   19.43
  -9   4  -6   -6.50   23.93
   9   4  -6    6.43   21.19
  -9  -4   6   49.79   24.43
   9  -4   6   22.84   15.51
   9   4  -7    6.33   15.44
   9   4  -7    6.75   24.20
  -9  -4   7   10.56   14.46
  -9  -4   7   13.61   19.20
   9   4  -7    7.30   12.38
  -9   4  -7   64.06   30.99
   9  -4   7   11.71   16.52
  -9   4  -7  -20.79   23.75
  -9  -4   7  -16.68   22.94
   9  -4   7    4.58   13.82
   9   4  -7   -6.48   22.68
   9  -4   8   69.36   34.75
  -9  -4   8  -21.77   35.67
   9   4  -8   28.84   38.26
  -9  -4   8   16.74   31.77
   9   4  -8   11.68   30.91
  -9   4  -8   55.32   42.51
   9   4  -8   13.04   35.03
  -9   4  -8   -6.74   35.99
  -9  -4   8  124.85   39.75
   9  -4   8   52.13   31.54
   9   4  -8   24.62   31.83
   4   9  -9   -6.39  144.91
  -4   9  -9  -11.89  144.67
  -9   4  -9   87.99  146.18
   9   4  -9  142.56  144.68
  -9  -4   9  344.31  146.03
  -9  -4   9   46.16  145.79
   9  -4   9  315.85  146.29
   9   4  -9  125.15  145.74
  -9  -4   9  452.93  148.44
  -9   4  -9  320.29  148.82
   9   4  -9   23.06  146.25
   9  -4   9  203.28  145.14
   9   4  -9  167.47  145.35
   9  -4  10   30.50   22.04
   4  -9  10  -10.45   26.26
   9   4 -10    4.32   23.92
  -4  -9  10  -11.17   27.67
   9   4 -10   40.89   36.69
  -9   4 -10   69.12   36.44
   4   9 -10   -6.56   27.27
  -4   9 -10   36.76   28.07
  -9  -4  10   44.21   25.44
  -9  -4  10   64.39   32.90
  -9  -4  10   -9.61   42.95
   9  -4  10   10.97   25.84
   4   9 -10  -11.08   33.86
  -9  -4  10   41.68   34.77
  -9   4 -10   -6.76   28.06
   9   4 -10    6.79   28.49
   9   4 -10   37.54   25.65
   4  -9  11  409.70  333.62
  -9  -4  11 1099.57  334.41
  -4  -9  11  471.21  333.70
   9   4 -11  817.19  333.05
   4   9 -11   20.25  332.17
  -4   9 -11    6.32  332.11
  -9  -4  11    9.82  336.94
  -4   9 -11   53.30  332.60
   9   4 -11   52.09  333.31
   9   4 -11  289.58  332.90
  -9  -4  11  480.83  333.80
  -9  -4  11 1675.14  337.11
   4   9 -11  -34.18  332.84
   4   9 -12   11.73   44.46
   9   4 -12   -9.19   48.11
   4  -9  12   11.13   40.65
   4   9 -12   -6.95   36.11
  -4  -9  12   11.83   39.04
  -4   9 -12  -19.21   35.69
   9   4 -12   -7.14   35.90
   9   4 -12   44.77   33.75
  -9  -4  12   35.92   33.47
  -4   9 -12   33.03   42.58
  -9  -4  12  161.68   43.07
  -9  -4  12   10.00   52.90
  -9  -4  12   -8.73   42.57
   9   4 -12  102.65   36.38
   4   9 -13  -36.23  449.98
  -9  -4  13 1566.32  451.35
   9   4 -13 1555.85  450.44
   4   9 -13   21.05  448.63
  -4   9 -13  -19.41  448.48
   4  -9  13 1069.36  451.81
  -9  -4  13  192.26  451.40
   9   4 -13  320.54  450.65
  -9  -4  13 2796.81  454.81
  -4   9 -13  -22.75  449.58
  -4  -9  13 1388.02  452.75
  -9  -4  13  940.82  451.01
   9   4 -13  208.71  448.97
  -9  -4  14   19.14   39.26
   4  -9  14  -27.78   32.21
   4   9 -14   14.13   31.23
  -4   9 -14   20.05   30.65
   4  -9  14   47.52   40.25
  -4  -9  14   37.61   42.25
  -4   9 -14   47.01   47.30
   9   4 -14   57.51   29.50
   9   4 -14   20.47   47.66
  -9  -4  14   65.37   30.39
   4   9 -14   37.30   46.78
   9   4 -14  -46.80   33.37
  -9  -4  14   10.25   44.34
   9   4 -14   29.56   27.45
  -9  -4  14   61.97   39.16
  -9  -4  15  783.04  330.16
   9   4 -15  934.84  329.84
  -9  -4  15  301.72  330.69
  -4  -9  15  663.32  330.78
   4  -9  15  619.91  330.25
   4   9 -15   -7.11  328.47
  -4   9 -15   20.24  328.27
   9   4 -15   -7.97  328.23
  -4   9 -15  -12.14  330.22
   4  -9  15  805.34  332.00
   9   4 -15  398.08  331.63
  -9  -4  15 1157.50  332.29
  -9  -4  15  -20.78  329.66
  -4  -9  15 1103.54  334.10
   4   9 -15   25.60  330.37
  -4  -9  16   10.31   28.07
   4  -9  16   -9.85   26.03
  -9  -4  16   21.09   40.27
   4   9 -16  -14.63   23.80
  -4   9 -16   -6.77   21.60
  -9  -4  16   10.54   36.91
   4  -9  16  -12.60   39.71
   9   4 -16   11.24   43.85
   9   4 -16   -6.58   18.43
  -9  -4  16   -9.23   19.01
  -9  -4  16   27.30   32.95
  -4   9 -16   25.07   45.00
   4  -9  17  281.93  152.78
  -4   9 -17    6.99  150.78
   9   4 -17  141.13  156.57
   9   4 -17  309.05  152.04
  -4  -9  17  108.69  157.17
   4  -9  17  260.05  156.84
  -9  -4  17  137.99  151.14
  -4  -9  18   21.61   24.98
   4   9 -18   30.07   25.77
   4   9 -18   41.81   55.52
   9   4 -18  -12.27   48.25
   9   4 -18   -7.33   19.83
  -4  -9  18  -13.73   43.35
  -9  -4  18  -30.85   20.78
  -4  -9  19  -11.07   29.39
   4   9 -19   22.73   29.58
   9   4 -19   37.41   56.32
   9   4 -19   15.59   25.78
  -4  -9  19   28.22   46.34
   4  -9  19   40.76   46.40
  -9  -4  19   10.71   24.90
   4   9 -19  -28.63   63.77
  -4   9 -19  -68.75   57.62
  -4  -9  20   68.21   38.75
   4   9 -20   14.70   63.56
  -4   9 -20  -14.16   58.29
   4  -9  20   65.91   36.80
  -4   9 -20   -7.47   32.40
  -4  -9  20   86.93   51.07
  -9  -4  20   11.13   30.13
   4  -9  20  -13.99   49.62
   4   9 -20    7.75   34.62
  -4   9 -21   58.24   61.81
   4   9 -21   31.80   27.15
  -4  -9  21  -11.66   32.40
   4   9 -21  -60.31   60.13
   4  -9  21  -11.30   31.42
   9   4 -21  -40.31   51.82
  -4   9 -21    7.87   25.13
  -4  -9  21   74.30   54.34
   4  -9  21  -28.42   46.35
  -4  -9  22   11.95   28.88
  -4   9 -22 -119.68   59.30
   4  -9  22   35.24   27.89
   9   4 -22   27.81   53.27
   9   4 -22   17.59   21.86
  -4  -9  22   75.18   54.14
   4  -9  22   29.20   47.17
  -4   9 -22  -40.42   29.60
  -9  -4  22   11.94   19.54
   4   9 -22   -8.35   24.68
   4   9 -22   77.26   59.57
   4   9 -23  -25.64   59.24
  -9  -4  23  -12.34   54.80
  -4   9 -23   60.37   59.91
   4   9 -23 -110.75   85.06
  -4  -9  23  123.73   62.01
   9   4 -23  -14.37   75.06
   4  -9  23   84.39   59.21
   9   4 -23  109.02   56.37
  -4   9 -23   15.36   75.98
   4  -9  23  104.90   76.83
  -4   9 -24    8.84   31.71
   4   9 -24 -129.46   76.11
  -4  -9  24  -12.66   33.36
   9   4 -24   29.63   70.77
   4  -9  24   88.41   36.20
  -4   9 -24  -78.74   73.03
   4   9 -24   36.33   31.41
  -4  -9  24   31.49   59.60
   4  -9  24  -15.37   56.47
  -9  -4  24  -12.72   26.05
   4   9 -25   74.22  161.45
   4   9 -25   16.54  172.58
  -4   9 -25  112.91  174.29
  -4   9 -25   84.57  160.78
  -4  -9  25  700.42  167.77
   4  -9  25  129.35  164.18
  -4  -9  25  418.31  169.44
   4  -9  25  -15.74  166.95
   4   9 -26   66.28   38.91
   4   9 -26  -33.77   69.48
  -4   9 -26  -33.00   72.93
  -4   9 -26    9.61   37.81
   9   4 -26  -47.00   73.20
  -4  -9  26   53.95   35.24
   4  -9  26   27.11   36.96
  -4  -9  26  -65.70   61.61
   4  -9  26   15.74   57.54
  -4   9 -27  118.02  108.68
   4   9 -27  -17.21  101.85
   4   9 -27   40.08   84.37
  -4   9 -27   50.12   83.24
   9   4 -27  112.52  102.00
  -4  -9  27  239.55   87.95
   4  -9  27   27.71   83.09
  -4  -9  27  167.47  100.38
   4  -9  27   80.41  102.02
   4   9 -28 -157.83  113.56
   4   9 -28  -51.03   59.70
  -4   9 -28  -40.91   49.47
   9   4 -28  -82.32   78.66
  -4   9 -28  -68.82   94.32
  -4  -9  28  -14.35   52.28
   4  -9  28  -14.44   48.53
  -4  -9  28   16.67   75.69
   4  -9  28   16.42   73.62
   4   9 -29  -17.84   82.04
  -4   9 -29   17.55   78.90
   4   9 -29  -10.60   47.53
  -4   9 -29   20.85   45.46
  -4  -9  29  131.43   53.92
   4  -9  29   73.61   51.57
  -4  -9  29   67.86   73.19
   4  -9  29   50.21   73.25
   4   9 -30   18.14   85.83
  -4   9 -30  -17.86   74.84
   4   9 -30   53.86   36.41
  -4   9 -30   21.69   32.32
  -4  -9  30  -15.16   34.53
   4  -9  30  -14.99   30.50
   4  -9  30  -17.04   59.25
  -4   9 -31  -54.52   78.65
  -4   9 -31  -11.03   27.75
   4  -9  31   15.24   29.76
   4  -9  31  -17.33   59.49
   9  -5   0  837.30  439.76
   9   5   0   34.20  438.46
   9  -5   0  953.23  439.73
  -9  -5   1  430.17  267.36
   9  -5   1  229.34  266.29
   9   5  -1    6.81  265.92
   9  -5   1  491.89  266.92
   9  -5  -1  365.86  266.61
   9  -5   2  326.89  263.08
  -9  -5   2  568.33  264.63
   9   5  -2   13.50  262.42
   9  -5  -2  445.17  263.29
   9   5  -3   -6.61  236.92
   9  -5   3  480.63  238.37
  -9  -5   3  940.33  240.75
   9  -5   3  819.08  239.02
   9   5  -3   -6.70  237.26
   9   5  -4    6.60   46.71
   9   5  -4  -11.56   45.90
   9  -5   4  122.73   47.17
   9  -5   4   91.30   48.91
   9   5  -4    6.69   47.49
  -9  -5   4  139.08   50.78
   9   5  -5   -6.60  126.89
   9   5  -5    4.03  126.96
  -9   5  -5   50.32  129.55
   9  -5   5  255.99  128.75
   9   5  -5   -6.70  127.73
   9  -5   5  548.07  128.95
  -9  -5   5  416.64  131.66
  -9   5  -6  -32.94   39.40
   9   5  -6   19.82   32.28
   9   5  -6   16.64   31.09
   9  -5   6   43.79   31.96
  -9   5  -6    6.15   35.05
   9   5  -6   -6.63   34.67
   9  -5   6   60.57   31.25
  -9  -5   6   95.59   37.67
  -9  -5   7  -15.17   92.28
   9   5  -7    6.62   92.03
   9   5  -7   17.13   92.40
   9   5  -7   39.89   93.45
  -9   5  -7  -24.27   95.83
   9  -5   7  252.06   94.46
  -9   5  -7    6.06   93.33
   9   5  -7   -7.54   93.17
   9  -5   7  386.26   94.18
  -9  -5   7  293.73   97.30
   9   5  -8   -6.65   17.48
  -5   9  -8   11.47   18.60
  -9  -5   8   24.81   20.85
  -9  -5   8   -8.00   21.78
   9   5  -8   22.05   18.43
  -9   5  -8   47.71   34.12
   9  -5   8    6.04   20.07
  -9   5  -8   31.83   24.96
   9   5  -8   15.88   25.86
   9   5  -8    6.63   24.16
  -9  -5   8    8.67   26.70
   9  -5   8    4.47   16.43
   9   5  -9  100.21  126.87
   9  -5   9  253.70  127.85
   5   9  -9  -12.92  126.53
  -5   9  -9  -11.81  126.41
  -9  -5   9  320.48  128.05
   9   5  -9   81.38  126.47
  -9  -5   9  -16.85  127.46
   9   5  -9  -16.74  127.84
  -9   5  -9   46.94  128.78
  -9   5  -9   20.31  127.41
   9   5  -9   46.75  127.02
   9  -5   9  518.88  127.77
  -9  -5   9  515.24  131.51
   9   5 -10  111.69   88.71
  -5  -9  10   45.20   89.13
   5   9 -10   26.55   89.02
  -5   9 -10  -18.27   88.69
  -9  -5  10  320.90   90.65
   9   5 -10   95.24   88.26
  -9  -5  10   17.65   90.19
   9   5 -10  -13.47   89.10
   9   5 -10   26.45   91.26
   9   5 -11  198.53  136.14
   5  -9  11   75.06  136.37
  -5  -9  11  174.29  138.14
   9   5 -11  -18.56  138.75
  -9  -5  11  196.06  148.60
   5   9 -11    6.83  135.30
  -5   9 -11   12.57  135.31
  -9  -5  11  365.61  137.74
   9   5 -11  206.53  135.90
  -5   9 -11  -21.19  136.58
  -9  -5  11  325.07  140.19
   9   5 -11   33.94  136.00
   5   9 -11  -11.52  136.85
  -9  -5  12  384.03  204.34
   5  -9  12   88.63  201.72
   5   9 -12  -20.67  201.41
  -5   9 -12    6.37  201.03
  -5  -9  12  717.22  206.20
   9   5 -12  401.75  202.02
   5   9 -12  -11.86  202.69
   9   5 -12   48.79  203.64
  -9  -5  12 1009.33  206.75
  -5   9 -12  -10.95  202.44
   9   5 -12   97.95  201.65
   9   5 -12  527.20  202.72
  -9  -5  12   50.00  209.19
  -9  -5  13   20.19   90.49
  -5   9 -13  -11.32   85.73
  -9  -5  13  197.64   83.48
   5   9 -13  -14.18   82.30
  -5   9 -13   25.77   82.43
   5  -9  13  125.95   85.07
  -5  -9  13  172.24   87.58
   5   9 -13   24.41   88.88
   9   5 -13  -10.24   90.06
   9   5 -13   21.81   82.79
  -9  -5  13   59.69   87.13
  -9  -5  13  421.59   88.65
   9   5 -13  136.59   82.27
   9   5 -13   77.54   81.99
  -9  -5  14  967.08  273.60
  -9  -5  14  796.14  271.93
   5  -9  14  617.96  272.15
   5   9 -14   14.28  269.67
  -5   9 -14    6.50  269.54
  -9  -5  14  302.27  271.74
   5  -9  14  709.91  273.25
  -5  -9  14  772.16  274.33
   5   9 -14   12.56  271.38
   9   5 -14   10.73  272.05
  -9  -5  14   30.81  272.88
  -5   9 -14  -11.70  270.76
   9   5 -14   22.73  269.65
   9   5 -14  435.15  270.24
   9   5 -14  519.24  270.60
  -5   9 -15   24.18  126.66
   9   5 -15  151.31  121.97
  -9  -5  15  -10.39  126.45
  -5  -9  15  253.55  123.88
   5  -9  15  199.61  123.28
   5   9 -15   21.53  121.94
  -5   9 -15   20.16  121.80
  -5  -9  15   91.19  125.22
   9   5 -15   11.22  127.78
  -9  -5  15  298.02  123.51
   5  -9  15  220.10  125.94
  -9  -5  15  291.68  125.37
   5   9 -15   25.85  129.02
  -9  -5  15   53.27  124.80
   5  -9  16  340.51  166.20
  -5   9 -16    6.75  163.53
   5  -9  16  276.28  167.79
   9   5 -16  117.15  168.94
  -9  -5  16  299.13  164.87
   9   5 -16  223.74  164.21
  -9  -5  16  166.83  167.48
  -5   9 -16  -24.99  167.83
  -9  -5  17   46.34   80.64
   5  -9  17   90.40   73.19
  -5   9 -17   -6.83   72.21
   5   9 -17   27.35   86.23
   9   5 -17  106.76   72.18
   9   5 -17   12.21   85.85
  -5  -9  17  137.01   83.49
   5  -9  17  207.46   81.36
  -9  -5  17  136.39   73.17
  -5   9 -17  -64.49   83.15
  -9  -5  18   11.87   49.70
  -5  -9  18  -21.79   29.21
   5   9 -18    7.44   26.94
   5   9 -18   42.16   64.26
   9   5 -18  -38.09   56.56
   9   5 -18   14.80   24.55
  -5  -9  18   14.08   47.99
  -9  -5  18  -20.76   23.40
  -5  -9  19  122.74   85.82
   5   9 -19   -7.64   82.63
   5   9 -19   43.30  101.09
  -5   9 -19  -13.72   97.77
   9   5 -19  117.65   83.52
  -5  -9  19  156.43   93.47
   5  -9  19   94.93   96.58
  -9  -5  19  204.79   84.96
  -5   9 -20   28.26   58.11
  -5  -9  20   22.90   28.44
  -9  -5  20  -25.54   47.72
   5   9 -20  -15.62   27.44
   5  -9  20   10.97   26.79
   5   9 -20   44.44   59.76
  -5  -9  20  -14.59   45.04
  -5   9 -20  -37.29   27.30
   5  -9  20   83.82   47.23
  -5  -9  21  246.51   80.37
  -9  -5  21   26.42   85.97
   5   9 -21   24.03   75.93
   5   9 -21  -45.56   91.35
  -5   9 -21  -14.54   92.52
   5  -9  21  171.30   79.55
   9   5 -21  140.85   96.03
   9   5 -21  117.68   75.73
   5  -9  21   57.49   87.71
  -5   9 -21  -23.58   75.58
  -9  -5  21   59.00   76.15
  -5  -9  21  209.49   92.37
   5   9 -22  -46.68   60.68
   5   9 -22   33.63   25.97
  -5   9 -22    8.08   24.40
  -5   9 -22  -29.89   59.88
  -5  -9  22  -36.08   27.13
   9   5 -22  116.36   62.35
   5  -9  22  -11.74   28.60
   9   5 -22    8.87   22.01
  -5  -9  22  -45.41   44.02
   5  -9  22  -14.59   47.90
  -9  -5  22   12.18   21.75
   5  -9  23   14.98   52.29
   5   9 -23  -34.41   33.14
  -9  -5  23  -12.56   31.67
  -5   9 -23    8.62   34.57
   5   9 -23  -15.93   74.64
  -5   9 -23  -15.35   73.08
  -5  -9  23   12.45   40.56
   9   5 -23  -30.00   71.17
   5  -9  23  147.76   38.56
   9   5 -23   -9.14   30.39
   5   9 -24  -16.28   72.29
  -5   9 -24   31.48   72.63
  -5   9 -24  -26.50   44.76
   9   5 -24  -61.75   71.20
  -5  -9  24  165.50   49.62
   9   5 -24   28.57   43.42
   5  -9  24   88.39   46.97
   5   9 -24   -9.14   45.59
   5  -9  24  -15.36   65.08
  -9  -5  24  -12.93   43.21
   5  -9  25  -13.26   28.06
  -5   9 -25  -32.24   63.50
   5   9 -25   -9.33   31.65
   5   9 -25   49.90   69.80
  -5   9 -25  -18.79   29.72
   9   5 -25   79.32   70.12
  -5  -9  25   26.58   32.43
   9   5 -25   19.57   27.37
  -5  -9  25  145.63   59.70
   5  -9  25   62.96   57.21
  -9  -5  25  -13.29   25.33
   5  -9  26  149.21   77.59
   5   9 -26   50.93   95.63
   5   9 -26   19.77   74.79
  -5   9 -26   19.22   73.89
   9   5 -26  -16.28   93.40
  -5  -9  26  257.59   80.52
   9   5 -26   70.28   71.82
  -5  -9  26  231.18   95.85
   5  -9  26   32.21   87.46
  -9  -5  26   27.26   71.36
  -5   9 -26   16.50   95.21
  -5   9 -27 -168.61  100.10
   5   9 -27  -30.22   48.45
  -5   9 -27  -20.05   46.49
   9   5 -27  116.77   73.61
  -5  -9  27   14.16   42.66
   5  -9  27  -41.59   43.54
   5  -9  27  -49.39   67.89
  -9  -5  27  -13.96   38.74
  -5  -9  27   16.83   71.72
   5  -9  28   16.43   53.55
   5   9 -28  -88.12   78.93
  -5   9 -28  120.52   77.96
   5   9 -28  -10.26   35.26
   9   5 -28  -68.23   66.12
  -5   9 -28   30.70   32.23
  -5  -9  28   28.84   31.10
   5  -9  28 -115.63   34.52
  -5  -9  28   17.14   61.08
   5   9 -29  -35.85   72.29
  -5   9 -29 -105.35   76.98
   5   9 -29  -10.65   31.39
   9   5 -29  -34.86   70.30
  -5   9 -29   21.31   31.41
  -5  -9  29  -29.33   35.06
   5  -9  29  103.16   34.58
  -5  -9  29   17.44   66.57
   5  -9  29  -33.51   59.66
  -5   9 -30   35.77   73.39
   9   5 -30  -71.12   68.75
   5   9 -30  -10.82   33.49
  -5   9 -30   10.85   34.66
  -5  -9  30  -15.22   32.23
   5  -9  30  -30.01   32.63
   5  -9  30  -85.32   67.52
  -5   9 -31  -11.04   33.03
   5  -9  31   45.80   32.34
   5  -9  31  -52.08   65.76
  -5   9 -31   72.76   73.75
   9  -6   1  198.83  187.89
   9   6  -2   -7.04  187.22
   9  -6   2  474.92  188.62
  -9  -6   3   27.11   26.93
   9   6  -3  -13.96   28.27
   9  -6   3   43.74   26.97
   9   6  -4  -13.25   83.19
   9   6  -4    6.96   84.99
  -9  -6   5  125.73   54.60
   9   6  -5   -4.57   51.72
   9  -6   5   39.52   51.90
   9   6  -5   -6.91   52.91
   9  -6   5  132.16   52.83
   9   6  -6   -6.80   59.03
   9   6  -6   -9.51   59.77
   9  -6   6  154.73   60.68
   9   6  -6  -20.74   62.23
   9   6  -7   13.61  124.83
   9   6  -7    9.90  124.91
   9  -6   7  126.29  125.68
   9   6  -7  -20.75  125.63
   9  -6   7  394.80  126.18
  -9  -6   7  564.36  129.57
  -9  -6   8   17.57   88.03
   9   6  -8   -6.81   87.24
  -6   9  -8  -22.78   87.94
   9   6  -8  -25.34   88.19
  -9   6  -8   30.25   89.31
   9  -6   8  160.82   88.62
   9   6  -8   13.68   89.09
   9   6  -9   20.50   14.51
  -9  -6   9  -18.34   23.54
  -9  -6   9   -7.13   19.76
   6   9  -9  -19.63   21.34
  -6   9  -9   -5.87   18.18
   9   6  -9   10.35   15.90
   9   6  -9   -9.11   25.18
   9   6  -9    6.82   22.88
  -9  -6   9   26.93   23.41
   9   6 -10    6.86   65.67
   9   6 -10  -19.03   71.74
   6   9 -10   -6.72   67.41
  -6   9 -10  -24.21   67.46
  -9  -6  10  -47.90   69.79
   9   6 -10   42.29   67.17
   9   6 -10    6.86   68.19
  -9  -6  10  585.47   77.24
  -6  -9  10   34.30   67.23
   6  -9  11  -10.66   33.14
   9   6 -11   27.56   29.23
  -6  -9  11   70.52   35.97
   6   9 -11    6.91   33.72
  -6   9 -11   -6.13   31.98
  -9  -6  11  123.10   34.00
   9   6 -11  -10.74   29.25
   9   6 -11    9.94   37.79
  -9  -6  11   60.02   36.80
   6   9 -11   23.32   40.34
   9   6 -11   -6.89   33.98
  -9  -6  11  152.56   38.66
   9   6 -12   -6.93   70.98
  -6   9 -12  -10.89   74.34
   6  -9  12  143.32   76.66
  -6  -9  12  181.29   76.64
   6   9 -12   -6.97   73.06
  -6   9 -12   -6.34   72.51
  -9  -6  12  329.33   75.75
   9   6 -12   82.47   72.35
  -9  -6  12   72.69   76.78
   9   6 -12   10.38   77.95
   6   9 -12   23.99   78.69
   9   6 -12   76.40   74.69
  -9  -6  12  442.13   80.15
   9   6 -13   55.81   70.63
   9   6 -13   43.30   78.36
   6  -9  13  204.38   74.26
   6  -9  13   91.21   74.00
  -6  -9  13  149.21   76.73
   6   9 -13   -7.01   72.04
  -6   9 -13    6.41   71.70
   9   6 -13   86.01   71.68
  -9  -6  13  183.88   73.91
   6   9 -13  -24.68   77.24
  -9  -6  13   10.83   75.96
  -6   9 -13   11.27   74.96
   9   6 -13  -14.29   72.17
  -9  -6  13  399.75   77.15
  -9  -6  13  -10.09   79.46
   9   6 -14  148.85  160.70
   6   9 -14  -12.70  163.49
  -6  -9  14  209.07  162.71
   6  -9  14  339.07  162.63
   6   9 -14   -7.21  160.78
  -6   9 -14   19.43  160.74
   6  -9  14  448.04  165.24
  -9  -6  14   10.29  166.27
  -6  -9  14  396.47  166.79
  -9  -6  14  435.32  162.95
  -9  -6  14  199.80  164.81
   9   6 -14  -11.28  164.17
  -9  -6  14  478.30  164.16
  -6   9 -14   58.26  163.45
  -6  -9  15  163.41   88.76
   6  -9  15  161.09   88.21
   6   9 -15   14.50   86.01
  -6   9 -15    6.51   84.89
   6  -9  15  134.04   89.96
  -6   9 -15   36.15   90.99
  -9  -6  15  271.86   87.73
   9   6 -15   11.74   93.26
  -9  -6  15  161.68   93.83
   9   6 -15   55.75   85.08
   6  -9  16  145.56   99.69
  -6   9 -16  -20.18   99.17
   6  -9  16  302.27  104.64
  -9  -6  16  247.79  101.38
   9   6 -16   65.97   99.01
  -6   9 -16   24.90  106.17
  -9  -6  16  154.08  107.36
   9   6 -16   36.60  105.49
   6  -9  17   19.99   28.03
  -6   9 -17  -20.45   27.61
   9   6 -17    7.11   27.25
   6   9 -17  -27.61   57.32
   9   6 -17  -75.99   58.42
  -6  -9  17   27.65   42.45
   6  -9  17  -25.88   40.21
  -9  -6  17    9.89   24.59
  -6   9 -17  -25.73   60.20
  -9  -6  17  -24.61   52.68
   9   6 -18   95.85  148.99
   6  -9  18  196.06  150.53
  -6  -9  18  340.63  152.34
   6   9 -18   22.53  149.63
   6   9 -18   28.36  157.44
  -6  -9  18   99.44  154.33
  -9  -6  18  335.13  151.10
   6   9 -19  101.91   62.06
   6   9 -19   -7.71   34.35
  -6  -9  19   22.50   36.64
  -6  -9  19  114.72   52.07
   6  -9  19   27.09   47.38
  -6   9 -19   13.69   61.54
  -9  -6  20  206.62   96.72
  -6   9 -20  -22.89   92.48
   6  -9  20  241.16   97.55
   9   6 -20   98.27  107.56
   9   6 -20  204.56   92.98
  -6   9 -20   14.11  102.74
  -6  -9  20  264.83  106.32
   6  -9  20  320.92  107.72
   6   9 -20   -7.88   91.20
  -9  -6  20   66.63  101.44
  -6  -9  20   69.24   94.90
   6   9 -20  -14.93  104.38
  -6  -9  21   70.97   46.04
  -6   9 -21   -7.85   43.93
   6   9 -21   61.25   66.64
   9   6 -21   57.96   68.05
   6  -9  21  102.72   47.69
   9   6 -21   25.32   42.85
   6  -9  21   86.18   57.52
  -6   9 -21  -72.63   65.18
   6   9 -21   24.22   42.51
  -6  -9  21   60.31   63.67
  -9  -6  21  -27.50   58.05
  -9  -6  21   59.22   44.43
  -9  -6  22   14.17   98.74
   6   9 -22    8.47   86.53
  -6   9 -22   25.17   86.70
   6   9 -22   47.04  104.17
  -6   9 -22  -74.67  105.25
  -6  -9  22  220.56   91.88
   9   6 -22   14.93  104.34
   9   6 -22  115.40   87.35
   6  -9  22  176.06   89.65
  -6  -9  22  277.94  101.35
  -9  -6  22   87.23   87.84
   6  -9  22  132.92   97.98
  -9  -6  23  -28.72   51.16
   6   9 -23   32.08   65.06
  -6   9 -23   51.68   32.44
   9   6 -23  -76.79   77.30
  -6  -9  23   12.54   31.29
   9   6 -23  -18.26   29.31
   6  -9  23   12.32   27.46
  -6  -9  23  -31.20   55.51
  -9  -6  23   25.64   25.97
  -6   9 -23  122.71   64.97
   6  -9  23   14.98   54.65
   6   9 -23   -8.67   29.57
   6   9 -24   -9.20   35.54
  -9  -6  24   29.50   57.50
   6   9 -24   16.40   66.58
  -6   9 -24   62.95   68.50
  -6   9 -24  -18.34   38.81
   9   6 -24   78.91   67.52
  -6  -9  24   38.44   36.87
   9   6 -24   28.76   33.15
   6  -9  24  -12.63   34.64
  -6  -9  24  127.55   63.25
  -9  -6  24   65.86   39.46
   6  -9  24   76.85   60.00
   6   9 -25  -16.74   75.65
  -9  -6  25   30.27   67.49
  -6   9 -25   32.26   78.99
   9   6 -25   80.94   76.37
  -6   9 -25   -9.39   47.57
   9   6 -25   58.98   45.99
  -6  -9  25  -13.37   47.08
   6   9 -25   46.98   48.73
  -6  -9  25  179.12   76.34
  -9  -6  25   54.03   47.65
   6  -9  25   15.75   63.88
   6  -9  25  132.67   53.26
  -9  -6  26  -15.50   78.07
  -6  -9  26  166.13   81.21
   6   9 -26   51.25   92.42
  -6   9 -26  132.08   87.41
   6   9 -26   19.89   61.93
   9   6 -26   49.76   83.95
  -6   9 -26   29.45   60.04
   9   6 -26   10.07   57.87
  -6  -9  26   13.64   62.36
   6  -9  26  271.57   66.80
   6  -9  26   96.74   73.75
  -9  -6  26   13.84   57.58
  -9  -6  27   31.71   63.14
   6  -9  27   42.53   37.95
   6   9 -27 -243.74  110.43
  -6   9 -27 -185.65  102.51
   6   9 -27  -20.27   47.19
   9   6 -27  -50.89   73.43
  -6   9 -27  -10.03   38.80
   9   6 -27  -10.42   32.58
  -6  -9  27   71.20   41.84
   6  -9  27  -49.46   67.71
  -9  -6  27  -42.47   28.32
  -6  -9  27   16.93   60.13
  -9  -6  28   32.40   62.20
  -6   9 -28 -103.41   74.18
   9   6 -28 -172.72   75.60
   6   9 -28   51.58   33.89
  -6   9 -28   20.49   34.96
   9   6 -28  -10.65   28.52
   6   9 -28  -35.45   77.99
  -6  -9  28  -14.50   36.53
   6  -9  28   14.47   25.82
  -6  -9  28   51.69   59.11
   6  -9  28   16.83   54.57
  -9  -6  28   28.92   26.65
   6  -9  29  -14.76   34.16
  -9  -6  29   16.53   65.44
   6   9 -29 -180.24   85.09
  -6   9 -29   52.73   76.09
   9   6 -29 -105.74   74.10
   6   9 -29   10.71   33.80
  -6   9 -29  -32.02   34.42
  -6  -9  29  -15.05   34.69
   9   6 -29  -21.72   29.48
  -6  -9  29   17.53   61.22
   6  -9  29  -50.35   59.81
  -9  -6  29   14.75   30.59
  -9  -6  30  134.70   70.29
  -6   9 -30  -71.63   74.92
   9   6 -30 -143.66   76.47
  -6   9 -30   32.61   36.14
  -6  -9  30   30.57   33.51
   6  -9  30   45.11   36.55
   6  -9  30  -17.09   61.55
  -9  -6  30   15.03   31.64
  -6   9 -31   36.44   78.64
   9   6 -31  -18.27   68.28
  -6   9 -31   44.75   41.61
   6  -9  31   15.30   39.38
   6  -9  31   69.59   66.61
   9  -7   3  237.90  224.22
   9  -7   4  310.13  291.86
   9   7  -5   -5.12  100.40
   9   7  -5   -7.20  100.92
   9   7  -6   10.56  199.40
   9   7  -6  -21.42  199.71
  -9  -7   7  388.78  155.15
   9   7  -7    5.46  152.82
   9  -7   7  374.82  153.69
   9   7  -7  -14.26  153.22
  -7   9  -8   -5.65   55.31
   9   7  -8   -5.65   54.69
   9   7  -8   14.27   56.08
  -9  -7   9   39.81   27.94
   7   9  -9   33.13   28.94
  -7   9  -9  -17.48   28.52
   9   7  -9   -5.74   28.18
   9   7  -9   -7.05   30.48
   7   9  -9   -6.49   25.84
  -9  -7  10  101.68   24.59
  -9  -7  10   10.32   24.20
   9   7 -10   -7.03   17.40
   7   9 -10   13.61   24.59
  -7   9 -10    6.01   22.74
   9   7 -10  -17.49   23.79
   9   7 -10   10.25   33.34
   9   7 -10   49.42   28.63
  -7  -9  11   11.89   49.50
   9   7 -11    7.03   49.77
   9   7 -11   14.10   45.38
  -9  -7  11   21.42   51.37
   7   9 -11   13.98   49.70
  -7   9 -11   -6.10   48.42
   9   7 -11    5.91   47.84
   9   7 -11   10.64   53.56
  -9  -7  11  213.07   54.27
   7  -9  12  -10.97   21.59
  -7  -9  12   12.23   25.92
   9   7 -12    7.07   13.33
   9   7 -12   22.08   35.99
   7   9 -12   -7.05   20.96
  -9  -7  12    8.62   21.90
  -7   9 -12   24.68   18.61
   9   7 -12  -18.39   21.66
  -9  -7  12   33.33   29.03
   7   9 -12  -24.28   30.18
   9   7 -12  -21.21   24.49
  -7   9 -12   10.84   24.06
  -9  -7  12   18.56   22.76
   7  -9  13   79.46   74.05
   7  -9  13  230.07   75.15
  -7  -9  13  201.21   78.26
   7   9 -13   -7.09   72.18
  -7   9 -13    6.24   71.24
  -9  -7  13  257.03   75.83
   9   7 -13  -12.36   71.59
  -7   9 -13   11.21   74.82
  -9  -7  13  103.71   77.71
   9   7 -13   11.45   78.14
   7   9 -13   24.97   77.49
  -9  -7  13  260.89   75.94
  -7  -9  14  -10.06   26.07
   7  -9  14   11.75   29.22
   7  -9  14   18.26   22.66
   7   9 -14   14.59   25.17
  -7  -9  14  -12.93   35.19
  -7   9 -14   -6.45   21.65
  -9  -7  14   64.17   26.36
   9   7 -14   -6.29   20.75
   9   7 -14   11.87   42.00
  -9  -7  14   11.88   37.93
   7   9 -14  -12.84   42.98
  -7   9 -14  -34.82   38.94
  -7  -9  15  196.04   95.57
   7  -9  15  252.73   95.33
   7   9 -15    7.33   93.58
   7  -9  15  255.16   99.92
  -7   9 -15  -19.47   93.01
   9   7 -15    6.51   92.84
  -7   9 -15   24.01   97.54
  -9  -7  15  159.99   98.22
   9   7 -15  -24.60  100.47
  -9  -7  15  313.34   95.87
   7  -9  16   77.44   27.52
  -7   9 -16   13.17   27.15
   7  -9  16  -25.12   40.70
  -7  -9  16  -13.67   49.10
  -9  -7  16   -9.83   26.75
  -9  -7  16  -12.53   46.67
   9   7 -16  -63.65   63.44
   9   7 -16   26.87   26.02
  -7   9 -16  -37.25   50.65
  -7  -9  17   75.59   61.05
  -7   9 -17  -51.34   77.05
   7   9 -17    7.52   59.45
  -7   9 -17   -6.80   58.71
   7  -9  17  119.73   59.81
   9   7 -17   56.94   59.47
   7   9 -17  -13.94   76.40
   7  -9  17  103.29   68.86
  -9  -7  17  193.04   62.69
  -7  -9  17   55.84   70.57
  -7  -9  18  199.11   69.08
   7   9 -18  -15.16   64.83
   7  -9  18  257.58   70.68
   7   9 -18  -42.96   79.44
  -7  -9  18  200.73   78.94
  -7   9 -18  -21.00   65.16
   7   9 -19   31.11   53.87
  -7   9 -19   13.67   69.03
   9   7 -19  -84.17   74.88
  -7  -9  19   34.05   53.92
  -9  -7  19  175.27   58.88
  -7  -9  19  132.41   71.58
   7  -9  19   13.76   64.17
  -9  -7  19   95.40   67.76
   7   9 -19  -29.39   70.58
   9   7 -19   39.39   54.28
  -7  -9  20  535.34  150.86
   9   7 -20   43.37  155.98
  -7   9 -20   -7.62  144.73
   7  -9  20  421.25  150.21
  -9  -7  20  519.00  151.28
  -7  -9  20  415.44  157.39
   7  -9  20  139.47  153.50
   7   9 -20   -7.95  144.72
  -9  -7  20  140.42  151.87
  -7   9 -20  -28.20  152.90
   9   7 -20  105.50  145.53
   7   9 -20   60.28  152.90
   7   9 -21    8.14   48.45
   7   9 -21  -30.89   71.52
  -7   9 -21   32.62   47.89
  -7  -9  21  119.25   53.13
   9   7 -21  -59.51   71.39
   9   7 -21   34.68   48.68
   7  -9  21  136.96   53.71
  -9  -7  21   35.61   51.02
  -7  -9  21  152.03   65.76
   7  -9  21  -43.08   59.59
  -9  -7  21   72.24   69.98
  -7   9 -21  -58.06   72.69
   7   9 -22   -8.54   30.89
   7   9 -22  -94.86   73.47
  -7   9 -22  -14.93   75.34
   9   7 -22 -107.05   88.45
  -7  -9  22  -12.35   32.50
   9   7 -22  -26.73   37.81
   7  -9  22  -23.99   28.12
  -9  -7  22   25.00   35.27
  -7   9 -22   -8.39   32.30
   7  -9  22  -14.77   50.18
  -9  -7  22   59.40   59.73
  -7  -9  22   46.69   60.42
   7   9 -23   17.47   36.69
   7   9 -23   48.51   71.03
  -7   9 -23  -15.34   72.50
   9   7 -23   15.70   63.78
  -7   9 -23   53.66   41.42
   9   7 -23    9.14   37.31
  -7  -9  23   25.26   39.52
  -9  -7  23   64.17   41.16
  -7  -9  23   31.83   62.40
   7  -9  23   36.97   36.43
  -9  -7  23  -14.90   57.95
   7   9 -24   64.89   32.13
   7   9 -24  115.65   65.26
  -7   9 -24  -94.49   67.49
   9   7 -24  -32.20   64.47
  -7   9 -24  -27.53   31.26
   9   7 -24    9.57   27.37
  -7  -9  24  -26.38   28.06
  -9  -7  24   13.44   27.18
  -7  -9  24   16.27   53.34
  -9  -7  24   30.55   54.85
   7   9 -25   16.87   72.57
  -7   9 -25  -16.14   68.60
   7   9 -25   18.92   38.36
   9   7 -25   65.93   69.89
  -7   9 -25   -9.60   36.89
   9   7 -25   -9.80   37.60
  -7  -9  25   80.75   43.39
  -9  -7  25   41.27   37.71
  -7  -9  25   81.96   61.77
  -9  -7  25   62.57   61.52
   7   9 -26  120.42  116.37
   9   7 -26   67.44  101.84
   7   9 -26  270.43   75.32
   9   7 -26   20.48   64.25
  -7  -9  26   13.73   63.45
  -7  -9  26   16.72   85.44
  -9  -7  26   14.07   64.14
  -9  -7  26  -16.00   80.72
   7   9 -27 -122.68   75.96
   9   7 -27 -137.77   72.52
   7   9 -27  -20.40   31.09
   9   7 -27   10.45   29.62
  -7  -9  27   57.32   31.58
  -7  -9  27  -34.07   56.97
  -9  -7  27   14.37   25.57
  -9  -7  27   65.36   54.66
   7   9 -28  -53.50   75.79
   9   7 -28  -35.13   69.26
   7   9 -28  -31.79   32.76
   9   7 -28   10.66   32.21
  -7  -9  28  -29.16   29.85
  -7  -9  28   17.33   59.97
  -9  -7  28   14.66   29.21
  -9  -7  28  -33.34   59.78
  -7  -9  29   15.14   35.59
   7   9 -29  -72.51   80.28
   9   7 -29  -53.70   77.15
   7   9 -29  -10.77   34.02
   9   7 -29   10.99   30.28
  -7  -9  29  -17.62   66.30
  -9  -7  29  -29.86   29.35
  -9  -7  29  -84.93   65.45
   9   7 -30  -72.85   76.16
   9   7 -30   11.18   27.11
  -9  -7  30   15.19   31.70
  -9  -7  30   69.13   66.45
   9  -8   5  587.58  552.04
   9  -8   6   60.37   59.58
  -8   9  -7   -5.45   18.51
   9   8  -7  -17.91   20.30
   9   8  -7    7.42   20.31
   9   8  -8  -18.42   22.19
   9   8  -8    7.37   22.98
   8   9  -9   -6.71   22.50
   9   8  -9   12.65   21.40
   9   8  -9   14.74   20.92
   8   9  -9  -28.29   22.79
   8   9 -10   20.67   25.04
   9   8 -10   -6.40   23.14
   9   8 -10  -36.38   26.68
   8   9 -10  -14.02   24.58
  -9  -8  11   57.22   29.71
  -9  -8  11   66.72   23.53
   8   9 -11    6.95   27.86
   9   8 -11   -6.46   25.71
   9   8 -11  -11.37   31.79
   9   8 -11    7.28   29.36
  -8  -9  11   48.16   29.31
  -8  -9  12   24.75   31.44
  -9  -8  12   11.81   29.79
  -9  -8  12   45.95   27.72
   8   9 -12   14.28   28.73
   9   8 -12  -19.55   27.45
   8   9 -12   49.15   35.10
   9   8 -12   11.73   35.02
  -8  -9  13   12.72   29.55
  -9  -8  13   47.29   26.43
  -9  -8  13   12.19   30.99
   8   9 -13    7.18   25.27
   9   8 -13  -20.17   23.11
   8   9 -13  -12.63   34.61
   9   8 -13  -12.11   37.16
  -8  -9  14   20.35   26.99
  -9  -8  14   96.73   30.33
   8   9 -14   -7.21   25.58
  -9  -8  14  -25.15   34.44
   9   8 -14  -13.49   23.26
   8   9 -14  -38.96   39.32
   9   8 -14  -12.50   41.23
  -9  -8  15   19.95   33.48
   9   8 -15   13.66   33.41
  -9  -8  15   12.97   46.57
   9   8 -15   90.27   63.31
  -8  -9  16  -41.43   55.02
  -9  -8  16  102.61   45.26
   9   8 -16   14.08   43.73
   8   9 -16   41.17   59.36
   8   9 -17   -7.46   32.55
  -8  -9  17   28.37   50.15
   8   9 -17  -56.37   55.84
  -9  -8  17   54.80   52.32
   9   8 -17  -82.19   60.72
  -8  -9  18  -28.95   48.99
  -8  -9  18   33.51   32.23
   8   9 -18    7.66   27.84
   9   8 -18   29.75   26.54
   8   9 -18  -14.47   49.41
  -9  -8  18   10.88   28.17
   9   8 -18   14.10   51.99
  -9  -8  18  -14.10   47.80
   9   8 -19   -7.84  127.83
  -9  -8  19  458.75  135.65
   8   9 -19    7.83  127.72
  -8  -9  19  538.46  133.66
   8   9 -19   44.52  137.01
   9   8 -19   72.49  135.03
  -8  -9  19  163.38  138.22
  -9  -8  19  142.68  134.90
  -8  -9  20   58.73   57.58
   8   9 -20  -16.05   55.14
   8   9 -20   30.43   72.58
   9   8 -20   14.90   74.61
  -9  -8  20  104.70   57.16
  -8  -9  20  152.24   71.59
  -9  -8  20  102.61   72.33
   9   8 -20   48.32   55.19
   8   9 -21  -16.84   56.59
   9   8 -21  -25.76   57.73
   9   8 -21 -107.07   94.04
  -8  -9  21  216.53   69.79
  -9  -8  21  286.61   64.82
   8   9 -21  -46.75   86.92
  -8  -9  21   92.01   72.82
  -9  -8  21   30.09   83.13
  -8  -9  22   15.70   48.44
   8   9 -22   -8.62   28.20
   9   8 -22   62.75   62.88
  -8  -9  22  -12.45   28.49
  -9  -8  22  -12.51   29.18
   9   8 -22   35.22   29.34
  -9  -8  22   30.85   57.65
   8   9 -22   31.90   62.21
   8   9 -23  -65.23   68.03
   9   8 -23   16.07   69.45
   9   8 -23    9.36   32.87
  -8  -9  23   25.46   35.10
  -9  -8  23   38.44   32.22
  -8  -9  23  -16.05   55.93
  -9  -8  23  -15.60   53.97
   8   9 -23   18.31   31.96
  -8  -9  24   81.97   58.06
   8   9 -24  -33.31   66.02
   9   8 -24   82.21   71.03
   8   9 -24  -28.04   32.79
   9   8 -24   19.15   31.80
  -8  -9  24   39.87   32.68
  -9  -8  24  -79.83   56.08
  -9  -8  24   13.44   27.35
  -9  -8  25  -13.73   46.35
   9   8 -25 -201.65   95.92
   8   9 -25    9.90   47.90
   9   8 -25   -9.79   46.54
  -8  -9  25  -13.56   43.44
  -8  -9  25  -66.90   77.04
  -9  -8  25  -16.32   67.64
   8   9 -26 -103.98   78.95
   9   8 -26   17.16   71.09
   8   9 -26   30.27   32.77
   9   8 -26  -30.60   32.10
  -8  -9  26   42.49   30.17
  -9  -8  26   28.63   29.76
  -8  -9  26  -34.11   60.86
  -9  -8  26  -16.66   59.47
   8   9 -27   52.95   73.71
   9   8 -27   52.49   73.96
   8   9 -27  -10.27   31.58
   9   8 -27  -10.39   32.28
  -9  -8  27  -29.19   33.78
  -8  -9  27   14.42   30.67
  -9  -8  27 -101.93   71.43
  -8  -9  27  -34.28   60.35
  -9  -8  28   17.31   64.06
   8   9 -28  -71.80   73.23
   9   8 -28   17.82   75.43
   8   9 -28  -21.34   32.29
   9   8 -28  -21.63   28.25
  -8  -9  28   73.36   33.88
  -8  -9  28  -87.22   66.04
  -9  -8  28  -14.87   29.16
   9   8 -29  -36.27   76.83
   8   9 -29  -32.52   31.16
   9   8 -29   22.00   29.97
  -8  -9  29   15.23   30.56
  -8  -9  29   17.73   52.82
  -9  -8  29   15.12   27.86
  -9  -8  29  -52.82   61.64
   9   9  -9   13.61   23.19
   9   9  -9  -15.24   23.76
   9   9 -10  -13.96   25.28
   9   9 -10   -7.62   24.37
   9   9 -11   28.14   35.81
  -9  -9  12  -12.53   32.29
   9   9 -12  -28.29   35.07
  -9  -9  13   12.88   32.66
  -9  -9  13  -30.05   27.52
   9   9 -13   50.87   30.14
   9   9 -13  -51.16   51.05
  -9  -9  14   10.27   27.32
   9   9 -14  -14.60   29.05
  -9  -9  16  -13.96   38.60
   9   9 -16   13.88   43.81
   9   9 -17   85.50   52.33
  -9  -9  17   11.00   29.98
   9   9 -17    7.54   28.25
  -9  -9  17   14.34   43.11
  -9  -9  18   73.56   67.15
   9   9 -18  -15.48   53.82
  -9  -9  18  157.99   59.94
   9   9 -18   14.62   66.93
  -9  -9  19  -23.14   43.64
  -9  -9  19  -60.00   64.81
   9   9 -19  -74.98   74.99
   9   9 -19  -31.64   43.04
   9   9 -20   24.32  101.39
   9   9 -20   15.37  118.36
  -9  -9  20   30.75  112.98
  -9  -9  20  403.10  110.64
   9   9 -21  -17.00   34.27
   9   9 -21  -31.47   60.61
  -9  -9  21  -24.56   33.84
  -9  -9  21  -15.74   52.79
   9   9 -22   64.41  122.38
   9   9 -22   52.17  111.43
  -9  -9  22  188.46  115.07
  -9  -9  22  241.52  123.05
   9   9 -23  -16.45   61.92
  -9  -9  23  -13.12   26.41
  -9  -9  23   32.37   43.44
   9   9 -23    9.23   29.51
   9   9 -24 -117.60   72.61
   9   9 -24    9.43   32.57
  -9  -9  24   13.40   32.43
  -9  -9  24  -16.53   65.98
  -9  -9  25   16.86   56.38
   9   9 -25  -19.96   29.36
  -9  -9  25   13.66   28.77
   9   9 -25   34.28   73.46
   9   9 -26  -20.34   34.61
  -9  -9  26   17.18   58.59
   9   9 -26  -34.94   74.43
  -9  -9  26  -14.27   30.41
   9   9 -27 -124.48   83.35
   9   9 -27  -31.71   51.77
  -9  -9  27  -29.05   51.94
  -9  -9  27  -69.97   77.08
   9   9 -28 -108.52   82.29
   9   9 -28  -21.49   37.61
  -9  -9  28   17.79   66.55
  -9  -9  28  -15.08   38.07
   9   9 -29   65.49   43.35
  -9  -9  29  -15.32   37.26
  10   0   0   58.40   60.10
 -10   0   0   16.59   62.27
  10   0   0   75.05   58.72
 -10   0  -1    8.13   25.34
  10   0  -1    6.54   19.72
 -10   0   1  -16.72   26.07
  10   0   1    6.43   18.95
  10   0  -1    5.56   12.55
 -10   0   1  -56.93   35.43
  10   0   1   -5.74   14.23
 -10   0   2    9.57   40.83
 -10   0   2    7.80   33.22
  10   0  -2   40.45   28.34
  10   0   2   12.80   27.33
 -10   0  -2   -8.21   29.64
  10   0  -2   16.81   24.94
  10   0   2   36.24   24.06
 -10   0   3   -7.88   27.67
  10   0   3  -12.73   20.66
 -10   0  -3   -8.18   24.87
  10   0  -3   -5.56   17.32
  10   0   3  -18.70   18.88
  10   0   4  211.43  409.09
  10   0  -4  644.74  410.17
 -10   0   4  387.53  409.96
  10   0   4  330.13  409.80
  10   0  -4  697.42  409.82
 -10   0  -4  617.03  410.61
 -10   0   4  445.05  411.15
  10   0   5  -12.71   14.60
 -10   0   5  -20.15   35.20
 -10   0   5    7.54   24.84
  10   0  -5   22.19   21.88
  10   0   5   -6.38   19.22
 -10   0  -5    8.34   22.39
  10   0  -5  -11.47   15.24
  10   0   6   19.07  222.84
 -10   0   6   81.66  226.12
 -10   0   6  304.87  224.79
  10   0  -6  494.39  225.10
  10   0   6  421.33  224.33
 -10   0  -6  367.05  224.84
  10   0   7   19.11   15.45
 -10   0   7  -15.45   26.18
  10   0  -7    7.84   22.27
  10   0   7    6.47   20.93
  10   0  -7   17.59   15.90
 -10   0  -7   -8.43   21.28
 -10   0   7   10.35   36.87
  10   0   8    6.39  155.96
  10   0  -8  350.17  158.68
 -10   0   8   21.00  160.86
  10   0   8  149.29  157.25
  10   0  -8  517.46  158.56
 -10   0  -8  118.54  156.90
 -10   0  -9  -17.03   16.25
 -10   0   9  -31.98   38.61
  10   0  -9  -16.29   21.90
  10   0   9    6.51   20.37
  10   0  -9   12.08   17.21
 -10   0 -10   -8.57   42.11
 -10   0  10  -10.83   52.18
  10   0 -10   33.09   45.62
  10   0  10   -6.54   44.97
  10   0 -10  143.84   46.05
   0 -10  11   47.36   32.39
   0  10 -11    6.95   30.24
  10   0 -11  -16.89   29.89
  10   0  11    6.59   29.36
  10   0 -11   69.91   30.22
   0  10 -12   24.06   35.06
   0 -10  12   12.15   29.59
   0  10 -12   28.51   25.91
  10   0 -12   -8.62   26.89
  10   0  12  -13.35   24.82
  10   0 -12   45.25   24.32
   0  10 -13   24.71   32.83
   0 -10  13  -12.48   29.48
   0  10 -13   21.95   22.87
  10   0 -13    8.77   18.86
  10   0  13   13.46   20.40
  10   0 -13  -20.30   19.79
   0  10 -14  -29.50   26.18
  10   0 -14   -8.93   22.17
   0  10 -14  -25.38   36.22
  10   0 -14   20.66   20.60
   0  10 -15   -7.41   23.85
  10   0 -15    7.01   19.08
  10   0 -16   49.98   52.30
   0  10 -17   27.50   61.95
   0 -10  17   27.60   53.03
  10   0 -17   43.63   42.56
   0 -10  18   66.38   48.56
   0  10 -18  -22.84   42.97
   0  10 -18   56.44   61.04
   0 -10  19  -22.48   36.46
   0  10 -19  -15.62   33.76
   0 -10  19   14.53   47.70
   0  10 -19  -72.38   64.87
   0 -10  20  402.44  154.38
   0  10 -20  -15.71  149.79
   0 -10  20  585.99  161.56
   0  10 -20   14.84  159.74
   0  10 -21  -16.09   25.88
   0 -10  21   23.55   28.12
   0  10 -21   45.61   58.86
   0 -10  21  -15.00   42.50
   0 -10  22  215.07   79.24
   0  10 -22   49.24   63.92
   0  10 -22  -15.56   84.73
   0 -10  22   36.17   66.00
   0 -10  23   12.33   31.12
   0  10 -23   79.59   73.03
   0  10 -23   16.78   30.68
   0 -10  23  -31.42   57.21
   0  10 -24  -35.15   46.61
   0  10 -24  -65.08   76.28
   0 -10  24  -25.49   48.53
   0 -10  24  -64.23   70.28
   0  10 -25   80.74   52.31
   0  10 -25  -33.22   80.49
   0 -10  25   13.02   51.05
   0 -10  25   64.76   69.73
   0  10 -26  -66.55   37.25
   0 -10  26  -13.56   36.69
   0 -10  26   66.06   57.38
   0  10 -26   50.84   71.28
   0  10 -27  155.40   74.72
   0  10 -27  -19.37   38.16
   0 -10  27   55.29   38.65
   0 -10  27   16.83   55.29
   0  10 -28   35.16   81.02
   0  10 -28   10.23   34.80
   0 -10  28  -14.07   35.13
   0 -10  28  -85.69   60.84
   0  10 -29   89.41   78.89
   0  10 -29  -20.82   31.92
   0 -10  29  -14.66   29.97
   0 -10  29  -17.43   64.68
   0  10 -30   10.79   36.02
   0 -10  30   14.89   31.02
   0 -10  30   17.70   56.06
 -10   1   0  -15.30   24.10
  10  -1   0   -6.60   20.13
  10   1   0   -6.53   19.92
 -10  -1   0   25.16   26.41
 -10   1   0   -9.50   32.65
  10  -1   0   -5.40   13.59
  10   1   0   18.54   16.31
 -10   1   1   95.94   98.40
 -10   1   1   21.69   93.93
  10  -1   1  124.37   94.30
  10  -1  -1  123.61   94.13
 -10   1  -1   32.78   94.71
  10   1   1   71.61   92.97
 -10  -1   1  124.53   95.64
 -10  -1  -1   25.07   94.38
 -10   1  -1   93.03   97.52
  10  -1  -1  141.73   93.23
  10  -1   1  152.35   92.69
  10   1  -1   55.88   92.59
  10   1  -1  118.42   93.79
  10   1   1   70.13   92.85
  10   1   2    6.36   17.67
 -10   1   2   -7.31   26.56
  10  -1  -2   -6.94   24.06
  10  -1   2   -6.35   22.91
 -10   1  -2   -8.13   26.98
 -10  -1   2   25.06   27.83
  10   1   2    6.53   21.37
 -10   1   2   87.91   39.64
 -10  -1  -2   -8.41   26.04
  10  -1  -2   27.77   19.72
  10  -1   2   28.26   18.17
  10   1  -2   23.62   18.83
  10   1   3   26.00   92.92
 -10  -1   3  162.25   97.29
 -10   1   3  118.67   99.11
 -10   1   3   14.77   94.84
  10  -1  -3   79.75   94.15
  10   1  -3  133.72   94.74
  10  -1   3  170.46   94.96
 -10   1  -3  135.36   96.17
  10   1   3   45.69   93.75
 -10  -1  -3  136.31   96.24
  10  -1  -3  134.92   93.77
  10   1  -3  102.26   93.19
  10  -1   3  101.09   93.09
 -10  -1   4   39.12   38.02
  10   1   4   -6.50   15.33
 -10   1   4   -7.48   21.74
  10  -1   4   -6.26   19.40
 -10  -1   4   -8.61   26.47
  10   1  -4   20.68   21.98
  10   1   4   13.22   18.79
 -10   1  -4   24.12   25.56
  10  -1  -4    5.67   16.63
 -10  -1  -4   17.05   24.07
  10   1  -4    5.73   14.11
  10  -1   4   -5.91   14.01
  10   1   5    6.51  276.50
  10  -1  -5  407.78  277.93
 -10  -1   5  522.93  278.96
  10   1  -5  341.04  277.97
  10  -1   5  436.78  277.85
  10   1   5  112.52  277.03
 -10  -1   5  139.86  280.34
  10  -1  -5  465.76  277.80
 -10   1  -5  408.56  278.40
  10   1  -5  597.17  277.84
 -10  -1  -5  258.30  277.70
  10  -1   5  256.18  277.18
  10  -1   6   30.42   16.05
  10   1   6  -13.06   11.47
 -10  -1   6   20.20   36.56
  10  -1  -6   -7.81   20.86
 -10  -1   6   32.52   26.85
  10   1  -6   14.48   19.15
 -10   1   6   20.62   36.71
  10  -1   6   -6.21   19.75
  10   1   6   19.88   19.85
 -10   1  -6   -8.06   23.03
  10  -1  -6   17.85   17.95
  10   1  -6   -5.75   15.92
 -10  -1  -6  -34.59   19.66
 -10  -1  -7  217.17  268.94
  10  -1   7   74.60  268.09
  10   1   7   -6.65  268.17
 -10   1   7   10.47  270.67
  10  -1   7  657.74  269.86
 -10  -1   7  454.18  270.21
 -10  -1   7   51.44  272.50
  10  -1  -7  535.46  269.91
  10   1  -7  446.93  269.66
  10  -1  -7  658.47  269.57
 -10   1  -7  236.80  269.15
 -10   1   8   10.64   38.38
 -10  -1  -8    8.75   15.04
  10  -1   8   12.43   12.10
 -10  -1   8  -10.42   38.80
  10  -1  -8   -8.16   19.16
  10   1  -8   22.96   22.04
  10  -1   8   24.97   21.07
  10   1   8   13.44   19.94
  10  -1  -8  -12.28   17.61
  10   1  -8   -5.93   15.93
 -10   1  -8   16.47   23.05
 -10  -1   8   -7.79   25.89
  10  -1   9   31.13   95.56
  10  -1  -9  157.57   98.16
 -10  -1   9   94.79   99.18
  10   1  -9  144.23   98.49
  10  -1   9  100.04   97.83
  10   1   9   -6.77   96.42
  10  -1  -9  218.35   97.37
  10   1  -9  210.48   97.63
 -10   1  -9   24.75   96.72
 -10  -1   9  -73.92  102.11
 -10   1 -10  -16.57   18.91
 -10  -1  10   23.98   25.10
  10   1 -10  -16.25   22.92
 -10  -1  10   10.71   36.63
  10  -1  10   25.08   22.71
  10   1  10  -20.46   19.56
  10   1 -10    6.10   17.55
  10  -1 -10    6.53   16.18
  10  -1 -10    8.47   20.08
   1 -10  11   11.76   26.07
 -10   1 -11   -8.34   17.34
   1  10 -11  -14.00   24.51
  -1  10 -11  -27.59   24.02
 -10  -1  11  -10.87   41.19
  10  -1 -11    8.62   23.07
 -10  -1  11    8.11   31.62
  10   1 -11   16.63   26.89
  10  -1  11   19.12   23.71
  10  -1 -11   46.54   24.12
  10   1 -11   43.15   21.67
   1 -10  12  -12.07   27.96
   1  10 -12    7.18   24.23
  -1  10 -12   -7.08   23.70
  10   1 -12   -8.48   24.90
  10  -1  12  -12.81   22.41
  10  -1 -12   55.79   22.47
  10   1 -12   18.78   19.76
  10  -1 -12   -8.77   20.01
 -10  -1  12  -11.04   39.51
  -1  10 -12  -23.90   32.21
   1 -10  13   37.21   49.57
   1  10 -13   14.74   44.84
  -1  10 -13  -14.54   44.31
  -1  10 -13  -12.28   51.27
  10   1 -13   94.80   44.73
  10  -1  13   -6.45   43.64
  10  -1 -13   63.91   43.45
  10   1 -13   95.41   43.12
  -1  10 -14  -50.45   39.08
   1  10 -14  -22.27   24.22
  -1  10 -14  -14.66   24.62
   1 -10  14  -25.48   34.87
  -1 -10  14  -25.80   34.28
  10  -1  14    6.49   22.66
  10   1 -14   35.18   22.50
  10  -1 -14   -7.23   18.94
  10   1 -14    6.59   18.37
   1  10 -15  -29.83   26.69
  -1  10 -15   -7.37   20.80
  10   1 -15   33.52   20.68
  10   1 -15   17.89   20.20
  10   1 -16   -6.82   19.61
  -1 -10  17  108.35   48.16
   1  10 -17    7.68   45.13
   1  10 -17   27.65   62.16
   1 -10  17   27.47   55.81
  -1 -10  17   69.37   54.28
  -1  10 -17  -27.36   65.16
  10   1 -17   41.65   42.17
  -1 -10  18   22.23   25.58
   1 -10  18   11.02   24.83
   1  10 -18  -45.94   26.36
  -1  10 -18    7.58   25.16
  -1 -10  18   14.23   42.41
   1 -10  18   28.20   41.00
   1  10 -18   14.19   51.35
  10   1 -18   14.13   17.54
  -1  10 -18  -56.18   61.57
  -1 -10  19  316.27  187.17
   1 -10  19  448.03  187.66
   1  10 -19   -7.85  184.46
  -1  10 -19   46.66  184.81
  -1  10 -19   14.41  192.93
  -1 -10  19  262.76  192.02
   1 -10  19  520.96  193.01
   1  10 -19  -29.10  192.31
  10   1 -19  352.53  185.09
  -1  10 -20  -44.34   59.26
  -1 -10  20   23.15   30.19
   1 -10  20   22.91   31.25
   1  10 -20  -23.68   27.73
  -1  10 -20   23.47   24.77
   1  10 -20  -29.82   54.87
  -1 -10  20  -29.43   51.54
   1 -10  20  -58.38   47.95
   1  10 -21   24.24  104.67
  -1 -10  21  189.20  107.53
  -1  10 -21  -24.05  105.01
   1  10 -21  -15.27  115.95
  -1  10 -21   30.30  115.73
  -1 -10  21  210.96  117.85
   1 -10  21  104.70  115.60
   1 -10  21  410.93  108.66
   1  10 -22    8.24   28.42
  -1  10 -22   -8.18   28.47
  -1  10 -22   46.53   57.30
   1 -10  22   15.31   50.09
   1  10 -22  -31.26   58.62
   1 -10  22   24.04   31.29
  -1 -10  22  -15.42   53.33
  -1 -10  22   12.10   29.46
   1 -10  23   24.59   31.85
  -1  10 -23  -34.30   31.20
   1  10 -23   31.96   63.86
  -1 -10  23   15.77   52.08
   1  10 -23   33.70   29.46
   1 -10  23   31.33   49.72
  -1 -10  23   12.37   32.02
  -1  10 -23   31.74   69.80
   1 -10  24   16.02   61.49
  -1  10 -24   -8.76   33.39
   1  10 -24  -26.45   33.31
   1  10 -24  -16.32   63.05
  -1  10 -24   64.90   68.21
  -1 -10  24  -12.79   32.18
   1 -10  24  -25.43   35.08
  -1 -10  24  -48.32   53.25
  -1  10 -25  -17.89   28.99
   1  10 -25  -16.67   67.41
  -1  10 -25  -16.57   67.44
  -1 -10  25   26.10   33.29
   1 -10  25  -38.96   30.91
  -1 -10  25   81.17   54.57
   1 -10  25   64.61   60.98
   1  10 -25  -27.00   27.66
   1  10 -26   -9.53   29.50
  -1  10 -26   -9.49   33.60
   1  10 -26  -67.99   64.55
  -1  10 -26  -50.72   71.76
  -1 -10  26  -13.31   32.80
   1 -10  26  -13.54   31.50
  -1 -10  26  -16.56   57.15
   1 -10  26   32.96   52.71
   1  10 -27  -17.32   70.00
  -1  10 -27  -51.70   72.32
   1  10 -27   38.85   33.90
  -1  10 -27   -9.67   33.46
  -1 -10  27   41.56   35.88
   1 -10  27   41.40   32.83
  -1 -10  27  -16.87   57.77
   1 -10  27  -33.60   62.03
  -1  10 -28  -52.64   81.32
   1  10 -28  -20.52   39.69
  -1  10 -28  -20.43   37.26
  -1 -10  28  -28.20   35.69
   1 -10  28  -28.80   34.41
   1  10 -28   88.12   81.66
  -1 -10  28  -34.34   65.99
   1 -10  28   17.11   64.34
   1  10 -29   17.92   73.68
  -1  10 -29  -35.71   69.14
   1  10 -29  -20.86   32.20
  -1  10 -29  -20.78   31.00
  -1 -10  29   14.69   30.24
  -1 -10  29  -34.92   53.85
   1 -10  29  -17.41   61.98
   1 -10  29   58.58   30.89
   1  10 -30  -54.06   42.99
  -1  10 -30  -10.78   41.16
  -1 -10  30  -29.84   41.80
   1 -10  30   14.88   42.29
   1 -10  30  -88.45   70.76
  10   2   0  333.21  482.26
 -10  -2   0 1281.39  484.34
 -10   2   0  595.22  483.63
  10  -2   0  829.79  483.33
 -10   2   0  215.58  482.32
  10   2  -1   19.59   31.52
  10   2   1    6.66   31.66
 -10   2   1  -77.78   45.45
 -10   2   1   72.60   39.34
 -10   2  -1   -7.10   36.66
  10  -2   1   47.18   33.80
  10   2   1    6.76   33.84
 -10   2  -1   94.89   46.84
 -10  -2   1    8.62   37.57
  10  -2  -1   38.48   31.50
 -10  -2  -1   26.14   35.80
  10  -2   1   64.20   31.31
  10  -2  -1   21.36   33.49
  10   2   2  -13.31  101.26
 -10   2  -2   74.60  106.37
  10   2  -2  140.54  102.67
  10  -2  -2   82.00  102.85
 -10   2  -2   22.54  102.67
  10  -2   2  226.77  103.51
  10   2   2   27.06  101.30
 -10  -2   2  240.24  105.63
  10  -2  -2  155.99  101.68
  10  -2   2  254.15  102.47
 -10  -2  -2  156.90  103.43
 -10   2   2   68.98  106.90
  10   2  -2   94.93  101.68
  10   2   3    6.67   14.79
  10  -2   3    6.42   20.20
 -10   2  -3   16.09   27.92
  10   2  -3   -6.74   20.58
 -10   2  -3   36.95   36.46
  10   2   3   13.52   19.68
 -10  -2   3   17.24   28.40
 -10   2   3   29.98   34.75
  10  -2  -3  -15.12   21.61
  10  -2  -3   17.28   19.24
  10  -2   3   10.67   16.71
 -10  -2  -3   17.61   21.86
  10   2  -3    6.36   16.54
  10   2   4  -13.37   38.59
 -10   2   4   20.29   48.61
  10  -2  -4   69.63   42.12
  10  -2   4   82.78   42.31
  10   2  -4   20.34   41.33
 -10   2  -4   95.78   46.69
 -10  -2   4   59.83   44.35
  10   2   4    6.78   40.25
  10  -2  -4   58.48   40.10
 -10   2  -4   27.17   50.66
  10  -2   4   44.33   40.06
  10   2  -4   48.38   39.38
 -10  -2  -4   26.52   41.42
 -10  -2  -5    8.88   20.53
 -10   2  -5    8.99   34.86
  10  -2   5  -12.37   19.68
  10   2  -5   -6.85   21.86
 -10  -2   5   25.83   26.42
 -10   2  -5   46.87   29.51
  10   2   5   54.71   23.58
  10  -2  -5   12.22   16.65
  10   2  -5    6.09   16.37
  10  -2   5   -5.50   16.05
 -10  -2  -6   35.75  126.40
 -10  -2   6   10.01  133.23
  10   2  -6  127.07  127.67
  10  -2   6  203.00  127.49
 -10  -2   6  246.71  131.09
 -10   2  -6  102.49  128.31
  10   2   6   -6.87  127.05
  10  -2  -6  161.53  127.14
  10   2  -6  199.52  127.22
  10  -2   6  144.75  126.79
  10  -2   7   -5.97   15.35
  10  -2  -7  -18.95   17.48
  10  -2  -7    8.16   18.04
 -10  -2   7  -26.68   31.16
  10   2  -7    7.13   21.02
  10  -2   7    6.11   18.46
  10   2   7   27.67   20.65
 -10  -2   7   10.22   39.59
 -10   2  -7   55.42   26.02
  10   2  -7   -5.92   15.47
  10  -2   8   54.81  106.64
 -10  -2   8  -10.33  112.34
 -10  -2   8  249.49  111.07
  10  -2  -8   66.65  107.00
  10   2  -8  200.17  108.78
  10  -2   8  249.68  108.50
  10   2   8  -21.00  106.86
  10  -2  -8   79.48  106.99
 -10   2  -8   47.36  107.98
  10   2  -8  221.52  107.37
  10  -2   9   -6.08   21.45
 -10  -2   9   16.82   32.06
  10  -2  -9   25.44   25.10
 -10  -2   9  -10.52   40.35
  10   2  -9   54.15   29.19
  10  -2   9   36.47   24.82
  10  -2  -9   13.48   23.97
 -10   2  -9    7.99   27.23
  10   2  -9   23.81   22.49
  10  -2  10   12.15   15.81
  -2  10 -10  -13.36   21.63
 -10  -2  10   10.65   41.98
  10  -2 -10   -8.63   19.42
 -10  -2  10   -8.51   31.82
  10  -2  10    6.06   21.61
  10  -2 -10   20.59   19.19
  10   2 -10   48.21   20.96
 -10   2 -10   16.12   23.12
  10   2 -10   -7.83   24.26
   2 -10  11   11.69   24.09
  -2 -10  11   24.05   24.12
  10  -2  11   18.24   13.44
   2  10 -11   -7.06   22.25
  -2  10 -11   -6.85   20.95
  10   2 -11  -16.39   26.17
 -10  -2  11   16.15   27.59
  10  -2  11   18.21   19.75
  10  -2 -11    6.99   18.77
  10   2 -11    6.11   18.21
 -10  -2  11  -21.58   47.38
 -10   2 -11   16.16   18.69
 -10   2 -12   -8.11  101.79
   2 -10  12  216.09  106.04
  -2 -10  12  123.34  105.26
   2  10 -12    7.24  102.96
  -2  10 -12  -21.11  103.35
  -2  10 -12   23.75  105.37
  10   2 -12  116.35  104.45
 -10  -2  12   49.10  104.41
 -10  -2  12  -10.94  108.04
   2  10 -12  -36.66  105.63
  10  -2  12  279.80  105.03
  10   2 -12  367.96  104.61
   2 -10  13   12.34   29.87
  -2 -10  13   12.66   29.50
   2  10 -13   22.28   24.15
  -2  10 -13  -14.46   24.69
   2  10 -13   12.54   37.22
 -10  -2  13   44.40   44.74
  10   2 -13  -33.99   24.89
 -10  -2  13  -16.60   30.68
  10   2 -13   12.66   17.67
  -2  10 -13   97.64   39.96
   2  10 -14   12.87  122.36
   2  10 -14   29.92  119.60
  -2  10 -14   -7.29  119.13
   2 -10  14  393.06  124.67
  -2 -10  14  311.78  124.76
 -10  -2  14   11.27  123.71
  -2  10 -14   12.55  122.36
  10   2 -14   60.67  119.62
 -10  -2  14   33.64  120.08
  10   2 -14  436.86  120.76
  -2  10 -15    7.33   27.95
   2 -10  15  -13.03   40.58
 -10  -2  15    8.54   32.57
  10   2 -15   35.22   28.62
  -2  10 -15   38.69   46.31
  10   2 -15   19.58   23.76
  -2 -10  16   13.68   46.31
   2  10 -16  -27.13   50.85
  10   2 -16  -17.96   33.79
 -10  -2  16   34.71   39.66
  10   2 -16   66.03   32.98
  -2 -10  17   10.90   27.90
   2  10 -17  -38.62   26.34
  -2  10 -17   27.24   49.39
   2  10 -17  -13.92   45.32
   2 -10  17   13.68   39.40
  -2 -10  17   97.71   49.37
  10   2 -17  -27.39   22.16
  10   2 -17   40.27   20.55
 -10  -2  17   17.64   32.20
  -2 -10  18  -11.18   31.55
   2 -10  18  108.75   38.33
   2  10 -18   23.11   34.05
  -2  10 -18    7.55   33.86
  -2  10 -18  -55.95   61.51
   2  10 -18  -28.55   64.95
  -2 -10  18  -14.32   50.11
   2 -10  18  -14.05   46.77
  10   2 -18   54.61   31.36
  -2 -10  19   22.71   29.78
   2 -10  19   66.98   30.60
   2  10 -19  -23.68   26.46
  -2  10 -19   -7.75   26.70
   2  10 -19   14.63   61.01
  -2 -10  19  -14.68   45.41
   2 -10  19  -14.42   49.30
  -2  10 -19  -14.36   56.89
  -2 -10  20  209.37   61.04
   2  10 -20  -23.80   55.54
   2 -10  20   79.96   59.02
  -2  10 -20    7.80   53.42
   2  10 -20  -44.97   78.54
   2 -10  20  236.69   73.00
  -2  10 -20   58.92   75.30
   2  10 -21    8.12   29.00
  -2 -10  21  -11.88   31.03
   2 -10  21  -23.41   30.66
   2  10 -21  -30.70   61.15
  -2  10 -21  -15.10   55.64
  -2  10 -21   -7.96   28.78
   2 -10  21  -74.58   45.13
  -2  10 -22   24.48   28.67
   2  10 -22  -16.56   30.47
   2 -10  22   59.96   32.28
  -2  10 -22  -30.93   60.80
   2 -10  22  -15.28   47.23
  -2 -10  22   12.15   29.10
  -2  10 -23   -8.55   35.85
   2 -10  23   49.09   32.83
   2 -10  23   31.27   52.43
  -2 -10  23   49.68   35.97
   2  10 -23   16.92   32.65
  -2  10 -24  -17.49   34.03
   2  10 -24    8.86   33.58
  -2  10 -24  -48.56   67.14
  -2 -10  24   25.67   39.53
   2 -10  24  152.30   41.73
   2 -10  24  -15.99   56.28
   2  10 -25   27.11   38.84
  -2  10 -25   66.15   71.24
  -2 -10  25   13.09   40.64
   2 -10  25   12.96   33.63
   2 -10  25   16.12   54.10
  -2  10 -25   27.84   38.88
   2  10 -26   57.42   33.90
  -2  10 -26 -101.24   70.94
  -2  10 -26  -37.88   34.95
  -2 -10  26   93.45   35.12
   2 -10  26  -13.52   32.11
   2 -10  26   32.92   57.51
  -2  10 -27  -34.42   82.70
   2  10 -27  -48.73   41.53
  -2  10 -27  -40.07   41.67
  -2 -10  27   13.89   35.45
   2 -10  27  -13.79   35.83
   2 -10  27   33.57   63.00
  -2 -10  28  -14.13   33.81
  -2  10 -28   17.52   72.48
   2  10 -28   10.29   33.84
  -2  10 -28  -20.40   33.55
   2 -10  28   43.15   31.77
   2 -10  28  -17.09   61.38
  -2 -10  29   14.73   31.96
  -2  10 -29   71.32   73.83
   2  10 -29   31.37   33.50
  -2  10 -29  -20.76   31.50
   2 -10  29  -14.64   30.31
   2 -10  29  -17.39   56.63
  -2  10 -30  -10.77   38.92
  -2 -10  30   14.95   39.35
   2 -10  30   59.50   39.21
   2 -10  30   70.73   62.94
  10   3   0   -6.82   14.02
 -10   3   0    9.71   32.92
  10  -3   0    7.34   20.74
  10  -3   0   -5.48   14.15
 -10  -3   0   -9.00   22.48
  10   3  -1  225.19  409.96
  10   3   1   13.66  409.50
 -10   3  -1  185.89  410.42
  10  -3  -1 1298.26  412.31
  10  -3   1 1389.48  412.40
 -10  -3  -1 1792.98  414.06
 -10   3   1   78.81  410.76
  10   3  -1  180.30  410.24
  10  -3   1 1914.39  412.19
 -10   3  -1  248.92  410.87
  10   3  -2   -6.83   34.88
  10   3   2  -13.69   33.59
 -10   3  -2    9.45   46.24
 -10   3   2   80.02   45.48
  10  -3  -2   83.82   37.24
  10  -3   2   82.99   38.40
  10   3  -2   -6.86   36.84
  10   3   2   -6.94   36.41
  10  -3  -2   46.08   34.96
 -10   3  -2   49.51   39.11
 -10  -3   2  132.15   42.30
  10  -3   2   69.70   35.08
 -10  -3  -2    9.04   36.27
 -10  -3  -3  127.08  117.99
  10   3  -3   73.67  117.35
 -10   3   3   10.16  119.58
 -10   3  -3  196.05  122.18
  10  -3  -3  116.65  117.54
 -10   3  -3   83.88  118.59
  10  -3   3  211.81  118.92
  10   3  -3   95.73  117.71
  10   3   3   -7.00  117.37
 -10  -3   3  185.47  120.08
  10  -3  -3  114.42  117.29
  10  -3   3  278.70  118.08
 -10  -3  -4   36.54   57.02
  10  -3   4  117.93   58.20
  10  -3  -4   47.43   57.48
 -10   3  -4   18.46   65.04
 -10   3  -4    7.39   59.44
  10   3  -4   41.19   58.33
  10   3   4   14.07   57.72
 -10  -3   4   35.17   59.89
  10  -3  -4   91.84   57.02
  10  -3   4   83.20   56.59
  10   3  -4   40.34   56.83
 -10  -3  -5   -9.19   15.04
  10  -3   5    6.49   19.86
  10  -3  -5   24.21   17.75
 -10   3  -5    7.91   25.67
  10   3  -5   -6.91   20.88
  10   3   5    7.11   17.93
 -10  -3   5   17.67   27.46
  10  -3  -5    6.42   16.26
  10  -3   5  -10.48   13.21
 -10   3  -5   36.31   34.57
  10   3  -5    6.52   15.10
 -10   3  -6  215.87  179.97
  10  -3   6  282.86  178.25
  10   3  -6   76.52  177.34
 -10   3  -6   62.70  177.87
 -10  -3   6  319.99  179.88
  10  -3  -6  176.32  177.69
  10  -3   6  260.90  177.41
  10   3  -6  157.54  177.37
  10   3  -7  -21.07   23.23
 -10  -3   7    8.82   29.52
 -10   3  -7   -7.67   24.91
 -10   3  -7   44.61   35.02
  10  -3  -7   33.24   19.16
  10  -3   7   -6.20   20.77
  10   3  -7   12.50   16.76
  10  -3   7    5.71   15.13
 -10  -3   8  -17.79   28.01
 -10   3  -8  -17.52   36.68
  10  -3   8   30.79   21.21
  10   3  -8    7.24   23.87
 -10  -3   8   10.25   39.19
 -10   3  -8    7.73   25.60
  10  -3  -8  -20.79   18.54
  10   3  -8    6.30   18.29
  10  -3   8   34.02   17.54
  10  -3   9  -11.68   18.50
 -10  -3   9  -52.35   45.46
  10   3  -9   21.92   30.59
  10  -3   9   -5.99   23.42
 -10  -3   9    9.11   31.79
 -10   3  -9   38.77   28.13
  10   3  -9   44.52   21.44
 -10   3  -9   95.82   38.09
  10  -3  10   11.90   13.59
  -3  10 -10   -6.64   19.19
  10   3 -10    7.60   24.05
  10  -3  10   17.90   18.73
 -10  -3  10  -27.61   30.87
 -10   3 -10  -15.67   21.42
  10   3 -10    6.14   15.36
 -10  -3  10  -42.32   49.38
  -3 -10  11  157.72  136.05
  10  -3  11   11.87  133.55
  10  -3  11  529.50  137.23
   3  10 -11  -28.49  134.65
  -3  10 -11   -6.82  134.55
 -10  -3  11   10.77  140.05
  10   3 -11  190.25  136.84
 -10  -3  11  548.98  141.05
  10   3 -11  552.33  137.00
 -10   3 -11  -23.64  135.06
   3 -10  11   81.37  135.07
   3 -10  12  -11.94   29.63
  -3 -10  12   12.44   30.65
 -10  -3  12  -10.90   44.29
   3  10 -12   29.21   25.95
  -3  10 -12  -21.00   25.13
  -3  10 -12   11.81   31.77
   3  10 -12   12.33   33.44
  10   3 -12   40.12   27.45
 -10  -3  12    8.71   31.70
  10   3 -12   25.12   20.34
   3 -10  13  540.12  177.38
  -3 -10  13  625.26  178.09
   3  10 -13  -14.98  172.56
  -3  10 -13   28.24  172.43
 -10  -3  13 1085.48  179.26
  10   3 -13  209.87  173.27
   3  10 -13   12.65  174.23
  -3  10 -13  -12.14  173.69
 -10  -3  13  -22.09  176.36
   3 -10  14   37.87   42.80
   3  10 -14   15.08   34.11
  -3  10 -14    7.26   31.95
 -10  -3  14  -33.58   49.11
  10   3 -14    8.58   33.63
 -10  -3  14    8.94   38.50
  10   3 -14   82.40   32.98
  -3  10 -14   24.97   43.63
   3 -10  15  414.52  255.20
  -3  10 -15  -14.60  253.14
   3 -10  15  622.79  257.76
 -10  -3  15  -11.35  256.14
  10   3 -15   60.89  253.54
 -10  -3  15  480.58  255.77
  10   3 -15  713.40  254.76
  -3  10 -15  -12.84  255.54
   3 -10  16  -10.39   28.57
  -3  10 -16  -14.67   25.36
  -3 -10  16  -27.56   40.89
   3  10 -16  -54.66   46.88
  10   3 -16   26.59   26.89
 -10  -3  16  -17.22   33.33
  10   3 -16  -13.04   21.02
   3  10 -17  -14.01   67.38
  -3 -10  17   76.81   56.18
   3  10 -17   31.12   54.72
  -3 -10  17   14.13   61.11
 -10  -3  17   43.70   57.25
  10   3 -17  112.56   52.79
  -3  10 -17  -54.28   68.37
  10   3 -17    9.04   52.99
  -3 -10  18   11.25   33.69
   3 -10  18   32.53   30.20
   3  10 -18   31.02   30.30
  -3  10 -18   -7.53   28.04
  -3  10 -18   13.94   59.49
   3  10 -18   43.11   68.33
   3 -10  18  -28.02   42.82
  -3 -10  18  -14.41   43.47
  -3 -10  19  -22.85   30.03
   3 -10  19   77.93   30.60
   3  10 -19   -7.95   27.93
  -3  10 -19    7.58   24.80
  -3  10 -19  -14.31   55.21
  -3 -10  19  -14.76   45.73
   3 -10  19  -28.76   44.56
   3  10 -19  -14.73   53.89
  -3 -10  20  -23.34   27.99
   3  10 -20  -31.93   31.46
   3 -10  20   22.79   27.84
  -3  10 -20    7.78   25.16
  -3 -10  20   15.12   45.11
   3 -10  20   29.52   48.03
   3  10 -20  -15.08   57.63
  -3  10 -20   29.38   55.31
  -3  10 -21   31.79   27.11
   3  10 -21   24.51   29.53
  -3 -10  21   23.88   28.94
   3  10 -21  -15.44   56.78
  -3 -10  21  -15.22   46.97
   3 -10  21  -74.43   45.46
  -3  10 -21  -15.06   59.18
   3 -10  21  -11.69   27.33
   3  10 -22  -16.65   26.98
  -3  10 -22   -8.14   28.44
  -3 -10  22  -24.42   29.59
   3  10 -22   15.79   60.89
  -3  10 -22  -15.43   58.26
  -3 -10  22   46.70   54.23
   3 -10  22  -30.50   48.80
   3 -10  22   23.94   27.41
   3  10 -23   76.55   84.70
  -3 -10  23   49.91   84.74
   3  10 -23  338.78  117.70
  -3  10 -23  394.94  112.41
   3 -10  23   61.26   85.43
  -3 -10  23  174.98  103.69
   3 -10  23   93.67   95.59
  -3  10 -23    8.54   83.57
   3  10 -24  -35.60   33.34
  -3  10 -24  -26.20   31.55
   3  10 -24   82.37   65.01
  -3  10 -24  -16.16   65.95
  -3 -10  24  -38.67   29.92
   3 -10  24   38.03   32.26
  -3 -10  24   16.24   53.74
   3 -10  24  -15.97   58.20
  -3  10 -25    9.27   44.74
   3  10 -25   33.61   75.09
  -3  10 -25  -16.51   75.21
  -3 -10  25   26.30   44.39
   3 -10  25  181.36   53.22
   3  10 -25  -36.30   44.16
  -3 -10  25  165.69   68.57
   3 -10  25   97.90   70.63
   3  10 -26    9.61   28.80
   3  10 -26  -34.26   70.88
  -3  10 -26   16.86   63.47
  -3  10 -26  -37.83   31.83
  -3 -10  26  -40.20   32.48
   3 -10  26   13.51   29.64
  -3 -10  26  -16.68   56.39
   3 -10  26   65.79   59.12
   3  10 -27  -17.44  102.10
  -3  10 -27   34.39   84.64
   3  10 -27   39.14   56.32
  -3  10 -27   10.01   49.24
  -3 -10  27   55.77   50.68
   3 -10  27   41.34   47.03
  -3 -10  27   50.94   77.72
   3 -10  27   50.31   70.91
   3  10 -28  -35.48   74.44
  -3  10 -28  -35.03   69.91
   3  10 -28  -51.65   39.17
  -3  10 -28   20.39   34.83
  -3 -10  28   14.18   33.07
  -3 -10  28   17.27   61.75
   3 -10  28   17.09   56.93
   3 -10  28  -43.15   32.15
  -3 -10  29  147.65   49.25
   3  10 -29   54.10   83.63
  -3  10 -29  -17.82   81.98
   3  10 -29   10.49   42.85
  -3  10 -29   10.59   43.59
   3 -10  29  -14.63   42.57
  -3 -10  29   70.22   69.69
   3 -10  29   52.17   69.16
  -3  10 -30  -18.12   73.20
  -3  10 -30   10.76   31.55
   3 -10  30   15.19   34.10
   3 -10  30   17.68   63.12
  10   4   0   -7.02  144.34
 -10   4   0   39.53  148.14
  10   4   0   21.36  145.38
  10  -4   1  140.63  117.22
 -10  -4  -1  167.28  117.80
  10   4  -1    7.01  115.70
 -10   4  -1  -29.18  118.99
  10  -4  -1  145.85  117.12
  10   4  -1   14.21  116.63
  10  -4  -1  261.60  117.13
  10  -4   1  212.62  117.48
 -10  -4   1  184.67  118.52
 -10  -4  -2  644.95  326.04
  10   4  -2    7.00  323.94
 -10   4  -2  -19.16  325.59
  10  -4  -2  799.33  326.31
  10  -4   2  758.28  326.25
 -10  -4   2 1365.42  328.53
  10   4  -2   -7.11  324.41
  10  -4  -2 1090.37  326.34
  10   4  -3    7.00   97.56
 -10   4  -3   -7.05   99.91
  10  -4  -3  143.52   99.28
  10  -4   3  122.17   99.82
 -10   4  -3   18.89  103.56
  10   4  -3    7.12   98.68
  10   4   3    7.28   98.21
  10  -4  -3  253.58   99.63
  10  -4   3  223.78   98.84
 -10  -4   3  256.28  101.77
  10   4  -4   21.05   52.58
  10  -4  -4   48.70   53.18
 -10   4  -4  -27.88   54.93
  10  -4   4   98.46   53.87
  10   4  -4   -7.05   53.69
 -10   4  -4  -46.57   59.90
  10  -4  -4   58.08   53.45
  10  -4   4  105.56   52.52
 -10  -4   4  174.17   57.18
  10   4  -5  133.69  208.83
 -10  -4   5  833.61  212.86
  10  -4   5  492.97  210.55
 -10   4  -5   55.07  209.41
  10   4  -5   49.16  208.98
  10  -4  -5  316.18  209.55
 -10   4  -5   27.58  210.77
  10   4  -6  -13.81   20.75
 -10   4  -6    9.08   36.91
 -10   4  -6   36.35   28.73
  10   4  -6   14.10   26.72
 -10  -4   6   18.19   30.20
  10  -4   6   26.56   24.26
  10  -4   6   20.80   20.32
  10   4  -7  104.10  146.61
 -10   4  -7  125.75  149.58
  10  -4   7  210.19  147.58
 -10   4  -7   69.94  147.88
  10   4  -7  -21.30  147.12
 -10  -4   7  347.32  150.08
  10  -4   7  287.98  147.08
 -10   4  -8  -53.33   38.42
  10  -4   8   26.01   24.64
  10   4  -8   -7.16   24.75
 -10   4  -8    7.58   27.94
  10  -4   8   15.99   18.47
  10   4  -8   -6.98   21.56
  10  -4   9   62.47   73.46
  10   4  -9   21.64   73.97
 -10  -4   9  -10.43   83.38
 -10   4  -9  158.51   81.43
 -10   4  -9   -7.63   75.26
 -10  -4   9  192.89   80.23
  10  -4   9   78.24   72.16
  10   4  -9  129.01   73.78
  10  -4  10  252.62  180.15
 -10   4 -10  303.64  183.72
  -4  10 -10    6.60  179.62
 -10  -4  10   10.52  186.28
 -10  -4  10  601.81  184.33
  10  -4  10  402.75  181.60
  10   4 -10   96.64  180.39
 -10   4 -10   -7.63  180.29
  10   4 -10  260.17  180.42
 -10  -4  11   10.74   81.69
   4  10 -11    7.19   71.25
  -4  10 -11  -20.34   72.79
  10   4 -11  -15.44   72.42
  10   4 -11  182.80   71.89
  -4 -10  11   85.73   72.75
   4 -10  12  309.05  228.66
  -4 -10  12  451.93  229.79
   4  10 -12   -7.37  226.89
  -4  10 -12   -6.97  227.08
   4  10 -12  -12.45  228.15
  10   4 -12   93.58  228.01
 -10  -4  12   32.76  231.93
  10   4 -12  843.98  229.38
   4 -10  13  146.67   97.82
  -4 -10  13  167.35   98.70
   4  10 -13   52.90   96.61
  -4  10 -13   14.06   95.57
 -10  -4  13   22.08  102.34
  -4  10 -13  -48.34   98.02
   4  10 -13  -12.76   99.81
  10   4 -13   -8.13   96.39
 -10  -4  13  338.24  100.28
  10   4 -13  213.29   96.03
   4 -10  14  716.65  224.31
   4  10 -14   -7.61  219.39
  -4  10 -14   -7.07  219.26
  -4  10 -14   12.43  220.73
  10   4 -14   59.49  219.79
 -10  -4  14  993.35  225.40
  10   4 -14  923.86  221.83
 -10  -4  14   22.33  222.47
  -4  10 -15   12.79   69.88
   4 -10  15   50.37   62.65
  -4  10 -15    7.27   63.88
   4 -10  15   77.60   69.10
  10   4 -15    8.60   63.46
 -10  -4  15   11.31   72.95
 -10  -4  15  205.04   69.43
  10   4 -15  110.83   62.44
   4 -10  16  278.95  153.53
  -4  10 -16  -14.62  151.57
  -4 -10  16  166.64  155.40
 -10  -4  16  -11.45  155.47
  10   4 -16   -8.79  151.83
 -10  -4  16  365.92  156.01
   4  10 -16   13.77  155.31
  10   4 -16  396.33  152.65
  -4 -10  17   14.24   43.88
  -4 -10  17   44.21   26.87
   4  10 -17   -7.84   28.36
  -4 -10  18  -11.33   26.81
   4 -10  18  -10.82   30.52
   4  10 -18  -15.62   26.43
  -4  10 -18  -22.52   28.96
  -4  10 -18   13.90   51.90
   4  10 -18  -14.48   56.02
   4 -10  18   13.97   46.29
  -4 -10  18   87.06   45.67
  -4 -10  19   23.00   28.64
   4  10 -19  -32.00   27.98
   4 -10  19   99.76   32.04
  -4  10 -19  -22.69   25.42
   4  10 -19  -14.83   52.97
  -4 -10  19   59.46   43.96
   4 -10  19  -43.06   42.50
  -4  10 -19   71.41   52.72
  -4 -10  20   11.74   30.69
   4  10 -20    8.03   26.30
  -4  10 -20  -38.81   29.37
   4 -10  20   11.38   28.33
   4  10 -20   30.37   55.47
  -4 -10  20  -45.65   51.00
   4 -10  20  -14.73   44.51
  -4  10 -20   87.95   56.84
  -4  10 -21   39.67   51.08
   4  10 -21   57.54   51.69
  -4  10 -21  -30.07   68.68
  -4 -10  21   77.85   67.63
   4 -10  21  -14.86   61.73
   4 -10  21  140.03   53.39
   4  10 -21  -77.69   70.49
  -4 -10  21   24.03   52.86
  -4 -10  22   12.28   28.71
   4  10 -22   79.42   64.67
  -4  10 -22   92.47   64.73
   4 -10  22   11.96   31.05
   4  10 -22  -25.13   28.78
  -4 -10  22  -15.65   51.13
  -4  10 -22    8.33   28.62
   4 -10  22   15.23   46.73
   4  10 -23  -48.68   75.20
  -4  10 -23    8.53   33.48
  -4  10 -23  -78.88   67.68
  -4 -10  23   50.18   39.49
  -4 -10  23  -15.99   53.47
   4 -10  23  -15.60   53.81
   4  10 -23  -25.66   35.12
   4  10 -24  -53.67   63.63
  -4  10 -24  -18.12   63.41
   4  10 -24  -82.83   86.93
  -4  10 -24   16.15   84.35
  -4 -10  24  233.15   70.43
   4 -10  24  177.38   68.65
  -4 -10  24  228.55   82.18
   4 -10  24  159.60   81.54
   4  10 -25   36.48   60.77
   4  10 -25  -50.68   87.33
  -4  10 -25   33.00   85.06
  -4  10 -25   18.52   60.83
  -4 -10  25   92.48   62.14
   4 -10  25  119.10   64.79
  -4 -10  25  149.82   81.31
   4 -10  25   48.93   80.03
   4  10 -26  -19.31   97.18
   4  10 -26  -68.86  112.77
  -4  10 -26 -101.08  114.08
  -4  10 -26  -18.90   96.76
  -4 -10  26  233.79  103.14
   4 -10  26  553.98  104.06
  -4 -10  26  390.16  120.06
   4 -10  26  -16.45  105.55
   4  10 -27   17.52  101.05
  -4  10 -27 -189.07   95.77
   4  10 -27  -98.27   57.46
  -4  10 -27  -30.03   46.34
  -4 -10  27   28.00   45.80
   4 -10  27  -14.12   46.95
  -4 -10  27  102.33   78.07
   4 -10  27  -33.56   71.37
   4  10 -28  -17.82  118.43
  -4  10 -28  105.06  113.97
   4  10 -28   72.61   98.44
  -4  10 -28   30.58   96.86
  -4 -10  28  156.57   98.26
   4 -10  28  244.60   99.51
  -4 -10  28   86.70  108.13
   4 -10  28  -17.09  109.68
   4  10 -29   18.10   74.36
  -4  10 -29  -35.66   71.94
   4  10 -29   10.54   36.73
  -4  10 -29  -21.18   36.53
   4 -10  29  102.50   39.85
  -4 -10  29   59.29   43.53
  -4 -10  29  -17.62   63.37
   4 -10  29   17.40   62.14
  -4  10 -30   72.51   75.62
  -4  10 -30   10.77   32.09
   4 -10  30   15.21   28.85
   4 -10  30  -53.08   65.29
 -10  -5   0  488.38  232.43
  10  -5   0  217.09  231.12
  10   5   0    7.39  230.56
  10  -5   0  394.55  231.25
  10  -5  -1  607.83  467.61
  10  -5   1  525.82  467.57
 -10  -5   1  896.76  468.56
  10   5  -1   -7.36  466.77
  10  -5  -1  891.03  467.81
  10  -5   2  449.62  335.19
 -10  -5   2  741.06  336.45
  10   5  -2   21.93  334.41
  10  -5  -2  444.86  334.81
  10   5  -3   14.39  143.42
  10  -5   3  286.36  145.65
  10   5  -3  -21.90  144.57
  10  -5  -3  193.23  144.74
  10  -5   3  431.04  145.52
 -10  -5   3  388.90  147.27
  10   5  -4    7.19  115.43
 -10   5  -4  -66.25  119.22
  10  -5   4  448.02  119.56
  10   5  -4   -7.31  116.62
 -10  -5   4  662.83  122.43
  10   5  -5    7.20   16.31
 -10   5  -5   18.64   32.04
  10  -5   5    7.12   20.02
 -10   5  -5   41.75   27.67
  10   5  -5   -7.23   24.69
  10  -5   5   10.55   16.70
 -10  -5   5    9.47   22.54
  10   5  -6   36.06  234.24
 -10   5  -6  -73.47  236.04
 -10  -5   6 1073.10  239.07
  10  -5   6  411.86  235.67
 -10   5  -6   20.62  234.84
  10   5  -6   43.45  234.93
  10  -5   6  717.33  236.00
  10   5  -7   -7.23   31.70
 -10   5  -7   18.10   43.63
  10  -5   7   13.77   32.59
 -10   5  -7  -14.48   37.18
  10   5  -7    7.22   36.38
 -10  -5   7   75.51   37.44
  10  -5   7   86.48   32.18
  10   5  -8  108.95  262.67
  10  -5   8  407.43  263.54
 -10   5  -8   26.79  264.07
 -10   5  -8   23.17  263.13
  10   5  -8    7.25  262.79
  10  -5   8  816.81  263.93
 -10  -5   8  824.38  266.37
  10   5  -9    7.30   31.34
  10  -5   9   53.20   34.72
  10   5  -9  -21.90   36.63
 -10   5  -9  -30.51   39.28
 -10  -5   9   56.32   41.52
  10  -5   9   79.15   32.15
  10   5 -10  172.25  104.75
  -5  10 -10  -13.14  103.74
  10   5 -10   44.18  105.27
  10   5 -11   72.29   72.50
   5  10 -11  -21.80   73.14
  -5  10 -11   20.24   72.74
 -10  -5  11   10.71   88.88
  10   5 -11   37.89   74.10
   5 -10  12  130.22   89.57
  -5 -10  12  228.20   92.36
   5  10 -12   -7.45   88.57
  -5  10 -12   -6.94   88.20
 -10  -5  12   21.84  100.05
  10   5 -12  -22.92   90.10
   5  10 -12  -12.57   90.98
  10   5 -12  218.59   89.77
   5 -10  13  316.62  185.53
  -5 -10  13  454.84  186.90
   5  10 -13   -7.49  183.21
  -5  10 -13   14.00  183.42
  -5  10 -13   36.11  184.20
   5  10 -13  -12.89  185.03
  10   5 -13   71.40  183.71
  10   5 -13  496.66  184.94
 -10  -5  13   11.02  189.51
   5 -10  14  162.91  113.84
  -5  10 -14    7.05  110.18
  -5  10 -14   12.38  113.00
 -10  -5  14   33.60  118.76
  10   5 -14   -8.26  110.91
 -10  -5  14  406.37  116.55
  10   5 -14  272.26  111.28
 -10  -5  15   11.32  144.39
   5 -10  15  231.05  142.23
   5 -10  15  296.60  144.56
  -5 -10  15   27.33  142.05
  -5  10 -15   21.25  140.29
  -5  10 -15  -25.49  143.33
  10   5 -15  -25.04  140.45
 -10  -5  15  478.95  145.58
  10   5 -15  347.46  141.45
  -5 -10  16  228.92   92.74
   5 -10  16  329.84   94.51
   5  10 -16  -23.14   90.55
  -5  10 -16    7.29   89.95
  -5 -10  16  182.03   98.23
   5  10 -16  -13.90   97.44
  -5 -10  17   44.57   38.81
   5  10 -17   47.43   38.20
   5  10 -17  -42.72   60.37
  -5 -10  17  -28.70   48.87
  -5 -10  18  135.74   60.85
   5 -10  18  205.18   62.52
   5  10 -18  -23.62   58.62
  -5  10 -18   22.05   57.61
   5 -10  18   28.05   66.38
  -5  10 -18   83.22   75.28
   5  10 -18   43.78   74.10
  -5 -10  18   58.82   73.45
 -10  -5  18   48.76   68.40
  -5 -10  19   11.58   29.14
   5  10 -19    8.06   26.45
   5 -10  19   44.27   27.85
  -5  10 -19  -30.19   25.25
  -5  10 -19  -57.02   56.71
   5  10 -19   14.95   53.19
   5 -10  19   14.33   38.39
  -5 -10  19  -14.97   41.27
 -10  -5  20  -12.91   83.98
  -5 -10  20  224.65   78.32
   5  10 -20  -16.19   74.25
  -5  10 -20    7.72   74.01
  -5 -10  20  137.92   86.68
   5 -10  20  176.62   86.27
   5  10 -20   30.59   89.42
   5 -10  20  227.26   78.73
  -5  10 -20  -14.64   88.17
   5 -10  21  -11.66   27.57
 -10  -5  21  -13.35   50.99
   5  10 -21   -8.25   25.97
  -5 -10  21   36.28   30.62
   5  10 -21 -140.81   63.82
  -5  10 -21   60.07   58.91
  -5 -10  21  -15.67   50.32
   5 -10  21  -15.10   45.43
 -10  -5  21  -11.92   24.14
  -5  10 -21   -7.92   27.30
 -10  -5  22  -13.78  101.07
  -5  10 -22  -24.97   85.62
  -5 -10  22  197.70   89.50
  -5  10 -22  338.76  111.28
   5 -10  22  107.56   89.13
  -5 -10  22  236.30  105.03
   5 -10  22   91.35   99.02
 -10  -5  22  135.40   86.89
   5  10 -22   -8.43   85.74
   5  10 -22  367.72  113.55
  -5  10 -23  126.15   64.63
 -10  -5  23  -28.41   54.09
  -5  10 -23    8.52   29.30
   5  10 -23   32.66   60.27
  -5 -10  23  -12.62   30.62
   5 -10  23   24.77   31.13
  -5 -10  23   16.09   50.97
   5 -10  23   15.59   50.96
   5  10 -23  -17.64   28.90
 -10  -5  24  -43.84   70.37
   5  10 -24  -18.00   57.24
  -5  10 -24  -16.14   83.89
  -5  10 -24  -18.12   58.39
  -5 -10  24  182.39   64.75
   5 -10  24  202.76   63.50
   5 -10  24   15.96   73.69
  -5 -10  24  279.10   77.83
   5  10 -24   33.33   83.23
   5  10 -25   -9.17   46.03
   5  10 -25   16.99   76.86
  -5  10 -25  -16.50   73.21
  -5  10 -25    9.26   47.35
  -5 -10  25   92.97   49.16
  -5 -10  25   83.68   69.47
   5 -10  25  105.90   49.47
   5 -10  25   65.27   67.38
   5  10 -26 -311.52  108.54
  -5  10 -26 -219.05  103.22
   5  10 -26  -38.83   44.68
  -5  10 -26  -58.88   47.90
  -5 -10  26  110.57   42.84
   5 -10  26   27.04   37.81
  -5 -10  26 -119.35   83.85
   5 -10  26   50.00   61.70
   5  10 -27  -52.84   99.05
  -5  10 -27   34.38   94.17
   5  10 -27   29.63   73.81
  -5  10 -27   40.04   72.42
  -5 -10  27  211.01   79.36
   5 -10  27  113.07   76.23
  -5 -10  27  260.23   94.27
   5 -10  27  -67.15   89.14
   5  10 -28   17.91   74.59
  -5  10 -28  -17.52   72.59
   5  10 -28  -41.69   35.69
  -5  10 -28   62.48   35.01
  -5 -10  28   28.59   34.43
   5 -10  28   14.41   32.03
  -5 -10  28   17.42   61.65
   5 -10  28   17.11   55.83
   5  10 -29  -72.76   78.40
  -5  10 -29  -89.19   72.39
   5  10 -29  -10.58   31.14
  -5  10 -29  -10.60   30.02
   5 -10  29   89.84   33.71
  -5 -10  29  -17.70   47.41
   5 -10  29  -17.42   61.48
  -5 -10  29   14.88   34.19
  -5  10 -30  -18.14   81.34
  -5  10 -30   53.90   45.66
   5 -10  30   45.69   48.50
   5 -10  30  -17.72   69.56
  10  -6   0  292.02  275.39
  10  -6   1  684.49  642.97
  10   6  -2   15.17   34.94
  10  -6   2   36.65   31.62
 -10  -6   3  685.35  284.92
  10   6  -3  -22.69  282.37
  10  -6   3  553.09  283.12
 -10  -6   4   19.54   19.21
  10  -6   4   -7.41   18.36
  10   6  -4    7.51   22.35
  10  -6   4   11.12   15.15
  10  -6   5  451.57  475.96
 -10  -6   5 1003.44  477.53
  10   6  -5  -15.04  475.51
  10  -6   5 1053.94  476.40
  10   6  -6   -7.40  107.83
  10  -6   6  128.88  109.43
  10   6  -6    7.52  109.39
  10  -6   6  263.27  109.43
 -10  -6   6  340.95  112.46
  10   6  -7   -7.40  223.51
 -10   6  -7   54.94  224.71
  10  -6   7  281.56  224.79
 -10  -6   7  759.38  227.92
  10   6  -7   14.87  224.35
  10  -6   7  753.82  225.40
  10   6  -8   37.10   94.83
  10  -6   8   96.59   96.25
  10   6  -8    7.40   96.27
  10  -6   8  182.75   95.64
 -10  -6   8  185.35   98.16
  10   6  -9   22.33  149.83
  10   6  -9   81.71  151.18
  10   6 -10   -7.47   14.81
  -6  10 -10  -19.61   22.69
  10   6 -10   14.95   25.37
 -10  -6  10    9.74   25.69
  10   6 -11   67.58   67.35
   6  10 -11   14.69   68.49
  -6  10 -11   13.43   67.69
  10   6 -11    7.53   68.86
  -6 -10  12   89.68   39.66
  10   6 -12   37.77   35.06
   6  10 -12    7.52   38.29
  -6  10 -12  -20.34   36.15
 -10  -6  12   54.63   59.59
  10   6 -12  -15.15   37.59
  10   6 -13  106.44   76.23
   6 -10  13   84.95   78.58
 -10  -6  13   11.00   94.27
   6  10 -13   -7.57   76.84
  -6  10 -13   13.64   75.82
  10   6 -13   23.37   78.05
  10   6 -14   91.95   79.25
   6 -10  14   99.95   82.65
   6 -10  14  155.74   81.42
 -10  -6  14  -11.21   91.42
  -6  10 -14   14.04   80.34
  -6  10 -14  -12.34   84.05
  10   6 -14   16.17   80.10
 -10  -6  14  324.67   85.69
   6 -10  15  180.03  113.80
   6 -10  15  219.85  111.47
  -6 -10  15  -41.38  112.80
  -6  10 -15  -28.25  110.61
  -6  10 -15  -25.42  115.44
   6  10 -15  -68.43  115.66
 -10  -6  15   81.84  114.99
  -6 -10  16  -10.97   26.73
   6 -10  16   20.57   27.38
   6  10 -16  -23.36   31.44
  -6 -10  16   14.13   42.53
  -6  10 -16  -21.20   30.73
   6  10 -16 -112.21   64.74
 -10  -6  16   19.29   25.48
 -10  -6  16  -24.30   49.79
  -6 -10  17   11.24   82.80
   6  10 -17   23.93   82.67
  -6 -10  17   86.86   90.10
   6  10 -17  -43.12   93.97
 -10  -6  17  306.71   84.64
 -10  -6  17   49.80   88.97
  -6 -10  18   22.81   33.08
   6  10 -18   23.83   30.44
 -10  -6  18   52.96   30.80
   6  10 -18  -58.89   57.12
   6 -10  18  -14.01   41.30
  -6  10 -18   13.84   53.75
  -6 -10  18   14.83   51.07
   6 -10  19   88.46   67.49
  -6  10 -19  -14.23   76.76
  -6 -10  19  303.51   73.06
   6  10 -19   -7.98   64.25
  -6  10 -19  -30.15   66.76
   6  10 -19   30.14   78.62
   6 -10  19   85.91   79.43
  -6 -10  19  392.44   82.84
 -10  -6  19  -13.34   76.58
  -6 -10  20   95.30   61.68
   6  10 -20    8.16   58.32
   6 -10  20   79.51   60.66
  -6  10 -20   58.48   75.82
   6  10 -20  107.95   78.03
  -6 -10  20  154.43   71.36
   6 -10  20   14.71   70.45
 -10  -6  20  104.40   58.86
  -6  10 -20   23.15   57.70
 -10  -6  20   13.47   70.06
  -6  10 -21  -15.01   66.92
  -6  10 -21  -32.45   38.57
   6  10 -21   -8.31   38.31
  -6 -10  21  170.51   47.52
   6  10 -21  -63.05   67.86
   6 -10  21  104.91   42.92
  -6 -10  21   63.16   59.27
   6 -10  21  135.85   63.58
 -10  -6  21   11.97   38.85
 -10  -6  21  -27.79   65.64
  -6 -10  22   37.33   32.71
   6  10 -22  -16.11   58.02
  -6  10 -22  -15.39   58.51
   6 -10  22   60.46   29.29
  -6 -10  22   32.26   56.16
   6 -10  22   15.48   51.52
 -10  -6  22  -25.17   26.32
  -6  10 -22   -8.32   28.26
 -10  -6  22  -71.55   52.83
   6  10 -22    8.49   28.57
   6  10 -23   16.45   87.21
  -6  10 -23  -15.77   87.12
  -6 -10  23  165.13   74.91
   6 -10  23  223.00   74.87
  -6 -10  23  194.36   89.14
   6 -10  23  218.38   89.34
  -6  10 -23   -8.86   70.42
 -10  -6  23   64.71   72.64
   6  10 -23  -26.65   70.80
 -10  -6  23  132.46   85.38
   6  10 -24   -9.06   28.66
   6  10 -24   16.78   66.62
  -6  10 -24  -48.41   58.74
  -6  10 -24  -27.19   31.55
  -6 -10  24   65.53   35.70
   6 -10  24  -12.96   34.29
  -6 -10  24  -33.05   49.62
   6 -10  24  -31.93   52.78
 -10  -6  24  -13.29   25.99
 -10  -6  24   15.12   57.63
 -10  -6  25   46.51   92.15
   6  10 -25   95.92   81.77
   6  10 -25  -17.10  103.54
  -6  10 -25  198.05  102.96
  -6  10 -25    9.26   80.32
  -6 -10  25  267.13   85.63
   6 -10  25  119.24   83.04
   6 -10  25   65.31   94.15
  -6 -10  25   16.84   94.61
 -10  -6  25   13.63   78.91
 -10  -6  26  -31.27   62.16
   6  10 -26 -313.41  120.00
  -6  10 -26 -219.24  103.89
   6  10 -26  -48.83   50.80
  -6  10 -26  -68.75   54.66
  -6 -10  26   69.49   45.97
   6 -10  26   27.73   47.21
  -6 -10  26  -17.15   85.71
   6 -10  26  -33.37   69.86
 -10  -6  26   13.96   39.36
 -10  -6  27   15.99   81.40
   6  10 -27  141.70   90.50
  -6  10 -27   17.21   84.33
   6  10 -27   -9.93   57.62
  -6  10 -27   10.02   58.85
  -6 -10  27   70.69   59.88
   6 -10  27  169.80   58.47
  -6 -10  27   52.34   78.85
   6 -10  27   34.05   75.68
 -10  -6  28  -65.32   71.75
   6  10 -28  126.03   81.42
   6  10 -28   10.48   44.42
  -6  10 -28   20.85   42.70
   6 -10  28   14.42   41.14
  -6 -10  28   88.64   64.27
   6 -10  28   86.76   62.17
  -6 -10  28   44.18   43.20
  -6  10 -28   52.62   74.10
 -10  -6  29  -33.30   71.83
  -6  10 -29  160.75   82.43
   6  10 -29   42.55   45.59
  -6  10 -29   10.61   45.53
   6 -10  29  -15.00   44.19
   6 -10  29   52.35   71.54
  -6 -10  29   89.70   46.21
  -6  10 -30 -127.18   75.83
  -6  10 -30   22.05   37.52
   6 -10  30  -35.51   62.99
   6 -10  30  -15.26   27.66
  10  -7   2  296.63  279.63
  10  -7   3   37.07   39.54
  10   7  -4   -7.79  243.01
  10  -7   4  482.28  243.69
  10   7  -5  -23.22  286.02
  10  -7   5  686.46  286.99
 -10  -7   6  361.39  253.81
  10   7  -6   15.45  252.69
  10  -7   6  451.00  253.32
 -10  -7   7  631.84  374.60
  10   7  -7  -15.47  373.19
  10  -7   7  751.47  374.05
 -10  -7   8  501.45  127.05
  10   7  -8  -22.94  123.87
  -7  10  -9  -12.67   34.97
  10   7  -9   15.31   38.50
  10   7 -10   -7.64   43.05
  -7  10 -10   -6.50   45.33
  10   7 -10   22.87   47.64
  10   7 -11   -7.66   17.89
   7  10 -11  -14.86   25.17
  -7  10 -11    6.69   25.01
 -10  -7  11   42.11   25.52
  10   7 -11   30.65   27.90
 -10  -7  11   30.21   25.98
  10   7 -12   15.38   51.95
   7  10 -12   -7.61   56.21
 -10  -7  12   22.52   58.48
  -7  10 -12    6.75   55.28
  10   7 -12  -15.38   56.23
 -10  -7  12  141.34   59.02
  -7 -10  12   64.75   55.71
   7  10 -13   -7.65   31.98
  -7  10 -13   20.39   29.12
 -10  -7  13  -11.67   37.73
 -10  -7  13  107.72   33.37
 -10  -7  13   10.14   29.92
   7 -10  13  -24.19   30.29
   7 -10  14   49.83  111.15
   7 -10  14  291.22  113.49
  -7  10 -14  -41.04  110.76
 -10  -7  14  362.00  113.15
  -7  10 -14  -24.61  114.46
 -10  -7  14   48.39  113.69
 -10  -7  15    9.61   34.21
   7 -10  15  -25.66   41.62
  -7 -10  15  -27.86   42.11
   7 -10  15  -19.94   36.62
  -7  10 -15  -35.22   37.17
   7  10 -15 -124.46   66.49
 -10  -7  15  -24.92   49.86
  -7  10 -15  -25.34   52.16
  -7 -10  16  276.78  145.58
   7 -10  16  211.42  146.34
  -7 -10  16   99.90  147.85
   7 -10  16  244.11  144.98
  -7  10 -16   -7.05  142.51
   7  10 -16  -56.67  148.32
 -10  -7  16  348.07  145.51
 -10  -7  16  128.87  147.98
   7  10 -17  -43.54   58.87
  -7 -10  17  -11.34   43.66
   7  10 -17   15.66   40.74
  -7 -10  17   58.44   55.61
 -10  -7  17  124.78   42.90
  -7 -10  18  207.07   72.74
   7  10 -18   -8.02   69.53
   7 -10  18   97.94   75.14
  -7 -10  18  209.46   83.73
  -7  10 -18  -13.83   77.27
   7  10 -18  -29.71   81.22
 -10  -7  18   13.53   76.23
  -7 -10  19   91.84   89.18
   7 -10  19  100.72   89.73
  -7 -10  19  164.82   82.85
   7  10 -19  -16.09   78.27
  -7  10 -19    7.51   78.15
   7 -10  19  143.69   82.75
  -7  10 -19   42.66   90.10
   7  10 -19   30.41   90.62
 -10  -7  19  260.19   82.51
 -10  -7  19   27.91   86.51
   7  10 -20   49.37   53.12
  -7 -10  20   84.07   56.96
  -7  10 -20   15.42   51.37
  -7  10 -20   43.83   69.74
   7  10 -20 -124.40   76.25
   7 -10  20   44.10   66.67
   7 -10  20   90.85   55.24
  -7 -10  20   15.57   67.81
 -10  -7  20  174.77   56.03
 -10  -7  20 -127.72   87.12
   7  10 -21   16.76   79.44
  -7  10 -21  -24.33   79.47
   7  10 -21   15.90   98.61
   7 -10  21  200.50   84.06
  -7 -10  21  175.04   96.19
 -10  -7  21  122.82   82.94
 -10  -7  21  -72.99   90.61
  -7 -10  21  405.06   87.78
  -7  10 -21  -75.01   95.25
  -7  10 -22   15.39   64.90
   7  10 -22  -34.23   42.22
   7  10 -22  -64.94   66.00
  -7  10 -22    8.32   41.33
  -7 -10  22  137.89   47.85
  -7 -10  22  227.50   65.63
 -10  -7  22   37.86   41.67
 -10  -7  22   45.00   60.19
   7  10 -23   35.80   29.78
   7  10 -23  -66.27   63.37
  -7  10 -23  -35.44   29.79
  -7 -10  23  -12.94   29.81
  -7 -10  23   33.17   55.62
 -10  -7  23   12.95   28.62
 -10  -7  23   30.79   50.76
   7  10 -24   18.25   42.99
   7  10 -24   16.90   72.03
  -7  10 -24  193.84   81.16
  -7 -10  24   92.37   51.93
  -7 -10  24  183.02   66.46
 -10  -7  24  -40.68   40.36
 -10  -7  24  -47.34   64.62
   7  10 -25  183.57  151.02
  -7 -10  25  174.79  149.87
  -7 -10  25  152.56  167.01
 -10  -7  25   13.88  147.76
 -10  -7  25   63.13  156.48
   7  10 -26  -87.63   72.41
   7  10 -26   29.49   36.65
  -7 -10  26   13.98   37.89
  -7 -10  26   86.26   64.44
 -10  -7  26   28.37   36.57
 -10  -7  26   32.28   57.96
   7  10 -27  -71.31   75.45
   7  10 -27   10.38   33.89
  -7 -10  27  -14.22   32.63
  -7 -10  27  -52.65   55.83
 -10  -7  27  -14.48   30.38
 -10  -7  27   16.48   59.70
   7  10 -28   18.11   70.74
   7  10 -28  -10.54   32.80
  -7 -10  28  103.65   39.92
  -7 -10  28   89.14   60.91
 -10  -7  28  -73.85   29.91
 -10  -7  28  -50.42   61.45
 -10  -7  29  -17.11   59.97
  10  -8   4  350.74  330.07
  10  -8   5  104.32  100.21
  10   8  -6    8.02   24.48
  10   8  -7  -31.85   39.85
  10   8  -8   15.93   31.84
  10   8  -9   -7.96   25.39
 -10  -8  10   92.85   34.10
  10   8 -10  -15.74   37.15
 -10  -8  11   92.94   32.97
 -10  -8  11   54.11   33.63
   8  10 -11   -7.52   35.21
  10   8 -11   -7.83   36.21
 -10  -8  11   11.60   30.73
 -10  -8  12  -10.34   23.13
 -10  -8  12   11.97   29.09
 -10  -8  12   37.13   27.74
   8  10 -12    7.56   27.23
 -10  -8  13   12.35   94.25
 -10  -8  13  134.09   93.82
  -8 -10  14   13.74   29.65
 -10  -8  14   12.74   40.99
 -10  -8  14   -9.79   25.89
   8  10 -14  -13.64   38.67
  -8 -10  15   56.30   73.58
  -8 -10  15  175.21   74.62
   8  10 -15   -7.76   70.08
 -10  -8  15  120.85   71.25
   8  10 -15   27.96   77.05
  -8 -10  16  -43.24   39.84
  -8 -10  16   11.18   29.05
   8  10 -16  -15.89   28.26
   8  10 -16   14.31   43.23
  -8 -10  17   59.05   41.97
  -8 -10  17   34.04   28.49
   8  10 -17  -23.73   27.67
   8  10 -17  -14.66   45.35
 -10  -8  17   41.81   46.43
  -8 -10  18  162.56  106.46
  -8 -10  18  151.00  110.84
   8  10 -18    8.09  103.11
 -10  -8  18  274.99  107.26
 -10  -8  18   14.26  108.95
   8  10 -18  105.04  111.78
  -8 -10  19  -11.85   32.15
   8  10 -19   -8.12   33.25
  -8 -10  19   15.45   49.12
   8  10 -19  -76.76   55.94
 -10  -8  19   11.44   32.51
 -10  -8  19 -146.59   84.44
  10   8 -19    7.93   30.01
   8  10 -20   31.39  145.22
  10   8 -20   -8.46  137.31
 -10  -8  20  364.35  141.94
 -10  -8  20  -15.06  144.16
   8  10 -20   49.66  136.52
  -8 -10  20  426.51  147.53
  -8 -10  20  387.69  140.81
  -8 -10  21   49.50   37.05
   8  10 -21  -80.19   61.14
  -8 -10  21   16.05   49.37
  10   8 -21   -8.68   30.13
 -10  -8  21   61.61   31.27
 -10  -8  21   15.20   50.98
   8  10 -21    8.45   29.28
   8  10 -22   44.23   49.99
  -8 -10  22  138.98   56.94
  -8 -10  22   32.77   63.46
  10   8 -22   17.79   48.91
 -10  -8  22   12.63   50.67
 -10  -8  22   62.32   69.42
   8  10 -22  -16.37   71.01
   8  10 -23  -27.06   35.45
   8  10 -23  -50.12   64.10
  10   8 -23   56.71   34.22
  -8 -10  23   52.17   39.78
  -8 -10  23   66.85   62.73
 -10  -8  23  -13.25   32.63
 -10  -8  23  159.50   61.05
 -10  -8  24   13.56   28.62
   8  10 -24 -136.23   82.08
   8  10 -24    9.20   33.60
  10   8 -24    9.66   30.19
  -8 -10  24   13.29   32.96
  -8 -10  24   17.04   69.18
 -10  -8  24  -16.32   63.65
   8  10 -25  -52.04   68.65
   8  10 -25  -19.46   31.25
  10   8 -25   60.49   35.75
  -8 -10  25  -41.51   31.08
  -8 -10  25  -52.07   58.17
 -10  -8  25  -13.85   27.66
 -10  -8  25  -16.46   57.28
   8  10 -26   17.65   75.19
   8  10 -26   19.80   39.52
  10   8 -26  -10.29   32.93
  -8 -10  26  -52.11   59.75
  -8 -10  26  -14.08   38.90
 -10  -8  26  -72.16   34.38
 -10  -8  26  -16.80   63.81
   8  10 -27  -71.80   73.97
   8  10 -27   31.34   35.66
  -8 -10  27  -17.66   59.38
  -8 -10  27  -42.93   35.67
 -10  -8  27  -29.43   29.57
 -10  -8  27  -34.25   63.83
   8  10 -28   18.23   70.08
   8  10 -28   53.04   33.39
  -8 -10  28   14.89   31.36
 -10  -8  28  -14.98   30.75
 -10  -8  28  -87.19   66.64
 -10  -8  29  -17.74   61.74
 -10  -8  29   15.23   29.31
  10   9  -8   16.42   31.03
  10   9  -9   24.63   37.25
   9  10 -10  -14.89   29.09
  10   9 -10  -16.41   31.34
   9  10 -11   22.84   39.19
 -10  -9  12    9.87   25.97
   9  10 -12  -30.59   29.40
 -10  -9  13  -13.04   25.97
 -10  -9  13   20.22   28.63
  -9 -10  14   27.79   37.99
 -10  -9  14   31.17   40.14
  -9 -10  15   28.46   30.67
 -10  -9  15  -13.76   35.76
  -9 -10  15   11.04   23.79
   9  10 -15  -23.54   28.84
   9  10 -15   42.42   35.58
  -9 -10  16   14.57   32.89
 -10  -9  16  -14.13   36.22
  -9 -10  16   22.60   29.02
   9  10 -16   -7.81   24.47
 -10  -9  16   10.86   25.56
  10   9 -16    7.43   23.55
   9  10 -16  -14.47   42.13
  10   9 -16  -28.08   43.35
  -9 -10  17  -14.91   49.07
  -9 -10  17   34.38   43.32
 -10  -9  17   14.50   48.24
   9  10 -17   39.97   42.23
  10   9 -17  -22.89   38.52
  10   9 -17  -28.84   55.28
   9  10 -17  -44.46   52.54
 -10  -9  18  102.66   87.13
  10   9 -18  103.52  101.72
  -9 -10  18  305.19  103.27
  -9 -10  18  128.99   86.25
 -10  -9  18  401.54  114.46
   9  10 -18   -8.02   83.14
   9  10 -18   90.96  100.12
  10   9 -18   46.80   83.97
  -9 -10  19  155.99   69.71
   9  10 -19    8.20   57.28
  -9 -10  19  191.38   65.50
  10   9 -19   -7.99   56.74
   9  10 -19  -31.01   74.79
 -10  -9  19  152.00   63.57
 -10  -9  19   30.49   67.17
  10   9 -19   15.16   72.58
  -9 -10  20   15.94   45.82
   9  10 -20   50.14   29.61
  -9 -10  20  -24.45   27.07
  10   9 -20   16.79   26.85
  10   9 -20  -31.06   53.93
 -10  -9  20  -23.95   28.18
 -10  -9  20  -15.53   43.48
   9  10 -20  -31.70   51.57
   9  10 -21   -8.53   50.85
   9  10 -21  -16.19   73.15
  10   9 -21  -25.77   50.49
  -9 -10  21  162.30   57.17
 -10  -9  21   95.36   65.68
 -10  -9  21  198.38   59.22
  10   9 -21   63.58   70.39
  -9 -10  21   16.28   62.30
   9  10 -22   -8.93   30.12
   9  10 -22   16.52   59.02
  -9 -10  22  -33.05   50.04
  10   9 -22  -16.26   67.01
  10   9 -22  -27.38   32.94
  -9 -10  22   12.74   28.94
 -10  -9  22   16.25   48.68
 -10  -9  22  -12.68   29.97
   9  10 -23  -33.71   86.38
   9  10 -23   -9.10   41.53
  10   9 -23 -132.89   79.61
  -9 -10  23   33.71   72.82
  10   9 -23   18.65   42.98
  -9 -10  23   92.05   49.25
 -10  -9  23  182.68   68.17
 -10  -9  23   52.96   44.35
   9  10 -24   28.91   31.53
  10   9 -24  -19.75   32.87
  -9 -10  24   34.35   57.17
  10   9 -24  -33.92   64.02
  -9 -10  24  -13.40   33.97
 -10  -9  24  -16.95   59.08
 -10  -9  24   13.51   28.72
   9  10 -25  -87.43   72.67
   9  10 -25    9.81   35.01
  10   9 -25  -30.21   37.46
  -9 -10  25  -69.96   68.57
  -9 -10  25  -13.94   33.03
 -10  -9  25  -28.24   33.34
 -10  -9  25   34.00   56.92
   9  10 -26   17.79   71.78
   9  10 -26   20.72   32.75
  10   9 -26   20.52   36.04
  -9 -10  26   71.15   60.14
  -9 -10  26  -14.18   32.83
 -10  -9  26  -34.64   61.78
 -10  -9  26   14.39   29.77
   9  10 -27  -36.16   66.32
   9  10 -27  -10.52   31.40
  10   9 -27  -31.96   31.77
  -9 -10  27  -54.24   57.99
  -9 -10  27   29.53   35.32
 -10  -9  27   17.63   57.14
 -10  -9  27   14.95   29.20
   9  10 -28  -10.68   33.51
 -10  -9  28   17.92   58.55
  -9 -10  28   44.98   32.17
 -10  -9  28  -15.20   31.06
  10  10 -14  -15.51   32.01
 -10 -10  15  -14.39   32.27
 -10 -10  15   33.48   31.75
  10  10 -15    7.94   31.06
 -10 -10  16  -14.73   39.40
 -10 -10  16   33.96   30.99
  10  10 -16    7.90   28.37
  10  10 -16  -43.93   42.50
 -10 -10  17  -30.14   42.79
 -10 -10  17   23.17   33.66
  10  10 -17   15.86   28.05
  10  10 -17  -29.97   52.51
 -10 -10  18  -15.42   40.21
 -10 -10  18   35.46   33.21
  10  10 -18  -16.22   27.84
  10  10 -18  -30.65   47.36
 -10 -10  19   15.76   38.97
  10  10 -19   15.67   49.85
  10  10 -19   -8.26   26.16
 -10 -10  19  -24.17   30.21
 -10 -10  20   64.41   54.23
  10  10 -20   -8.44   37.00
  10  10 -20  -16.01   63.21
 -10 -10  20   86.42   45.11
 -10 -10  21   32.88   47.80
  10  10 -21  -17.67   27.88
 -10 -10  21  -25.21   29.01
 -10 -10  22   16.77   92.25
  10  10 -22  166.80  100.86
 -10 -10  22  182.14   82.79
  10  10 -22   18.02   75.41
  10  10 -23 -102.06   65.25
  10  10 -23  -28.64   37.30
 -10 -10  23  -17.10   59.12
 -10 -10  23   13.26   38.08
  10  10 -24  -69.32   69.08
 -10 -10  24   17.32   51.75
  10  10 -24    9.72   32.18
 -10 -10  24   13.80   28.68
  10  10 -25 -105.83   72.65
 -10 -10  25  -35.26   56.91
  10  10 -25    9.89   30.89
 -10 -10  25   14.06   30.69
  10  10 -26   35.88   70.40
  10  10 -26  -10.44   36.75
 -10 -10  26   89.65   66.90
 -10 -10  26   29.29   35.56
  10  10 -27   42.42   44.78
 -10 -10  27   54.65   67.52
 -10 -10  27   14.87   44.08
  11   0   0   -7.11   29.70
 -11   0   0   53.77   36.49
  11   0   0   25.31   24.70
 -11   0   1  176.67  144.95
  11   0  -1  161.03  141.27
  11   0   1  148.56  141.31
 -11   0   1  183.06  143.02
 -11   0  -1  196.08  142.81
  11   0  -1  127.38  140.26
  11   0   1  133.17  140.61
 -11   0   2   10.47   39.55
  11   0  -2   -7.38   22.77
 -11   0   2  -18.44   28.74
  11   0   2   28.10   21.28
 -11   0  -2   -9.01   28.10
  11   0  -2   12.26   17.03
  11   0   2    6.63   18.99
 -11   0   3  524.91  409.10
  11   0   3  490.14  408.52
  11   0  -3  587.31  408.41
 -11   0  -3  511.72  409.16
  11   0   3  205.28  407.84
  11   0   4   -6.83   16.85
 -11   0   4   -8.69   27.11
  11   0   4   20.91   22.14
 -11   0  -4  -18.07   27.55
  11   0  -4  -12.27   17.45
  11   0   5  327.87  885.25
  11   0  -5 2231.29  887.27
  11   0   5 1420.56  886.35
 -11   0   5   76.82  886.92
 -11   0   5 1207.12  886.37
 -11   0  -5 1748.44  887.10
  11   0   6   -6.98   15.13
 -11   0   6  -11.10   39.99
 -11   0   6   24.91   26.95
  11   0  -6   -8.14   23.94
  11   0   6   14.01   22.13
  11   0  -6    6.31   18.01
 -11   0  -6    9.15   22.55
 -11   0   7   22.46  311.48
  11   0   7  -13.97  307.85
 -11   0   7  487.21  310.03
  11   0   7  561.19  309.86
 -11   0  -7  767.20  310.61
  11   0   8   -7.00   12.89
 -11   0   8    8.49   26.17
  11   0  -8  -34.48   25.38
  11   0   8   21.09   21.20
 -11   0   8   11.37   39.46
  11   0  -8   -6.44   17.02
 -11   0  -8   37.12   23.37
 -11   0  -9  148.98  161.00
 -11   0   9  -23.04  164.91
 -11   0   9   42.99  162.70
  11   0   9   64.24  160.79
 -11   0 -10   -9.37   16.44
 -11   0  10   35.04   43.06
  11   0 -10    8.93   23.07
  11   0  10    7.17   21.85
  11   0 -10  -19.85   19.98
 -11   0  11   11.85  153.44
  11   0 -11  172.79  150.43
  11   0  11   21.58  149.36
  11   0 -11  375.82  151.18
   0  11 -12   -7.56   24.98
  11   0 -12   -9.23   24.42
  11   0  12   -7.24   23.91
  11   0 -12   62.49   24.02
   0 -11  12  -12.89   24.90
   0  11 -13    7.73   27.38
  11   0 -13   28.21   24.07
  11   0  13    7.30   27.64
  11   0 -13   14.10   21.50
  11   0 -14   -9.55   23.85
  11   0  14   14.71   25.83
  11   0 -14   35.79   27.81
   0 -11  15  110.57   81.20
   0  11 -15  -13.68   81.75
  11   0 -15   87.26   75.83
   0 -11  16   70.74   40.77
   0  11 -16  -23.88   32.58
   0  11 -16  -14.01   45.74
  11   0 -16   44.33   28.93
   0 -11  17  304.33  172.16
   0  11 -17  -16.29  170.27
   0 -11  17  304.00  175.70
   0  11 -17  -14.34  174.80
  11   0 -17  309.10  170.60
   0 -11  18  -11.50   26.64
   0  11 -18   40.72   28.69
   0 -11  18  -29.62   41.20
   0  11 -18   44.02   56.28
   0  11 -19  -16.20  243.54
   0  11 -19   15.01  248.74
   0 -11  19  484.81  251.96
   0  11 -20  -15.34   54.80
   0 -11  20  -11.92   28.29
   0  11 -20    8.28   25.35
   0 -11  20  -30.81   43.29
   0 -11  21  803.76  201.92
   0  11 -21  -16.60  194.47
   0  11 -21   15.68  199.65
   0 -11  21  739.78  207.03
   0  11 -22    8.47   28.88
   0 -11  22   24.81   29.07
   0 -11  22   16.08   53.77
   0  11 -23  -17.24   36.98
   0  11 -23  -32.69   64.64
   0 -11  23  114.83   53.82
   0 -11  23   88.61   41.86
   0  11 -24   16.67   61.27
   0 -11  24  -12.91   29.67
   0 -11  24  -33.46   49.22
   0  11 -24   17.57   28.27
   0  11 -25   16.99   67.17
   0 -11  25  -13.31   26.01
   0 -11  25   16.77   55.59
   0  11 -25    9.17   30.17
   0  11 -26   34.59   77.62
   0 -11  26   27.09   45.16
   0 -11  26  102.44   64.17
   0  11 -26   28.02   45.73
   0  11 -27  -17.59   74.32
   0  11 -27  -59.21   39.69
   0 -11  27   41.35   41.54
   0 -11  27  -17.37   66.14
   0  11 -28   35.77   75.47
   0  11 -28   10.03   34.74
   0 -11  28   28.62   44.50
   0 -11  28   17.65   62.55
   0  11 -29   31.71   48.80
   0 -11  29   29.07   48.14
   0 -11  29   71.72   67.29
 -11   1   0   10.41   60.46
  11  -1   0   50.69   50.30
 -11   1   0   41.94   53.65
  11   1   0   71.65   50.64
 -11  -1   0    9.18   53.13
  11  -1   0   48.15   48.57
  11   1   0   60.85   50.01
  11   1   1   41.87   21.92
 -11   1   1  -42.02   41.81
 -11   1  -1   10.21   39.66
 -11   1   1   67.67   33.29
  11  -1  -1   37.60   25.35
  11  -1   1   21.56   24.70
 -11   1  -1   26.99   29.01
  11   1  -1    7.20   24.95
  11   1   1   35.63   25.61
 -11  -1   1  -45.41   30.12
 -11  -1  -1  -18.44   29.92
  11  -1  -1   -5.97   19.92
  11  -1   1   11.95   20.86
  11   1  -1    6.79   20.82
  11   1   2   34.81   76.77
 -11   1   2   31.97   79.27
  11  -1  -2   45.55   77.92
  11  -1   2  188.58   78.31
 -11   1   2  -10.68   83.33
 -11   1  -2   44.03   79.89
  11   1   2   42.66   77.96
 -11  -1   2  146.10   81.24
 -11   1  -2   91.30   84.49
 -11  -1  -2  202.44   81.88
  11  -1  -2  120.50   77.48
  11  -1   2   99.39   77.33
  11   1  -2   51.63   76.27
  11   1   3    7.11   17.72
 -11   1   3   10.79   43.76
 -11   1   3  -16.15   26.60
  11  -1  -3   23.74   23.71
  11   1  -3   -7.30   23.29
  11  -1   3   13.89   21.31
 -11  -1   3   18.66   30.47
  11   1   3   14.29   24.86
 -11   1  -3   17.52   28.14
 -11  -1  -3   27.97   24.81
  11  -1  -3   12.27   15.67
  11   1  -3   -6.50   15.87
  11  -1   3    6.54   19.04
  11   1   4   49.79  524.97
 -11   1   4  219.96  525.73
 -11  -1   4  330.86  528.38
  11   1  -4 1075.77  526.76
  11  -1   4 1050.96  526.63
 -11  -1   4 1268.67  527.82
  11   1   4  257.16  525.46
 -11   1  -4  849.66  526.60
  11  -1  -4 1141.23  526.45
  11  -1   4  793.94  525.98
 -11  -1  -4  867.17  526.81
  11   1   5   -7.12   20.33
 -11  -1   5   10.89   40.90
 -11   1   5   49.46   33.75
  11   1  -5    7.59   27.26
 -11  -1   5  -28.43   32.18
  11  -1   5   27.49   25.68
  11   1   5   21.71   28.40
 -11   1  -5   17.64   30.18
  11  -1  -5   25.00   22.20
  11   1  -5   37.83   22.87
 -11  -1  -5   -9.41   26.94
  11  -1   5   13.43   21.86
  11   1   6   42.81  574.11
 -11  -1   6  428.75  578.45
  11  -1   6 2063.93  576.87
 -11   1  -6 1180.56  576.33
 -11  -1  -6 1331.98  576.47
 -11   1   6   89.47  575.53
  11   1   6  145.03  574.42
  11  -1  -6 2234.28  576.69
  11  -1   6  644.42  574.91
 -11  -1  -7    9.48   20.00
  11  -1   7    6.85   15.44
 -11   1   7   11.33   41.90
  11  -1  -7  -17.30   25.24
 -11  -1   7  -11.18   43.22
  11   1  -7    8.22   23.40
  11  -1   7   41.01   24.54
 -11  -1   7  -17.88   28.82
  11   1   7   -7.27   21.36
  11  -1  -7   -6.41   18.01
 -11   1  -7   35.98   25.20
  11   1  -7    6.32   17.04
 -11  -1  -8  333.76  397.46
  11  -1   8   54.77  396.53
 -11  -1   8   11.31  398.78
 -11   1   8  -45.96  398.62
  11  -1  -8  807.08  398.62
  11   1  -8  963.54  399.10
  11  -1   8  840.68  398.44
 -11  -1   8  812.04  398.96
  11   1   8   29.17  396.86
  11   1  -8 1316.49  398.95
 -11   1  -8  335.54  397.69
 -11  -1   9  -11.44   43.66
  11  -1   9   -6.85   13.36
 -11   1   9  -11.66   40.78
  11  -1  -9   26.82   27.55
 -11  -1   9   17.12   31.21
  11   1  -9  -43.41   28.49
  11  -1   9    6.84   22.89
  11   1   9   -7.33   22.34
  11  -1  -9   40.35   23.53
  11   1  -9   -6.51   18.69
 -11   1  -9  -18.16   20.86
 -11   1 -10   27.34  198.42
  11  -1 -10  226.81  200.12
 -11  -1  10   95.28  199.22
  11   1 -10  193.36  199.76
  11  -1  10  275.92  199.81
 -11  -1  10   11.58  201.63
  11   1  10  -14.75  198.71
  11  -1 -10  368.60  199.81
  11   1 -10  527.66  200.10
 -11   1 -11    9.16   19.58
  11  -1 -11   -9.25   19.29
 -11  -1  11  -23.47   45.74
 -11  -1  11  -17.51   30.32
  11   1 -11   17.95   23.95
  11  -1  11    6.92   24.19
  11   1  11   14.93   23.13
  11  -1 -11   14.26   18.75
  11   1 -11    6.68   17.93
   1  11 -12   -7.61   28.22
  -1  11 -12   30.07   27.32
 -11  -1  12   23.79   42.61
  11  -1 -12    9.39   24.61
  11   1 -12   36.39   29.37
 -11  -1  12    8.87   34.61
  11  -1  12   13.90   27.26
  11  -1 -12   21.73   22.59
  11   1 -12   20.32   24.72
  -1 -11  12  -12.98   27.04
   1  11 -13  -15.57   23.72
  -1  11 -13   -7.69   23.45
  11   1 -13  -18.54   24.24
 -11  -1  13   36.00   32.69
  11  -1  13  -21.21   25.03
  11  -1 -13    7.36   19.49
  11   1 -13   -6.84   19.52
  11   1 -14   -9.44   46.85
  11  -1 -14   52.36   46.35
  11   1 -14   76.33   47.82
   1 -11  15   13.75   35.23
  -1 -11  15   13.90   31.33
  -1  11 -15  -40.83   36.51
   1  11 -15  -13.76   40.53
  11   1 -15   19.16   19.77
  11  -1 -15   -7.60   19.84
  11   1 -15    7.04   18.11
   1 -11  16  112.67   62.52
  -1 -11  16   28.44   58.21
   1  11 -16   40.02   53.94
  -1  11 -16   -7.92   53.06
  -1  11 -16   55.76   63.23
   1  11 -16  -14.09   63.20
  11   1 -16  -19.46   51.31
  11   1 -16  135.88   52.38
  -1 -11  17   56.64   45.22
   1 -11  17  -11.22   39.63
   1  11 -17   16.38   40.75
  -1  11 -17    7.92   41.08
   1 -11  17  -14.41   47.21
  -1 -11  17  -58.19   52.41
  11   1 -17   87.17   37.33
   1  11 -17  100.90   68.77
  -1  11 -17   57.10   63.65
  -1 -11  18  300.39  218.09
   1 -11  18  446.85  219.29
   1  11 -18   -8.18  216.05
  -1  11 -18  -32.43  216.08
   1 -11  18  531.15  223.30
  -1 -11  18  416.70  221.87
   1  11 -18  -14.74  220.08
  -1  11 -18   29.22  220.59
  11   1 -18  631.93  217.64
  -1 -11  19   11.81   27.64
   1 -11  19   11.72   29.47
   1  11 -19  -24.41   28.21
  -1  11 -19   32.26   26.72
  -1 -11  19  -30.44   42.27
  -1  11 -19  -14.95   52.56
   1  11 -19  -30.16   51.64
   1 -11  19   90.58   43.07
  -1 -11  20  550.32  260.50
   1 -11  20  867.12  262.03
   1  11 -20   -8.31  257.75
  -1  11 -20   -8.25  257.53
  -1  11 -20   30.57  262.18
   1 -11  20  951.99  265.35
  -1 -11  20  912.46  265.10
   1  11 -20  -15.41  262.28
  -1 -11  21  -36.67   29.19
   1 -11  21   24.22   26.69
   1  11 -21   41.67   29.66
  -1  11 -21   -8.27   26.60
  -1  11 -21  -31.26   56.09
   1  11 -21   31.49   56.04
  -1 -11  21  -31.60   47.05
   1 -11  21  -15.69   47.83
   1  11 -22    8.51  136.20
  -1 -11  22  286.26  139.75
  -1  11 -22    8.45  135.99
   1 -11  22  395.91  139.90
   1  11 -22  -16.08  150.80
  -1 -11  22  629.07  151.09
   1 -11  22  240.48  150.52
  -1  11 -22  -63.86  150.20
   1  11 -23   60.54   33.14
  -1  11 -23  -17.19   31.77
   1 -11  23   25.25   34.20
  -1  11 -23  -32.60   60.68
  -1 -11  23   32.92   53.24
   1 -11  23  -16.36   57.57
   1  11 -23   16.40   65.52
  -1 -11  23   25.40   31.25
   1  11 -24    8.82   41.95
  -1  11 -24    8.77   40.64
  -1 -11  24   64.72   40.68
   1  11 -24  100.34   76.55
  -1  11 -24   16.62   73.02
  -1 -11  24   67.13   55.14
   1 -11  24   66.78   60.54
   1 -11  24   12.88   40.14
   1  11 -25   18.40   30.49
  -1  11 -25  -18.30   29.14
   1  11 -25  -34.08   63.13
  -1  11 -25  -16.95   62.78
  -1 -11  25   13.19   28.43
   1 -11  25   13.28   31.13
  -1 -11  25   16.81   50.06
   1 -11  25  -50.20   55.98
   1  11 -26  -37.45   34.95
  -1  11 -26  -18.64   30.88
   1  11 -26   34.69   72.61
  -1  11 -26  -17.26   74.39
  -1 -11  26   54.32   31.82
   1 -11  26   27.05   32.29
  -1 -11  26  -17.11   55.60
   1 -11  26   17.04   50.74
   1  11 -27   17.64   74.74
  -1  11 -27   35.12   73.97
   1  11 -27   19.79   31.89
  -1  11 -27  -19.70   34.23
  -1 -11  27   27.62   29.83
   1 -11  27  -28.12   32.37
  -1 -11  27  -52.22   61.46
   1 -11  27  -17.34   64.76
   1  11 -28  -53.77   74.88
  -1  11 -28   89.25   80.65
   1  11 -28   30.16   33.12
  -1  11 -28   10.01   32.35
  -1 -11  28  -28.67   36.47
   1 -11  28   28.59   36.37
  -1 -11  28   35.37   62.81
   1 -11  28  -17.63   58.83
  -1  11 -29   54.39   74.83
   1  11 -29   31.77   38.61
  -1  11 -29  -10.55   34.64
  -1 -11  29   14.56   33.86
   1 -11  29   29.04   30.31
   1 -11  29  -71.63   72.54
  11   2   0   -7.27   14.74
 -11   2   0    7.87   27.08
  11  -2   0   -7.70   21.58
  11   2   0  -14.52   22.24
 -11  -2   0   -9.39   26.05
  11  -2   0   23.71   15.57
  11   2  -1   57.01   86.47
  11   2   1   21.79   85.65
 -11   2   1   53.14   93.20
 -11   2   1   23.86   88.21
  11  -2  -1  101.20   88.12
 -11   2  -1   -8.33   88.57
  11  -2   1  118.34   87.43
  11   2   1   58.35   87.99
 -11   2  -1  104.13   93.72
 -11  -2   1  169.37   90.43
 -11  -2  -1   95.09   88.32
  11  -2  -1  132.78   86.86
  11  -2   1  223.08   87.56
 -11   2   2  -43.00   39.64
  11   2   2   21.78   15.97
 -11   2  -2   41.00   37.81
 -11   2   2  -48.15   28.02
  11  -2  -2   -8.13   23.86
  11  -2   2   14.66   23.32
 -11   2  -2   24.77   24.51
  11   2  -2  -29.28   23.03
  11   2   2  -14.58   24.37
 -11  -2   2   -9.36   27.06
  11  -2  -2   -6.10   14.93
 -11  -2  -2  -19.01   26.04
  11  -2   2    5.92   18.13
  11   2  -2   -7.15   16.09
  11   2   3   14.53   52.99
 -11   2  -3   61.01   63.88
  11  -2  -3   65.86   56.43
  11  -2   3   70.67   56.19
 -11   2  -3   17.71   59.45
  11   2  -3    7.35   54.93
  11   2   3   -7.38   55.58
 -11  -2   3  112.88   59.79
 -11   2   3   32.64   64.15
  11  -2  -3   86.13   55.06
  11  -2   3  152.70   55.08
 -11  -2  -3   57.57   55.39
  11   2  -3   34.69   53.71
  11   2   4   36.39   37.22
 -11   2  -4  -39.93   53.04
  11  -2  -4   75.65   41.17
 -11   2   4  -11.02   51.32
  11  -2   4   42.11   40.77
  11   2  -4   -7.41   41.03
 -11   2  -4   60.66   43.80
 -11  -2   4  111.83   46.70
  11   2   4  -59.17   41.70
  11  -2  -4   68.54   38.95
  11  -2   4   79.39   39.18
 -11  -2  -4   86.53   41.70
  11   2  -4    6.98   37.95
 -11  -2  -5  521.43  425.32
  11   2   5   -7.30  423.85
 -11   2  -5 1210.54  428.19
  11  -2   5  969.83  425.99
 -11  -2   5 1247.56  427.82
  11   2  -5  470.13  425.18
 -11   2  -5  508.42  425.55
  11   2   5    7.40  424.09
  11  -2  -5  804.66  425.34
  11   2  -5  849.61  425.34
  11  -2   5  700.37  425.12
 -11  -2   5   75.68  427.94
 -11  -2  -6   -9.71   20.38
 -11  -2   6   10.89   44.34
  11   2  -6   38.43   25.21
  11  -2   6   40.76   24.14
 -11  -2   6   47.96   31.44
  11   2   6  -22.30   24.19
 -11   2  -6   17.41   27.81
  11  -2  -6   13.06   19.00
  11   2  -6  -13.38   17.90
  11  -2   6   -6.39   16.69
  11  -2   7  402.42  460.08
 -11  -2  -7  224.49  460.03
  11  -2   7 1001.65  461.22
 -11  -2   7 1189.63  463.07
 -11  -2   7   11.11  463.03
  11  -2  -7  510.54  460.74
  11   2  -7  697.61  460.95
  11   2   7  -15.01  459.68
  11  -2  -7  986.81  461.04
  11   2  -7  785.95  460.66
 -11   2  -7  271.15  460.42
 -11  -2   8  -11.22   51.33
  11  -2   8   26.92   19.14
  11  -2  -8   -8.97   28.86
  11   2  -8   -8.05   28.18
 -11  -2   8    9.76   42.50
  11  -2   8   53.86   27.72
  11   2   8   -7.55   24.62
  11  -2  -8   41.51   25.13
 -11   2  -8  -17.45   31.44
  11   2  -8    6.50   20.11
  11  -2   9   47.04  192.32
  11  -2   9  497.45  194.85
  11   2  -9  285.34  194.40
  11  -2  -9  191.23  193.74
 -11  -2   9  -11.41  196.71
 -11  -2   9  191.60  194.75
  11  -2  -9  245.84  193.69
 -11   2  -9   17.68  192.84
  11   2  -9  321.86  193.36
  11  -2  10  -13.44   14.82
 -11  -2  10   11.54   42.53
  11  -2 -10    9.25   20.88
  11   2 -10  -25.45   25.42
 -11  -2  10  -18.45   30.01
  11  -2  10  -20.16   22.06
  11  -2 -10    7.14   18.43
  11   2 -10   -6.53   18.80
 -11   2 -10    8.91   20.99
  11  -2  11  -13.44   12.28
  11   2 -11   -8.87   24.11
 -11  -2  11   27.98   34.80
  11  -2  11  -13.42   21.54
  11  -2 -11   -7.47   20.15
  11   2 -11    6.60   18.67
 -11  -2  11   11.67   46.93
 -11   2 -11   -8.93   23.57
 -11   2 -12    8.96   15.85
  -2  11 -12  -22.43   23.60
  11   2 -12  -17.95   27.92
 -11  -2  12   17.67   31.41
 -11  -2  12   11.82   43.59
  11  -2  12    6.72   21.49
  11  -2 -12   -7.59   19.16
  11   2 -12   33.42   20.94
   2 -11  13  -13.06   41.81
  -2  11 -13    7.65   39.05
 -11  -2  13   11.97   53.77
  11   2 -13   18.33   39.26
 -11  -2  13   53.70   46.62
  11   2 -13   67.71   37.82
 -11  -2  14  -97.01   47.47
  -2 -11  14  -13.67   35.87
   2  11 -14  -13.54   37.68
  11   2 -14    9.33   27.02
 -11  -2  14  -18.14   34.41
  11   2 -14   -6.91   21.58
  -2 -11  15   13.98   32.39
   2  11 -15   -8.05   24.87
  -2  11 -15   54.20   37.06
   2  11 -15  -13.85   41.46
  11   2 -15   18.91   26.03
 -11  -2  15  -18.38   30.73
  11   2 -15    7.01   18.12
   2 -11  16   28.06   36.53
  -2 -11  16  -14.30   36.05
   2  11 -16   32.21   29.92
  -2  11 -16  -23.67   27.50
  -2  11 -16  -27.76   46.49
   2  11 -16  -28.35   46.09
  11   2 -16   -9.63   24.39
 -11  -2  16   -9.32   33.06
  11   2 -16   49.77   24.31
  -2  11 -17   28.43   56.04
  -2 -11  17   11.39   32.75
   2 -11  17  -11.19   28.35
   2  11 -17  -16.47   30.44
  -2  11 -17   -7.89   30.54
   2 -11  17   28.74   41.49
  -2 -11  17   14.63   43.21
   2  11 -17   29.00   57.85
  11   2 -17   48.87   33.22
 -11  -2  17  -18.88   35.62
  11   2 -17   72.15   27.71
  -2 -11  18  -11.61   27.79
   2  11 -18   57.60   27.59
  -2  11 -18   -8.08   25.25
   2 -11  18   14.71   39.44
  -2  11 -18  -14.56   50.08
   2  11 -18   59.32   49.17
 -11  -2  18  -28.75   35.54
  11   2 -18  -14.65   21.89
  -2 -11  19  201.83   84.73
   2 -11  19  162.15   83.49
   2  11 -19   32.71   80.80
  -2  11 -19   16.08   80.23
   2 -11  19  165.55   94.28
  -2  11 -19   44.69   92.44
   2  11 -19  -15.16   90.86
  -2 -11  20  -12.02   32.20
   2 -11  20  -23.69   32.24
   2  11 -20   41.78   31.93
  -2  11 -20   16.45   30.08
  -2  11 -20   76.20   54.18
   2 -11  20  -30.80   42.34
  -2 -11  21  245.53  113.01
   2  11 -21  -16.74  107.07
   2 -11  21  350.39  111.22
  -2  11 -21   24.75  107.78
  -2  11 -21  -15.58  119.30
   2 -11  21  313.12  121.16
   2  11 -22   25.63   43.86
  -2 -11  22   12.50   44.43
  -2  11 -22   16.80   41.91
   2 -11  22   24.69   43.05
   2 -11  22   16.00   62.64
   2  11 -23  -43.42   29.86
  -2 -11  23  -12.75   28.70
   2 -11  23   98.00   56.66
  -2  11 -23   32.52   62.95
  -2  11 -23   17.15   27.87
   2 -11  23   12.60   30.10
   2  11 -24   17.70   43.06
  -2  11 -24   44.81   43.69
  -2 -11  24  116.93   49.34
  -2  11 -24  -16.59   75.07
   2 -11  24  -12.86   43.79
   2 -11  24   16.67   61.17
   2  11 -25  -18.47   31.68
  -2  11 -25   16.91   64.04
  -2 -11  25   52.92   35.32
   2 -11  25  -13.26   30.91
  -2  11 -25   36.55   34.36
   2 -11  25   33.42   50.33
   2  11 -26  -37.58   55.55
  -2  11 -26  -55.83   53.80
  -2  11 -26 -155.05   91.75
  -2 -11  26  -40.86   52.42
   2 -11  26  -13.51   51.88
   2 -11  26  -17.02   72.94
  -2  11 -27   35.08   69.01
   2  11 -27   79.40   36.54
  -2  11 -27  -59.02   34.50
  -2 -11  27   13.85   33.15
   2 -11  27   28.10   30.34
   2 -11  27  -51.98   59.77
  -2  11 -28   35.67   77.59
   2  11 -28   30.24   39.89
  -2  11 -28  -10.00   39.42
  -2 -11  28   14.37   37.56
   2 -11  28   57.14   43.80
   2 -11  28   88.08   62.64
   2 -11  29   14.51   30.99
  -2  11 -29  -10.55   36.42
  -2 -11  29   58.35   38.81
   2 -11  29   53.69   65.44
  11   3   0   37.09  271.16
  11  -3   0 1090.66  274.87
 -11  -3   0  990.03  275.88
 -11   3   0   79.20  272.39
 -11   3   0  169.73  274.24
  11   3  -1   -7.42   20.01
  11   3   1   -7.42   17.20
  11  -3  -1   57.29   25.56
  11  -3   1   39.64   26.99
 -11   3   1   53.70   40.67
  11   3  -1   29.82   25.48
  11   3   1    7.54   25.71
  11  -3  -1   -6.07   19.43
  11  -3   1   53.54   21.23
 -11  -3   1   -9.71   28.31
 -11  -3  -1   29.38   23.44
 -11   3  -1   10.49   40.66
 -11   3  -1   -7.85   27.25
  11   3  -2   81.80  139.75
  11   3   2    7.43  139.12
 -11   3  -2   41.49  143.56
 -11   3   2  -21.76  144.06
 -11   3  -2  -15.53  140.90
  11  -3   2  280.85  141.48
  11  -3  -2  273.58  141.29
  11   3  -2   37.34  140.30
  11   3   2   -7.54  140.21
  11  -3  -2  244.32  140.92
 -11  -3   2  408.52  143.93
  11  -3   2  344.62  141.01
 -11  -3  -2  461.55  143.47
 -11  -3  -3   88.61   34.62
  11   3  -3   -7.29   30.83
  11   3   3   14.90   30.40
  11  -3   3   52.61   36.34
  11  -3  -3    8.40   34.14
 -11   3  -3   -8.21   38.40
  11   3  -3   22.33   34.71
 -11   3   3  -33.08   45.08
  11   3   3   -7.56   35.76
 -11  -3   3  153.82   42.68
  11  -3  -3   57.15   32.48
  11  -3   3   57.83   32.54
 -11   3  -3   10.27   47.09
  11   3  -4   29.26   38.76
 -11  -3  -4   29.69   39.21
 -11   3   4  -22.37   50.85
  11  -3  -4    8.56   40.05
 -11   3  -4   10.17   52.73
  11  -3   4   67.03   43.59
 -11   3  -4   16.28   43.10
  11   3  -4    7.49   40.88
  11   3   4    7.58   39.84
 -11  -3   4   77.19   43.29
  11  -3  -4   45.08   39.75
  11  -3   4   93.26   39.49
 -11  -3  -5   99.43   76.33
  11  -3  -5   86.85   77.23
  11  -3   5  136.04   78.30
 -11   3  -5   61.08   80.22
  11   3  -5   45.13   77.05
  11   3   5   -7.65   76.84
 -11  -3   5  173.06   81.26
  11  -3  -5   94.14   76.76
 -11   3  -5  141.21   87.53
  11  -3   5  144.51   76.36
  11   3  -5   14.70   75.57
 -11   3  -6  407.72  187.23
  11  -3   6  312.73  183.48
  11   3  -6   45.51  182.85
 -11   3  -6   93.89  183.48
 -11  -3   6  628.44  186.85
  11   3   6   -7.69  182.39
  11  -3  -6  279.88  183.27
  11  -3   6  252.37  182.56
  11   3  -6  142.77  182.45
 -11   3  -7   39.51   81.33
  11  -3   7   75.47   73.78
  11   3  -7   38.17   74.33
 -11  -3   7  124.65   78.55
 -11   3  -7   -8.61   77.33
 -11  -3   7  -11.05   85.55
  11  -3  -7   35.72   73.04
  11   3  -7   93.42   72.92
  11  -3   7  176.90   74.35
 -11   3  -8    9.71   67.30
 -11  -3   8  -11.14   71.70
  11  -3  -8   45.65   57.02
  11  -3   8  143.30   59.37
  11   3  -8   47.18   58.07
 -11  -3   8   28.98   63.24
 -11   3  -8    8.56   60.34
  11  -3  -8   58.05   56.40
  11   3  -8   95.79   56.59
  11  -3   8   32.54   55.17
  11  -3   9   -6.48   16.66
 -11  -3   9  -11.36   45.33
  11   3  -9  -24.49   26.18
  11  -3   9   40.77   24.17
 -11  -3   9   58.44   34.06
 -11   3  -9  -67.66   41.17
  11  -3  -9    7.37   17.06
 -11   3  -9    8.60   26.34
  11   3  -9   20.70   21.22
  11  -3  10    6.61   17.01
 -11   3 -10  -19.26   44.66
  11   3 -10   16.48   26.76
  11  -3  10   13.25   23.04
 -11  -3  10   49.89   35.34
 -11  -3  10   11.55   46.87
 -11   3 -10   -8.70   26.25
  11   3 -10   13.93   18.43
  11  -3  11    6.59   46.69
 -11  -3  11   11.66   62.23
  11   3 -11   25.75   50.84
  11  -3  11   66.09   48.73
 -11  -3  11  171.29   59.16
  11   3 -11   67.19   49.54
 -11  -3  12   23.57  169.65
  -3  11 -12  -22.32  164.80
  11   3 -12  164.87  165.50
 -11  -3  12  213.83  167.95
  11   3 -12  366.71  165.65
   3 -11  13  -13.00   24.19
  -3  11 -13  -38.09   24.04
  11   3 -13   18.13   31.40
 -11  -3  13   51.49   35.60
 -11  -3  13  -11.92   47.59
  11   3 -13   20.60   19.56
  -3 -11  14  234.05   97.33
  -3  11 -14   -7.66   94.00
   3  11 -14  -40.93   96.81
  11   3 -14   18.50   94.32
 -11  -3  14  -12.07  102.61
 -11  -3  14  144.64   97.81
  11   3 -14  236.34   94.21
  -3 -11  15   14.08   30.04
   3  11 -15    8.11   25.72
 -11  -3  15   12.22   43.40
  11   3 -15  -18.74   28.31
 -11  -3  15   -9.76   34.50
   3  11 -15  -41.87   38.78
  11   3 -15   -6.92   19.68
   3 -11  16  -13.98   40.58
  -3 -11  16  100.80   48.87
   3  11 -16   16.22   33.43
  -3  11 -16  -15.72   34.39
 -11  -3  16  -12.38   50.73
  -3  11 -16  -27.66   53.93
  11   3 -16    9.53   32.09
 -11  -3  16    9.89   38.77
   3  11 -16   28.55   55.51
  11   3 -16   42.07   24.20
  -3  11 -17  -14.17   48.28
  -3 -11  17  -11.46   27.88
   3 -11  17  -11.12   24.53
   3  11 -17    8.29   28.52
   3 -11  17   14.33   36.06
  -3  11 -17    7.87   26.34
  -3 -11  17  -14.73   37.68
   3  11 -17   14.60   49.29
  11   3 -17   -9.66   22.66
 -11  -3  17   20.05   37.71
  11   3 -17    7.11   20.41
  -3 -11  18   11.68   26.85
   3 -11  18  -11.39   28.68
   3  11 -18   16.56   26.92
  -3  11 -18   -8.06   25.66
   3 -11  18  -14.67   43.68
  -3 -11  18   45.14   41.49
   3  11 -18  -74.62   59.39
  -3  11 -18   14.51   43.74
  -3  11 -19   14.86   47.23
  -3 -11  19  -11.94   28.15
   3 -11  19  -11.56   31.15
   3  11 -19   32.91   27.98
  -3  11 -19   -8.02   28.05
   3 -11  19  -15.01   44.09
  -3 -11  19   15.38   45.13
   3  11 -19   76.26   52.35
  -3 -11  20   78.55   54.48
  -3 -11  20   60.41   34.44
   3 -11  20   82.77   39.58
   3  11 -20  -33.61   35.99
  -3  11 -20  -16.10   32.53
   3 -11  20   92.20   51.08
   3  11 -20  -15.58   57.31
  -3  11 -20   60.82   59.08
  -3 -11  21   24.68   35.88
   3  11 -21   -8.42   30.13
   3 -11  21   12.06   32.90
  -3  11 -21   -8.23   29.57
   3  11 -21  -15.91   55.39
   3 -11  21   15.63   46.27
  -3 -11  21   47.85   47.17
   3  11 -22  -17.18   29.45
  -3 -11  22   12.55   32.80
   3 -11  22   24.66   31.72
  -3  11 -22  -63.59   63.34
   3  11 -22  -48.69   68.83
  -3 -11  22   16.27   54.02
   3 -11  22  -31.95   48.24
  -3  11 -22    8.38   30.99
  -3  11 -23  -51.36   36.14
  -3 -11  23  102.40   37.06
   3 -11  23   12.59   36.65
  -3  11 -23  -16.23   64.55
   3  11 -23  -16.55   64.79
  -3 -11  23   49.78   51.46
   3 -11  23   32.63   52.91
   3  11 -23   43.63   35.49
   3  11 -24   -8.89   28.96
  -3  11 -24   -8.95   28.57
   3  11 -24  -33.73   67.58
  -3  11 -24   49.70   67.26
  -3 -11  24   13.04   30.63
   3 -11  24  -12.85   27.78
  -3 -11  24   50.73   58.69
   3 -11  24   66.60   54.68
   3  11 -25   18.55   31.89
  -3  11 -25   18.25   29.65
   3  11 -25   17.17   60.61
  -3  11 -25 -118.28   68.57
  -3 -11  25   26.56   29.90
   3 -11  25  -39.77   29.21
  -3 -11  25   67.74   56.65
   3 -11  25  -50.09   52.03
   3  11 -26  821.23  199.29
  -3  11 -26  223.81  186.78
  -3  11 -26   38.64  160.98
  -3 -11  26  205.04  162.33
   3 -11  26  243.08  161.94
  -3 -11  26  189.53  176.12
   3 -11  26  -17.01  169.09
   3  11 -27  -17.76   72.05
  -3  11 -27  -17.52   73.35
   3  11 -27  -19.93   33.98
  -3  11 -27  -39.32   32.94
  -3 -11  27  -13.89   33.53
   3 -11  27   28.09   36.82
  -3 -11  27   87.55   58.57
   3 -11  27   17.32   58.50
   3  11 -28  -18.04   76.44
  -3  11 -28  -17.82   75.06
   3  11 -28  -10.12   31.90
  -3  11 -28   41.50   32.00
  -3 -11  28   14.42   34.44
   3 -11  28  -28.56   34.12
  -3 -11  28  -17.78   51.04
   3 -11  28   17.62   54.91
  -3  11 -29  -10.54   36.63
   3 -11  29  -14.87   33.21
   3 -11  29   35.81   61.28
  11   4   0   -7.60   64.72
 -11   4   0  -21.52   73.73
  11  -4   0  164.54   68.69
  11   4   0   -7.71   66.86
  11  -4   0  130.00   66.56
 -11  -4   0  170.53   69.46
  11   4  -1   -7.59  424.27
 -11   4  -1   31.86  425.67
  11  -4   1  856.87  426.16
 -11  -4   1  970.65  427.41
 -11  -4  -1 1135.93  427.15
  11  -4  -1  633.92  425.80
  11   4  -1    7.72  424.64
  11  -4  -1  972.84  425.99
  11  -4   1  970.69  425.68
 -11  -4  -2   90.89   38.55
  11   4  -2   -7.59   35.47
 -11   4  -2  -62.92   52.04
  11  -4  -2   59.22   38.40
  11  -4   2   55.87   40.28
  11   4  -2   -7.72   39.45
  11   4   2   -7.78   38.59
  11  -4  -2   58.96   37.27
  11  -4   2   65.09   35.76
 -11   4  -2  -31.31   41.72
 -11  -4   2  130.06   42.10
  11   4  -3    7.60   75.37
 -11  -4  -3  131.83   77.48
  11  -4  -3  146.52   78.03
 -11   4  -3   54.27   78.88
  11  -4   3  125.19   77.90
 -11   4  -3   10.36   83.13
  11   4  -3  -22.89   77.23
  11   4   3  -23.44   76.47
  11  -4  -3  119.68   77.05
  11  -4   3  158.55   76.80
 -11  -4   3  218.46   80.11
  11   4  -4   68.52  171.07
  11  -4  -4  122.51  171.61
  11  -4   4  216.61  172.32
 -11   4  -4   23.00  172.46
  11   4  -4    7.60  171.46
 -11   4  -4   30.73  174.14
  11  -4  -4  271.27  172.23
 -11  -4   4  417.85  175.34
  11  -4   4  449.49  172.25
  11   4  -5   30.55   44.81
  11  -4  -5    8.89   45.46
  11  -4   5   22.97   46.05
 -11   4  -5   16.22   51.55
  11   4  -5   15.25   47.46
  11  -4  -5   84.77   47.08
 -11  -4   5   59.01   51.97
  11  -4   5   79.82   44.90
 -11   4  -5   10.14   57.11
  11   4  -6   97.42  182.03
 -11   4  -6  150.52  186.00
  11  -4   6  132.10  182.31
 -11   4  -6   52.07  183.94
  11   4  -6   53.68  182.74
  11  -4  -6  179.40  182.20
 -11  -4   6  434.43  185.44
  11  -4   6  402.05  182.39
  11   4  -7   30.12   26.41
 -11   4  -7    9.94   45.24
  11  -4   7   36.37   30.75
  11   4  -7  -23.12   31.62
 -11   4  -7  -43.01   38.82
 -11  -4   7   49.60   33.85
  11  -4   7   47.68   25.70
 -11   4  -8  108.46  132.13
  11  -4   8  201.97  129.21
  11   4  -8   54.39  128.36
 -11   4  -8   25.23  128.96
 -11  -4   8  207.82  131.08
  11  -4   8  153.70  127.60
  11   4  -8  174.20  128.66
  11  -4   9   13.89   27.45
 -11  -4   9  -11.31   48.57
  11   4  -9   15.64   30.00
 -11   4  -9   29.36   45.44
 -11   4  -9   42.36   34.86
 -11  -4   9   19.92   34.43
  11  -4   9   -6.21   23.96
  11   4  -9   44.17   26.14
  11  -4  10   89.44   97.01
  11  -4  10  206.93   99.42
  11   4 -10   40.29   99.15
 -11  -4  10  230.76  103.06
 -11  -4  10   11.53  107.26
  11   4 -10   74.18   97.28
 -11  -4  11   11.63  240.90
  11   4 -11  108.72  235.56
 -11  -4  11  568.24  238.88
  11   4 -11  299.21  235.65
  -4  11 -12  -29.64   54.62
  11   4 -12   59.07   56.22
 -11  -4  12   23.63   69.35
 -11  -4  12  160.94   62.05
  11   4 -12   85.60   53.18
  -4  11 -13   30.36  170.02
 -11  -4  13   23.86  175.05
  11   4 -13   52.75  169.92
 -11  -4  13  385.86  174.09
  11   4 -13  381.81  170.76
   4 -11  13  194.36  171.49
 -11  -4  14   12.06   51.67
  -4 -11  14  -13.88   34.22
  -4  11 -14  -22.89   34.78
   4  11 -14   13.76   42.86
  11   4 -14   -9.18   34.10
 -11  -4  14  143.66   41.08
  11   4 -14   36.40   26.89
   4  11 -15   14.07  100.25
  -4 -11  15  113.50   98.94
   4  11 -15   -8.17   94.89
  11   4 -15   -9.28   92.96
 -11  -4  15  189.51   99.61
 -11  -4  15   12.19  103.91
  11   4 -15  250.24   93.71
   4 -11  16   41.84   48.62
  -4 -11  16   14.50   47.95
   4  11 -16  -16.34   44.36
   4  11 -16  -57.53   70.60
 -11  -4  16  -37.01   63.40
  11   4 -16   -9.47   42.42
  -4  11 -16   13.79   58.44
 -11  -4  16   42.60   48.79
  11   4 -16  106.71   38.06
   4  11 -17  -29.41   51.57
  -4 -11  17  -11.54   27.78
   4 -11  17   33.29   29.07
   4 -11  17  -14.29   38.46
  -4 -11  17  -29.65   36.86
   4  11 -17  -16.32   27.53
  -4  11 -17   15.70   26.98
  -4  11 -17  -28.26   46.04
  -4 -11  18  105.84   39.07
   4 -11  18   45.48   33.46
   4  11 -18  -25.02   33.29
   4 -11  18   14.64   45.44
  -4  11 -18  -15.63   31.37
  -4 -11  18  121.20   48.83
  -4  11 -18  -14.48   53.13
   4  11 -18  -30.05   49.45
  -4 -11  19  -12.01   28.87
   4 -11  19   57.69   32.05
   4  11 -19    8.28   30.91
  -4  11 -19    8.00   28.08
   4 -11  19  -59.96   43.84
  -4 -11  19   15.48   44.65
  -4  11 -19  -59.31   52.13
   4  11 -19   92.11   52.52
  -4 -11  20   60.77   34.63
   4  11 -20    8.46   31.34
   4 -11  20   47.24   32.38
  -4  11 -20   -8.04   28.51
  -4 -11  20  -47.41   44.44
  -4  11 -20  -30.35   56.46
   4  11 -20  -62.72   55.56
   4 -11  20   15.34   46.52
  -4 -11  21  -37.12   36.67
   4  11 -21    8.47   29.88
  -4  11 -21   -8.22   31.08
   4 -11  21  -24.10   32.24
  -4  11 -21  -15.53   64.43
   4  11 -21 -112.03   72.18
   4 -11  21  -15.61   47.32
  -4 -11  21   16.04   49.07
   4  11 -22   17.27   44.87
  -4 -11  22   37.87   44.61
  -4  11 -22  -31.75   65.86
   4  11 -22   32.65   68.60
   4 -11  22   15.96   60.62
  -4 -11  22   32.72   56.54
  -4  11 -22   92.12   42.57
   4 -11  22  -12.32   40.60
   4  11 -23    8.77   30.81
  -4  11 -23    8.55   27.92
  -4 -11  23  -12.87   27.22
  -4  11 -23  -32.44   63.72
   4  11 -23  -66.57   65.38
   4 -11  23   25.17   29.03
  -4 -11  23  -50.03   48.54
   4 -11  23   97.80   51.95
   4  11 -24   -8.93   43.18
  -4  11 -24   35.77   42.21
  -4  11 -24   16.56   66.58
   4  11 -24  -16.95   71.35
  -4 -11  24  -13.11   42.97
   4 -11  24  181.93   48.64
  -4 -11  24   50.97   63.33
   4 -11  24   16.64   61.39
   4  11 -25    9.32   51.93
  -4  11 -25   33.77   79.53
  -4 -11  25  229.40   62.21
   4 -11  25   39.76   55.96
  -4 -11  25   86.48   74.39
   4 -11  25  -33.96   68.78
  -4  11 -25    9.12   52.27
   4  11 -25   69.02   77.99
   4  11 -26  -28.42   53.88
   4  11 -26 -175.50  106.40
  -4  11 -26 -120.47   95.91
  -4  11 -26  -28.97   54.87
  -4 -11  26  -27.45   56.78
   4 -11  26  -27.60   52.52
  -4 -11  26 -138.42   85.93
   4 -11  26  -17.02   71.54
   4  11 -27 -142.70   84.85
  -4  11 -27   35.04   78.43
   4  11 -27   10.00   51.01
  -4  11 -27   19.66   47.25
  -4 -11  27   27.89   49.22
  -4 -11  27   52.74   69.84
   4 -11  27  -51.97   70.48
   4  11 -28   18.11   75.06
  -4  11 -28   89.12   74.33
   4  11 -28  -10.16   35.28
  -4  11 -28   10.38   35.07
  -4 -11  28   28.93   31.58
   4 -11  28  -14.29   31.88
  -4 -11  28  -35.70   54.63
   4 -11  28   17.62   61.87
   4 -11  29   17.91   60.30
  -4  11 -29  -54.34   72.40
  -4  11 -29   31.63   32.50
   4 -11  29  -14.88   33.50
 -11  -5   0  495.31  287.88
  11  -5   0  302.79  287.02
  11   5   0   -7.96  286.30
  11  -5   0  570.99  287.46
 -11  -5   1  349.42  181.68
 -11  -5  -1  362.46  181.36
  11  -5  -1  119.52  179.88
  11  -5   1  174.08  180.37
  11   5  -1   -7.90  180.06
  11   5   1    7.99  179.83
  11  -5  -1  349.07  180.60
  11  -5   1  254.73  180.02
 -11  -5   2  574.56  301.15
  11   5  -2    7.78  298.82
  11  -5  -2  320.83  300.18
  11  -5   2  553.61  300.76
  11   5  -2  -23.67  299.43
  11  -5  -2  634.01  300.50
  11  -5   2  667.75  300.35
  11   5  -3   31.09  166.64
  11  -5   3  224.89  168.68
  11   5  -3   -7.90  167.61
  11  -5  -3  258.98  168.24
  11  -5   3  385.23  168.02
 -11  -5   3  205.04  169.09
  11   5  -4   -7.78   17.65
 -11   5  -4   10.38   37.21
  11  -5   4   23.78   24.50
 -11   5  -4   -7.75   29.66
  11   5  -4    7.81   24.44
  11  -5  -4    7.11   19.07
  11  -5   4   17.55   16.57
 -11  -5   4  -10.24   26.60
  11   5  -5   -7.79  140.49
 -11   5  -5   30.74  144.47
  11  -5   5  288.30  142.62
 -11   5  -5  -30.67  141.95
  11   5  -5   -7.82  141.32
  11  -5   5  371.29  141.74
 -11  -5   5  410.15  144.86
  11   5  -6   23.41   58.13
 -11   5  -6   30.37   66.78
  11  -5   6   30.80   58.48
 -11   5  -6    7.58   61.22
  11   5  -6    7.79   59.76
  11  -5   6  136.50   58.44
 -11  -5   6  142.65   64.59
  11   5  -7   70.47  239.05
  11  -5   7  372.87  240.54
 -11   5  -7   20.01  241.17
 -11   5  -7  -16.01  239.83
  11   5  -7   -7.82  239.62
  11  -5   7  709.33  240.45
 -11  -5   7  838.07  243.48
  11   5  -8   31.45   28.68
  11  -5   8   14.94   29.51
 -11   5  -8    8.56   34.92
 -11   5  -8  -29.69   42.19
  11   5  -8   -7.86   32.32
 -11  -5   8   10.26   33.63
  11  -5   8   45.26   25.37
  11   5  -9   39.51  110.21
  11  -5   9  214.38  112.64
  11   5  -9   -7.92  111.47
 -11  -5   9  264.29  115.44
  11  -5   9  164.15  111.00
  11   5 -10    7.77   32.77
  11   5 -10   23.91   35.61
 -11  -5  10   81.78   39.39
  11   5 -11  109.47  108.49
 -11  -5  11   23.18  120.99
  11   5 -11   24.61  109.49
 -11  -5  11  390.98  114.56
  -5  11 -12   -7.38  100.76
 -11  -5  12   47.26  114.33
  11   5 -12   -8.26  100.49
  11   5 -12  181.17  100.97
  -5  11 -13   -7.42   40.25
  11   5 -13   -8.57   38.88
 -11  -5  13  103.61   46.55
 -11  -5  13  -11.91   57.45
  11   5 -13   79.43   37.35
  -5 -11  13   13.69   39.35
  -5 -11  14   55.97  105.03
   5  11 -14  -16.12  103.09
  -5  11 -14    7.61  102.43
 -11  -5  14   12.10  112.04
  11   5 -14   80.32  103.47
 -11  -5  14  428.61  108.60
  11   5 -14  294.05  102.91
   5  11 -14  -27.76  105.13
 -11  -5  15  -12.22   88.17
  -5 -11  15   14.30   78.40
   5  11 -15   -8.24   76.13
  11   5 -15    9.01   75.08
   5  11 -15   14.19   92.89
 -11  -5  15  263.82   82.61
  11   5 -15  156.24   73.51
   5 -11  16  -27.83   32.15
  -5 -11  16   11.37   27.37
  -5 -11  16   14.62   36.32
   5  11 -16   -8.24   28.78
  -5  11 -16  -13.76   40.61
   5  11 -16  -14.50   46.29
  -5 -11  17  104.62   51.23
   5 -11  17   14.27   52.24
   5 -11  17  110.79   51.30
  -5 -11  17  119.50   59.56
   5  11 -17    8.23   48.23
  -5  11 -17   -7.83   46.66
  -5  11 -17   42.29   60.90
   5  11 -17   14.82   59.30
  -5 -11  18  -35.53   30.51
   5 -11  18   11.25   31.32
   5 -11  18   29.24   38.36
  -5 -11  18  -30.53   41.18
   5  11 -18  -25.21   28.85
  -5  11 -18  -15.60   26.98
  -5  11 -18   43.36   49.08
   5  11 -18   60.57   50.41
  -5 -11  19   59.92   41.62
   5 -11  19   23.05   38.28
   5  11 -19   16.68   39.26
   5 -11  19  -14.98   49.01
  -5  11 -19   47.94   40.35
  -5 -11  19   15.58   50.86
  -5  11 -19  103.61   56.54
   5  11 -19  -61.86   56.71
  -5 -11  20   15.91   48.89
  -5 -11  20   48.93   31.61
   5  11 -20    8.52   32.40
   5 -11  20  -23.54   31.07
  -5  11 -20    8.03   29.45
   5 -11  20   76.65   47.22
  -5  11 -20   30.32   53.06
   5  11 -20  -31.58   56.08
  -5  11 -21   -8.18   30.47
  -5 -11  21   74.70   34.88
   5  11 -21   -8.53   29.29
   5 -11  21   15.69   53.76
  -5 -11  21   81.15   55.54
  -5  11 -21  -31.02   60.34
   5  11 -21  -32.23   63.90
   5 -11  21   24.09   32.02
   5  11 -22   26.07   28.95
  -5  11 -22  -33.47   30.68
  -5  11 -22   47.59   59.86
   5 -11  22  -31.91   47.20
  -5 -11  22  -32.92   49.84
  -5 -11  22   25.39   28.42
   5 -11  22  -36.94   27.59
   5  11 -22   32.86   58.19
   5  11 -23   17.65   48.91
  -5  11 -23   35.04   49.46
  -5 -11  23   38.81   53.62
   5  11 -23   16.74   70.12
   5 -11  23  100.66   54.22
  -5 -11  23   83.86   68.06
   5 -11  23   48.91   64.69
  -5  11 -23   16.21   71.79
   5  11 -24   44.93   41.82
  -5  11 -24  -26.83   41.51
  -5  11 -24   49.65   66.74
   5  11 -24  -51.15   71.46
  -5 -11  24   52.70   42.87
   5 -11  24  116.98   43.38
  -5 -11  24   51.25   61.39
   5 -11  24  -33.30   59.19
   5  11 -25   18.74   33.62
  -5  11 -25  -67.55   88.91
  -5  11 -25   37.90   40.83
  -5 -11  25   81.37   36.58
   5 -11  25  -13.26   36.29
  -5 -11  25  -17.38   79.59
   5 -11  25  -16.98   69.49
   5  11 -26   57.14   87.03
   5  11 -26  -70.59  110.03
  -5  11 -26  206.55  108.18
  -5  11 -26   19.32   86.43
  -5 -11  26  151.68   89.63
  -5 -11  26  159.05  101.70
   5 -11  26   17.31   96.43
   5 -11  26  165.73   87.61
  -5  11 -27   87.67   71.19
   5  11 -27  -40.22   32.76
  -5  11 -27   30.63   34.24
  -5 -11  27  -14.31   30.94
  -5 -11  27   17.66   60.23
   5 -11  27   17.34   53.49
   5 -11  27   28.13   33.04
   5  11 -28   72.78   67.20
  -5  11 -28  -17.83   69.34
   5  11 -28   30.61   32.79
  -5  11 -28  -31.15   33.35
  -5 -11  28  -14.53   36.53
   5 -11  28  -52.93   57.68
   5 -11  28   43.99   32.95
  -5  11 -29   54.40   65.26
  -5  11 -29  -31.65   33.95
   5 -11  29   17.93   58.48
   5 -11  29   29.80   31.01
  11  -6   0  376.25  354.23
  11   6  -1   -8.17  172.17
  11  -6  -1  215.43  172.02
  11  -6   1  274.46  172.41
 -11  -6   2  190.01  154.29
  11  -6   2  158.53  153.17
  11   6  -2   16.23  152.75
  11  -6   2  296.05  153.72
 -11  -6   3  -10.53   24.16
  11  -6   3   -8.22   23.58
  11   6  -3  -16.19   28.67
  11  -6   3  -18.48   21.77
 -11  -6   4  378.23  231.26
  11  -6   4  161.93  229.81
  11   6  -4   -8.10  229.90
  11  -6   4  461.28  230.50
 -11  -6   5  147.04   57.71
  11   6  -5   -7.97   52.82
  11  -6   5   23.94   54.94
  11   6  -5   32.41   57.41
  11  -6   5   99.76   53.75
  11   6  -6   -7.98  140.55
  11  -6   6  181.01  142.47
 -11   6  -6   46.02  142.78
  11   6  -6  -16.02  142.09
  11  -6   6  429.93  142.63
 -11  -6   6  462.33  145.72
  11   6  -7   -7.99  107.66
  11  -6   7  193.30  109.87
 -11   6  -7   15.17  110.91
  11   6  -7  -32.10  109.98
  11  -6   7  292.30  109.44
 -11  -6   7  336.32  112.73
  11   6  -8    8.01  208.15
  11  -6   8  335.68  210.28
  11   6  -8    8.00  209.12
  11  -6   8  645.47  210.21
 -11  -6   8  347.59  210.82
  11   6  -9   -8.04   22.60
  11   6  -9    8.04   32.09
 -11  -6   9   84.53   33.76
  11   6 -10   -8.07   57.44
  11   6 -10   16.15   60.82
  11   6 -11   32.44   35.11
  -6  11 -11   -7.19   38.09
  11   6 -11   56.93   41.00
 -11  -6  11   74.00   44.33
  11   6 -12    8.16   50.83
  -6  11 -12  -22.08   53.95
 -11  -6  12   47.22   72.24
  11   6 -12   25.09   54.23
  11   6 -13   41.05   28.33
  -6  11 -13  -29.60   35.70
  11   6 -13  -25.25   35.23
 -11  -6  13  -12.02   53.76
  -6 -11  14   56.48   41.54
  11   6 -14   49.62   32.88
 -11  -6  14  -24.22   57.73
   6  11 -14  -48.83   47.90
  -6  11 -14  -22.27   41.50
  11   6 -14   34.90   39.49
  -6 -11  15   14.43   33.18
   6  11 -15  -16.27   26.99
   6  11 -15   57.28   41.64
   6 -11  16   41.69   35.19
  -6 -11  16   14.74   43.13
  -6 -11  16  -11.47   31.54
   6  11 -16  -41.55   35.12
   6  11 -16  -87.78   43.90
  -6  11 -16  -13.72   43.03
   6 -11  17   71.23   38.80
  -6 -11  17   35.06   33.60
  -6 -11  17  -15.06   43.05
   6 -11  17   11.07   31.29
   6  11 -17   16.59   30.54
  -6  11 -17    7.60   28.28
  -6  11 -17  -14.08   43.50
   6  11 -17  -29.90   49.89
   6 -11  18   87.64   51.51
  -6 -11  18   71.61   49.59
  -6 -11  18   61.52   55.09
   6 -11  18   78.67   50.04
   6  11 -18    8.47   47.01
  -6  11 -18    7.79   47.10
  -6  11 -18  -43.29   57.68
   6  11 -18   91.61   62.04
  -6 -11  19   48.29   35.23
   6 -11  19   14.97   43.34
  -6 -11  19  -15.70   42.13
   6  11 -19  -33.63   33.30
   6 -11  19  126.71   41.45
  -6  11 -19  -15.67   34.05
  -6  11 -19   29.57   48.46
   6  11 -19  124.71   58.71
  -6 -11  20  110.89   42.70
   6 -11  20   15.33   50.07
   6  11 -20  -16.83   36.96
  -6 -11  20  176.27   56.83
  -6  11 -20  -24.07   36.71
   6 -11  20   23.53   41.39
   6  11 -20  238.70   66.10
  -6  11 -20 -106.02   63.34
  -6 -11  21   50.14   31.04
   6  11 -21  -25.76   28.24
   6 -11  21   15.68   42.43
   6 -11  21  -12.04   28.29
  -6  11 -21   15.51   55.04
   6  11 -21   32.46   56.61
  -6  11 -21  -24.55   28.25
  -6 -11  21  -32.69   48.45
   6 -11  22   32.09   61.58
   6  11 -22   -8.72   41.56
  -6  11 -22  -16.73   41.77
  -6 -11  22   99.99   55.95
  -6  11 -22  -15.86   64.04
   6 -11  22  123.17   47.97
   6  11 -22   33.09   65.24
  -6 -11  22  102.24   50.03
  -6  11 -23   -8.76   29.62
  -6 -11  23  -13.02   29.34
  -6  11 -23  -16.22   56.27
   6  11 -23   50.56   59.50
   6 -11  23   16.31   46.22
  -6 -11  23   16.88   48.46
   6 -11  23  -12.74   31.56
   6  11 -23   17.77   29.19
   6  11 -24  -37.07   35.71
  -6  11 -24 -115.90   69.53
   6  11 -24   17.16   66.10
  -6  11 -24   17.89   34.92
  -6 -11  24  106.01   37.80
  -6 -11  24   85.94   57.65
   6 -11  24   16.66   54.40
   6 -11  24   26.02   37.21
  -6  11 -25  -67.59   80.58
  -6  11 -25    9.48   33.90
  -6 -11  25   13.64   35.27
  -6 -11  25   17.48   67.98
   6 -11  25  -85.00   70.18
   6 -11  25   40.69   36.72
   6  11 -25   -9.43   37.16
  -6  11 -26  -51.69   68.75
   6  11 -26   70.98   71.97
   6  11 -26   67.05   41.56
  -6  11 -26   19.34   43.23
  -6 -11  26   27.72   41.75
  -6 -11  26  -53.31   64.75
   6 -11  26  -17.34   62.36
   6 -11  26   27.65   38.67
   6  11 -27   72.10   77.65
  -6  11 -27  -17.55   74.54
   6  11 -27  -10.11   42.45
  -6  11 -27   30.66   45.01
  -6 -11  27   86.32   43.64
  -6 -11  27   18.05   61.43
   6 -11  27   35.31   59.80
   6 -11  27   14.09   37.88
  -6  11 -28   17.85   69.14
   6  11 -28  -41.02   35.32
  -6  11 -28   31.19   33.78
   6 -11  28   53.03   67.99
  -6 -11  28   14.59   32.89
   6 -11  28   58.73   35.07
  -6  11 -29  -36.31   74.80
  -6  11 -29  -32.36   44.98
   6 -11  29  -53.90   67.40
   6 -11  29  -14.93   40.52
  11  -7   1  262.64  247.95
  11  -7   2    6.80   20.04
  11  -7   3   71.42   70.11
  11   7  -4   16.63  119.66
  11  -7   4  198.08  119.57
 -11  -7   5  183.52  120.91
  11   7  -5  -24.91  120.95
  11  -7   5  207.79  120.51
 -11  -7   6  355.89  275.81
  11   7  -6    8.32  275.16
  11  -7   6  466.10  275.41
 -11  -7   7  237.28   64.69
  11   7  -7  -32.87   61.80
 -11  -7   8  334.13  104.94
  11   7  -8  -16.45  102.41
  11   7  -9   16.41   36.85
  11   7  -9   -8.19   42.38
  11   7 -10   -8.23   19.62
  11   7 -10  -49.28   30.65
 -11  -7  10   32.46   31.41
  11   7 -11   33.02   50.15
  -7  11 -11   35.81   52.76
  11   7 -11   16.51   53.62
 -11  -7  11  206.01   58.01
  11   7 -12   16.58   25.34
  -7  11 -12  -43.20   33.17
  11   7 -12  -66.49   37.84
 -11  -7  12   32.65   30.49
  11   7 -13   -8.33   26.27
   7  11 -13   16.10   32.34
 -11  -7  13   72.26   58.34
  -7  11 -13   -7.38   32.77
  11   7 -13    8.35   36.42
 -11  -7  13  142.16   37.30
  -7  11 -14   14.81   30.11
  -7 -11  14   14.26   28.11
  -7 -11  15   72.83   39.21
   7  11 -15    8.21   33.88
   7  11 -15   28.92   45.30
   7 -11  16  -13.87   32.65
  -7 -11  16  -29.75   35.22
  -7 -11  16   34.72   35.48
   7  11 -16   33.55   30.91
  -7  11 -16  -13.70   38.99
   7  11 -16   29.54   42.72
   7 -11  17   28.47   42.15
  -7 -11  17   91.17   44.51
  -7 -11  17   70.72   41.48
   7 -11  17  120.49   40.96
   7  11 -17   -8.37   38.45
  -7  11 -17  -15.18   37.99
  -7  11 -17  -56.23   46.09
   7  11 -17   30.17   49.42
   7 -11  18  233.56   78.58
  -7 -11  18  108.59   77.44
  -7 -11  18  180.53   75.28
   7  11 -18   -8.31   68.56
   7 -11  18  146.06   71.47
  -7  11 -18   22.91   69.31
  -7  11 -18   14.42   78.24
   7  11 -18  -46.21   79.81
  -7 -11  19  158.36   61.35
  -7 -11  19   48.67   48.27
   7  11 -19   -8.48   44.86
   7 -11  19   68.93   49.15
  -7  11 -19    7.83   45.03
  -7  11 -19  103.43   63.27
   7  11 -19  125.78   73.48
  -7 -11  20   64.59   49.96
   7  11 -20   -8.49   32.15
  -7  11 -20  -45.43   55.31
   7  11 -20  -64.16   56.81
  -7  11 -20  -23.98   32.20
  -7 -11  21   16.47   47.28
   7  11 -21  -25.96   29.01
  -7 -11  21   63.16   34.87
  -7  11 -21   24.55   26.65
  -7  11 -21  -31.01   54.74
  -7 -11  22   12.87   37.06
  -7 -11  22   33.57   52.52
  -7  11 -22  -47.59   57.11
   7  11 -22   16.67   67.86
   7  11 -22   43.94   36.25
   7  11 -23    8.95   29.10
  -7 -11  23  -17.09   48.95
   7  11 -23   16.98   63.31
  -7 -11  23   13.11   32.11
   7  11 -24   18.66   38.30
   7  11 -24  103.69   80.15
  -7 -11  24   34.60   62.02
  -7 -11  24  -13.34   40.76
   7  11 -25  -52.72   70.68
   7  11 -25   -9.49   32.15
  -7 -11  25  123.14   61.88
  -7 -11  25   41.17   37.80
   7  11 -26 -107.16   72.97
   7  11 -26  -10.02   36.64
  -7 -11  26   17.88   55.75
  -7 -11  26   55.77   33.75
   7  11 -27   18.13   83.89
   7  11 -27   10.17   51.61
  -7 -11  27   36.30   73.34
  -7 -11  27  101.26   54.25
  11  -8   3  144.51  137.56
  11  -8   4   52.53   53.36
  11  -8   5  342.10  322.18
  11   8  -6   17.07   28.72
  11   8  -7   -8.54   27.24
  11   8  -8    8.54   28.34
 -11  -8   9  177.10   62.04
  11   8  -9   -8.44   61.39
 -11  -8  10   44.31   24.02
  11   8 -10  -16.80   37.95
 -11  -8  11  -11.10   27.67
  11   8 -11  -16.83   34.58
 -11  -8  12  100.11   49.42
  11   8 -12    8.46   50.52
   8  11 -13   -8.14   25.94
   8  11 -14   32.51   41.02
  -8 -11  15   14.71   28.80
  -8 -11  15   11.44   27.44
   8  11 -15   -8.30   27.35
  -8 -11  16   75.10   42.74
  -8 -11  16   70.10   37.87
   8  11 -16   -8.28   34.53
   8  11 -16  -29.84   46.25
  -8 -11  17   76.68   40.43
  -8 -11  17   35.69   31.17
   8  11 -17   -8.45   29.55
   8  11 -17  -15.23   43.69
  -8 -11  18  -15.65   43.53
  -8 -11  18   60.15   37.95
   8  11 -18    8.39   32.16
   8  11 -18  -31.10   48.82
  -8 -11  19   31.95   92.15
  -8 -11  19  282.32   90.74
   8  11 -19   -8.56   84.05
   8  11 -19   95.21   92.85
  -8 -11  20   48.86   47.99
  -8 -11  20  -37.47   31.90
   8  11 -20  -25.68   30.48
  -8 -11  21   16.60   53.38
   8  11 -21  -34.90   38.83
  -8 -11  21  140.05   45.20
   8  11 -21   82.48   61.64
  -8 -11  22   16.92   49.82
   8  11 -22  -26.58   30.28
   8  11 -22  -84.02   59.85
  -8 -11  22   51.87   30.48
  -8 -11  23  103.33   97.18
   8  11 -23   18.04   79.10
  -8 -11  23   52.80   78.92
   8  11 -24  -69.65   64.78
   8  11 -24   37.60   30.21
  -8 -11  24  -27.18   29.24
  -8 -11  24   52.55   55.51
   8  11 -25   57.32   37.45
  -8 -11  25  -17.71   55.38
  -8 -11  25   27.63   38.31
   8  11 -26 -107.89   74.91
   8  11 -26   90.76   39.43
  -8 -11  26  -17.99   60.29
  -8 -11  26  -14.34   34.00
   8  11 -27  -30.70   42.04
  -8 -11  27  -29.10   41.63
  11   9 -10   -8.67   30.38
   9  11 -12   16.13   29.56
   9  11 -13   24.68   35.56
   9  11 -14  -16.43   29.65
  -9 -11  15   23.12   30.60
   9  11 -15    8.39   31.47
  -9 -11  16   30.35   35.00
  -9 -11  16  -11.77   29.44
   9  11 -16  -25.10   31.05
  -9 -11  17   61.95   31.09
  -9 -11  17   12.01   28.76
   9  11 -17  -24.90   26.78
   9  11 -17  -46.17   49.03
  -9 -11  18  -47.41   42.83
  -9 -11  18   60.72   34.28
   9  11 -18   16.94   30.08
   9  11 -18  -62.81   47.21
  -9 -11  19   80.60   49.49
  -9 -11  19   12.39   41.10
   9  11 -19   16.95   41.29
   9  11 -19   64.09   55.00
  -9 -11  20   65.75   58.47
   9  11 -20   17.28   45.85
  -9 -11  20   75.60   47.85
   9  11 -20  -32.67   64.21
  -9 -11  21   33.50   47.89
   9  11 -21  -17.55   30.33
  -9 -11  21  -12.84   32.96
   9  11 -21   16.65   56.06
  -9 -11  22   17.05   59.77
   9  11 -22   -8.94   41.41
  -9 -11  22   39.22   43.33
  -9 -11  23   52.06   53.56
   9  11 -23   51.77   60.44
   9  11 -23  -27.95   31.29
  -9 -11  23   26.61   30.70
  -9 -11  24   17.65   54.60
   9  11 -24   17.55   59.99
   9  11 -24  -28.43   34.86
  -9 -11  24   27.38   35.88
   9  11 -25   35.68   65.11
   9  11 -25  -10.01   31.30
  -9 -11  25   41.74   32.71
  -9 -11  25  -53.83   55.37
  -9 -11  26  109.29   52.41
   9  11 -26  -30.48   33.96
  -9 -11  26   14.44   36.30
   9  11 -26   54.34   65.65
   9  11 -27  -10.30   34.47
  -9 -11  27   14.65   30.84
  10  11 -12  -16.32   33.67
  10  11 -13   16.29   30.32
 -10 -11  14   11.45   29.76
  10  11 -14   -8.31   27.55
 -10 -11  15  105.16   48.29
  10  11 -15   -8.29   46.20
 -10 -11  16  -35.67   35.91
  10  11 -16  -16.92   36.04
 -10 -11  16  -15.34   35.32
 -10 -11  17  -15.65   30.56
 -10 -11  17  -12.02   30.31
  10  11 -17    8.39   28.90
 -10 -11  18   63.86   42.81
 -10 -11  18  -12.26   32.91
  10  11 -18   -8.56   26.44
  10  11 -18  -15.87   42.55
 -10 -11  19  -16.28   40.35
 -10 -11  19   12.48   33.70
  10  11 -19   34.25   31.61
  10  11 -19  -48.54   48.25
 -10 -11  20  -33.19   43.53
  10  11 -20  -34.91   35.38
  10  11 -20  -32.99   55.52
 -10 -11  20   12.72   39.73
 -10 -11  21  -16.90   51.04
  10  11 -21   26.58   35.38
  10  11 -21   16.80   63.79
 -10 -11  21   25.90   38.35
 -10 -11  22  -17.21   45.38
  10  11 -22    9.02   30.86
 -10 -11  22  -13.19   34.61
 -10 -11  23   17.50   46.60
  10  11 -23  -52.23   65.28
  10  11 -23  -28.20   31.88
 -10 -11  23   13.58   32.18
 -10 -11  24   35.60   61.83
  10  11 -24  -17.70   72.01
  10  11 -24   38.23   49.46
 -10 -11  24   55.20   47.25
 -10 -11  25  -18.08   50.46
  10  11 -25  -89.92   67.09
  10  11 -25  -10.09   33.09
 -10 -11  25   28.65   37.50
  10  11 -26  -18.26   68.65
  10  11 -26   61.43   41.69
 -10 -11  26   14.54   37.88
 -10 -11  26  -18.36   65.27
 -12   0   0  358.65  278.26
  12   0   0  301.21  275.69
 -12   0   0  262.65  276.32
  12   0   0  281.59  274.98
 -12   0   1  -56.37   49.43
  12   0  -1   -7.94   27.35
  12   0   1   -7.69   27.97
 -12   0   1  -68.48   45.26
 -12   0  -1   19.65   35.65
  12   0  -1  -13.82   22.63
  12   0   1    7.23   21.76
  12   0  -2  423.61  312.29
 -12   0   2  199.88  312.53
  12   0   2  290.16  311.75
 -12   0   2  114.81  314.83
 -12   0  -2  460.07  312.71
  12   0  -2  584.49  311.50
  12   0   2  172.89  310.67
  12   0   3  -14.88   30.25
 -12   0   3  -60.40   54.30
  12   0   3   -7.61   31.80
 -12   0  -3  -29.52   39.87
  12   0  -3  -26.76   32.08
 -12   0   4 1962.58  965.24
 -12   0  -4 1640.35  964.27
  12   0   4  615.08  962.41
  12   0   5    7.59   33.52
  12   0  -5  -78.29   44.24
 -12   0   5 -123.16   57.43
  12   0   5   -7.57   37.27
 -12   0  -5   -9.95   38.35
  12   0  -5  -26.77   36.68
  12   0   6   90.99  535.64
 -12   0   6   11.97  538.67
  12   0   6 1400.75  538.01
 -12   0  -6 1492.84  539.01
 -12   0   6  939.92  537.48
  12   0   7  -15.18   17.75
 -12   0   7   45.22   32.12
  12   0  -7   -9.17   29.08
  12   0   7   -7.58   25.56
  12   0  -7  -20.63   22.96
 -12   0  -7  -10.05   25.38
 -12   0   7   12.09   46.98
  12   0   8   60.81  375.05
 -12   0  -8  846.44  377.55
 -12   0   8  310.80  376.81
  12   0   8  442.92  376.37
 -12   0   8   12.22  377.93
 -12   0  -9   20.21   22.82
 -12   0   9    9.23   34.44
 -12   0   9   12.36   44.40
  12   0  -9   -9.45   28.63
  12   0   9   -7.66   28.35
  12   0  -9   42.20   25.01
 -12   0 -10  -10.16  238.65
 -12   0  10   12.51  241.84
 -12   0  10   74.69  240.82
  12   0 -10  506.92  241.16
  12   0  10   61.47  239.41
  12   0 -10  836.26  241.90
 -12   0  11   18.90   36.80
  12   0 -11  -19.45   28.05
  12   0  11    7.81   27.67
  12   0 -11   28.71   22.50
  12   0  12  -15.70  146.81
  12   0 -12  319.89  148.21
  12   0  13  -15.80   29.19
   0  12 -14    8.31   27.49
  12   0  14  -23.82   28.82
   0 -12  15   43.44   56.78
   0  12 -15   58.29   51.26
  12   0 -15   30.92   49.36
   0  12 -16  -33.99   84.33
   0  12 -16   14.63   90.98
   0 -12  17   15.08   36.64
   0  12 -17   33.93   31.75
   0  12 -17   44.80   44.47
  12   0 -17   -7.95   24.66
   0 -12  18  239.56  156.94
   0  12 -18  -16.91  154.65
   0  12 -18  -30.47  159.41
   0 -12  19  -12.18   28.99
   0 -12  19  -15.70   38.50
   0  12 -19    8.63   29.03
   0  12 -19  -31.10   54.17
   0 -12  20  720.80  219.30
   0  12 -20   -8.55  213.59
   0 -12  20  976.57  226.03
   0  12 -20  -15.86  217.75
   0 -12  21   50.22   41.45
   0  12 -21    8.72   36.37
   0 -12  21   32.65   57.73
   0  12 -21   16.17   73.69
   0 -12  22  729.18  215.41
   0  12 -22    8.72  209.50
   0 -12  22  498.97  218.40
   0  12 -22   16.47  216.09
   0  12 -23  -35.49   34.53
   0 -12  23  -25.99   35.52
   0  12 -23   83.90   62.55
   0 -12  23   16.93   49.68
   0  12 -24   27.00   79.00
   0 -12  24  132.22   80.60
   0  12 -24  -17.08   96.71
   0 -12  24  188.57   92.62
   0  12 -25  -27.46   34.51
   0  12 -25  -34.73   82.88
   0 -12  25   13.45   34.71
   0 -12  25   17.43   56.02
   0  12 -26  -28.59   43.49
   0 -12  26  -27.33   41.07
   0 -12  26  -17.72   62.63
   0  12 -26  -52.94   70.34
   0  12 -27  -17.92   72.28
   0  12 -27   29.03   31.18
   0 -12  27  -14.04   28.91
   0 -12  27  -35.99   55.50
   0  12 -28  -40.80   51.42
   0 -12  28  -42.74   51.36
 -12   1   0  -56.54   54.26
  12  -1   0    8.10   27.12
 -12   1   0  -68.90   43.40
  12   1   0    7.77   23.99
 -12  -1   0  -19.90   38.00
  12  -1   0    6.54   22.52
  12   1   0   15.18   17.15
  12   1   1   52.97   59.95
  12  -1  -1   65.25   63.37
 -12   1   1  -18.35   70.26
  12  -1   1  117.21   61.99
  12   1  -1   46.92   62.41
 -12   1  -1  -39.12   70.97
  12   1   1   46.47   61.48
 -12  -1   1   99.90   66.35
 -12  -1  -1  120.02   65.57
 -12   1  -1   67.40   72.18
  12  -1  -1   92.18   60.44
  12  -1   1   81.58   60.47
 -12   1   1  -34.18   83.64
  12   1  -1   44.16   60.23
  12   1   2   -7.72   31.42
  12  -1  -2  -32.90   38.62
 -12   1   2  -83.24   51.04
  12  -1   2   54.39   34.43
 -12   1  -2  -33.12   59.45
  12   1   2  -38.56   33.52
 -12   1  -2  -28.75   41.93
 -12  -1   2  -79.12   48.38
 -12  -1  -2   39.92   41.01
  12  -1  -2   13.05   31.98
  12  -1   2  -40.56   29.56
  12   1  -2  -36.98   31.77
  12   1   3  100.28  516.22
 -12   1   3  443.50  522.68
  12  -1   3  680.79  517.55
 -12   1  -3  944.73  519.52
 -12   1   3  227.03  517.43
  12  -1  -3  659.11  517.90
 -12  -1   3  845.52  518.90
  12   1   3  408.16  516.82
 -12   1  -3  629.44  518.09
  12  -1  -3  902.08  517.40
  12   1  -3  921.04  517.70
 -12  -1  -3  556.17  517.80
  12  -1   3  633.55  517.06
  12   1   4   -7.71   85.51
 -12   1   4  388.92  107.90
 -12  -1   4  198.48  119.18
 -12   1   4   96.97   95.19
  12   1  -4  179.00   93.28
  12  -1   4   52.73   88.12
 -12  -1   4  325.20  101.72
  12   1   4   23.24   88.01
 -12   1  -4    9.64   91.46
  12  -1  -4  187.56   88.62
 -12  -1  -4   40.44   87.51
  12   1  -4  155.73   88.16
  12  -1   4   28.36   86.78
  12   1   5   30.86  480.04
 -12  -1   5  176.46  485.03
  12  -1   5 1952.91  483.70
 -12  -1  -5 1030.38  482.63
 -12   1   5  -26.72  481.04
  12   1  -5  995.71  482.30
 -12  -1   5 1463.94  484.51
  12   1   5  271.25  480.63
  12  -1   5  783.33  481.21
 -12   1  -5  698.08  481.91
  12  -1   6   -7.47   17.35
  12   1   6   -7.73   13.94
 -12   1   6    8.98   29.78
  12  -1  -6   -9.12   24.79
  12   1  -6  -17.02   27.13
 -12  -1   6  -30.96   34.13
  12  -1   6   -7.48   24.66
 -12   1   6   12.04   43.41
  12   1   6   -7.76   23.22
 -12   1  -6  -19.35   28.78
  12  -1  -6  -20.53   19.58
 -12  -1   6  -11.94   46.43
  12   1  -6   27.47   17.51
 -12  -1  -6   10.22   24.76
  12  -1   7  231.45  578.55
  12   1   7   15.49  578.26
  12  -1  -7 1934.15  581.86
  12   1  -7 2196.12  582.40
  12  -1   7 2188.20  581.75
 -12  -1   7   36.16  582.49
 -12  -1   7 1840.30  582.49
 -12   1   7  -60.88  579.97
 -12   1  -7 1412.24  581.20
 -12  -1  -7  954.20  580.28
 -12   1   7   72.69  579.09
  12   1   7   55.11  578.57
  12  -1  -7 2901.23  582.22
 -12  -1  -8  -10.31   19.65
  12  -1   8    7.46   17.62
 -12  -1   8  -12.17   49.43
 -12   1   8 -110.92   45.35
  12  -1  -8  -18.82   29.40
  12   1  -8    8.94   26.39
 -12  -1   8    9.73   31.36
  12  -1   8   -7.45   24.78
  12   1   8   23.70   27.96
  12  -1  -8   13.95   17.68
  12   1  -8   13.76   19.85
 -12   1  -8    9.89   22.82
 -12  -1   9   61.48  240.23
 -12  -1  -9  165.72  236.95
  12  -1   9   22.41  235.89
 -12   1   9   12.48  239.14
  12  -1  -9  832.72  240.51
  12  -1   9  954.48  239.99
  12   1  -9  625.27  239.65
 -12  -1   9  422.58  239.42
  12   1   9   55.53  236.93
 -12   1  -9    9.90  237.52
  12  -1 -10   48.48   27.84
  12  -1  10    7.48   16.78
  12   1 -10  -18.87   29.49
 -12  -1  10   37.19   32.37
  12  -1  10   -7.47   28.48
  12   1  10   -7.96   23.71
 -12  -1  10   12.43   47.61
  12  -1 -10   14.59   20.98
  12   1 -10    7.03   21.11
 -12   1 -10   19.86   24.94
 -12   1 -11   19.94  116.20
 -12  -1  11  -37.72  125.09
  12   1 -11   96.21  118.18
 -12  -1  11   -9.40  119.12
  12  -1  11   97.96  117.90
  12   1  11    8.01  116.70
  12  -1 -11  251.29  118.02
  12   1 -11  279.24  118.14
 -12   1 -12  -10.01   17.42
 -12  -1  12    9.52   34.81
  12  -1  12   -7.56   25.44
  12   1  12   32.24   24.16
  12   1 -12   -7.25   19.32
 -12  -1  13   -9.63   65.69
  12  -1  13   75.93   62.43
  12   1 -13   80.71   61.22
   1  12 -14   -8.36   25.51
  -1  12 -14   16.55   25.53
   1 -12  14  -14.12   24.30
  -1 -12  14  -14.26   27.82
   1 -12  15  144.18   76.46
  -1 -12  15  130.95   78.37
   1  12 -15  108.82   75.21
  -1  12 -15   -8.29   72.49
   1 -12  16   29.43   34.31
  -1 -12  16   14.85   37.76
   1  12 -16  -34.16   33.54
  -1  12 -16  -33.84   32.85
  12   1 -16  -10.34   29.15
   1  12 -16  -44.11   47.18
  -1  12 -16   14.57   44.83
   1 -12  17  315.54  199.07
  -1 -12  17  272.67  199.31
   1  12 -17   34.09  193.37
  -1  12 -17    8.45  193.76
   1  12 -17   90.02  198.21
  -1  12 -17  -44.61  196.43
  12   1 -17  647.21  195.14
  -1 -12  18  -12.03   30.92
   1 -12  18   35.81   30.72
   1 -12  18  -15.33   37.46
  -1 -12  18   15.45   40.30
   1  12 -18   -8.50   31.38
  -1  12 -18   16.85   29.18
  -1  12 -18   30.36   44.84
   1  12 -18   45.93   49.87
  12   1 -18   31.26   25.79
  -1 -12  19  697.32  320.01
   1 -12  19  656.00  319.95
   1 -12  19 1048.66  324.46
  -1 -12  19  709.46  324.34
   1  12 -19  -17.33  317.11
  -1  12 -19  -51.58  317.14
  -1  12 -19  -30.99  319.01
   1  12 -19   78.07  319.70
  12   1 -19  927.67  319.16
  -1 -12  20  -12.47   28.90
   1 -12  20   49.56   34.83
   1 -12  20  -31.93   41.01
   1  12 -20   -8.59   25.85
  -1 -12  20   16.07   41.93
  -1  12 -20    8.53   27.96
  -1  12 -20  -31.61   52.50
   1  12 -20   15.92   53.89
  12   1 -20    8.04   22.50
   1 -12  21  600.98  168.13
  -1 -12  21  667.53  165.75
   1  12 -21  -17.50  159.63
  -1  12 -21  -34.77  159.44
   1 -12  21  488.29  174.51
  -1 -12  21  425.81  170.96
  -1  12 -21  -64.46  168.74
   1  12 -21  -48.69  167.42
  -1 -12  22  141.13   48.70
   1 -12  22  -12.73   42.48
   1  12 -22   34.98   44.23
  -1  12 -22   26.07   45.87
  -1 -12  22   16.68   56.27
  -1  12 -22  -16.43   69.77
   1  12 -22  -33.07   67.19
   1 -12  22   66.35   57.08
   1 -12  23  246.31  127.70
   1  12 -23  -17.81  124.63
  -1 -12  23  429.90  129.99
  -1  12 -23    8.85  124.40
   1 -12  23  236.58  135.29
  -1 -12  23  441.67  138.54
  -1  12 -23   33.47  135.25
   1  12 -23   84.16  136.29
   1  12 -24  -36.11   29.91
  -1  12 -24  -17.96   27.37
  -1 -12  24   53.03   33.37
   1 -12  24   13.19   29.70
  -1  12 -24   34.07   68.23
   1  12 -24   51.38   67.22
   1 -12  24  -17.11   53.30
  -1 -12  24   17.19   52.97
   1  12 -25   45.88   34.90
  -1  12 -25   18.26   34.48
  -1  12 -25  -86.64   89.97
   1  12 -25 -174.15   92.17
  -1 -12  25   40.43   42.08
   1 -12  25   26.85   33.88
  -1 -12  25 -104.86   64.59
   1 -12  25   17.40   59.67
   1  12 -26    9.55   36.06
  -1  12 -26   47.55   33.70
  -1  12 -26   35.22   69.34
   1  12 -26  -70.78   67.74
  -1 -12  26 -123.23   37.07
   1 -12  26   27.61   32.77
  -1 -12  26   53.27   59.63
   1 -12  26  -17.69   57.14
   1  12 -27   19.39   35.42
  -1  12 -27  107.36   74.04
   1  12 -27  -71.87   75.25
  -1  12 -27    9.66   35.02
  -1 -12  27   42.19   35.05
   1 -12  27  -14.02   34.36
  -1 -12  27   54.09   57.44
   1 -12  27  -53.91   60.72
   1  12 -28  -20.44   44.40
  -1  12 -28  -20.37   40.69
  -1 -12  28  -14.27   39.38
   1 -12  28  -56.92   37.66
  12   2   0  -15.73   17.52
 -12   2   0  -57.06   57.37
  12  -2   0  -58.53   34.86
 -12   2   0  -36.50   35.60
  12   2   0    7.85   24.61
 -12  -2   0   30.47   31.27
  12  -2   0   32.16   18.52
  12   2  -1  -23.13   20.07
  12   2   1   -7.85   20.70
 -12   2   1  195.76   67.40
 -12   2   1   -8.62   35.64
  12  -2  -1    8.44   31.55
  12  -2   1   -8.04   31.05
 -12   2  -1  147.12   58.91
 -12   2  -1   -9.05   34.72
  12   2   1   15.68   27.66
 -12  -2   1  223.95   44.84
 -12  -2  -1   20.57   30.94
  12  -2  -1   -6.49   22.15
  12  -2   1   -6.49   20.48
  12   2   2   31.40  112.88
 -12   2   2  674.44  139.65
  12  -2  -2  563.20  124.93
 -12  -2   2  516.58  126.83
 -12   2   2  243.55  120.66
  12  -2   2   79.80  115.70
 -12   2  -2  174.80  121.77
  12   2   2   47.30  114.40
  12  -2  -2  112.24  114.51
 -12  -2  -2   92.54  114.64
  12  -2   2   32.21  112.84
 -12   2  -2  647.02  134.02
  12   2  -2   30.94  113.44
  12   2   3   15.70   50.97
 -12   2  -3  221.61   74.94
 -12   2   3   -8.77   58.13
  12  -2  -3  195.62   64.24
  12  -2   3   87.20   59.09
  12   2  -3   31.88   55.21
 -12   2  -3   67.54   62.89
  12   2   3    7.89   54.24
 -12  -2   3  162.73   64.49
 -12   2   3 -105.74   74.56
  12  -2  -3   53.37   54.18
 -12  -2  -3  -10.37   54.41
  12  -2   3   93.79   54.31
  12   2  -3   45.00   53.47
  12   2   4   -7.86  234.01
 -12   2   4  -26.59  236.00
  12  -2  -4  407.78  236.52
 -12   2   4  -95.02  240.21
  12  -2   4  520.56  236.58
  12   2  -4  160.23  235.33
 -12   2  -4  274.09  236.63
  12   2   4   -7.99  234.58
 -12   2  -4  594.79  240.45
 -12  -2   4  623.58  238.47
  12  -2  -4  684.95  236.34
  12  -2   4  393.00  235.50
 -12  -2  -4  477.76  236.86
  12   2  -4  286.51  235.22
  12   2   5   -7.88   15.22
 -12  -2   5  -23.36   49.26
 -12   2  -5  -65.00   47.05
 -12   2   5  -36.05   41.05
  12  -2  -5    9.17   23.26
  12  -2   5    7.62   23.41
  12   2  -5    8.24   25.29
 -12  -2   5  -20.26   33.05
  12   2   5   16.02   28.18
 -12   2  -5  -38.19   30.54
  12  -2  -5   40.76   19.47
  12   2  -5    7.17   18.28
  12  -2   5    7.01   16.39
 -12  -2  -5  -20.85   25.52
 -12  -2   6   35.27  687.95
 -12   2  -6 1920.26  688.64
  12  -2   6 1714.58  686.82
 -12  -2   6 1580.77  687.41
 -12  -2  -6  806.44  686.01
  12   2  -6  680.18  685.62
  12   2   6   64.25  684.76
 -12   2  -6  551.54  685.79
  12  -2   6  947.64  685.61
  12  -2   7   -7.21   20.23
 -12  -2  -7   10.51   23.41
 -12  -2   7  -11.99   47.66
  12  -2  -7   28.31   21.71
  12   2  -7   25.81   28.43
  12  -2   7   37.00   24.52
 -12  -2   7   10.43   35.70
  12   2   7  -16.10   24.87
 -12   2  -7  -19.12   29.80
  12  -2  -7  -14.20   21.74
  12   2  -7   29.08   21.44
  12  -2   8  169.32  430.52
  12  -2  -8  707.30  432.34
  12  -2   8 1358.46  433.00
 -12  -2   8 1009.45  434.03
  12   2  -8  581.29  431.97
  12   2   8   32.35  430.55
  12  -2  -8  985.02  431.95
 -12   2  -8  -19.36  431.24
 -12  -2   8  -12.17  434.01
  12  -2   9    7.35   14.78
 -12  -2   9  -49.12   49.84
  12  -2  -9   -9.72   21.47
  12   2  -9   -9.03   24.93
 -12  -2   9   31.82   36.16
  12  -2   9   -7.37   24.69
  12   2   9  -24.39   22.76
  12  -2  -9   21.86   20.68
 -12   2  -9  -19.34   25.55
  12   2  -9   21.20   20.83
  12  -2  10  -14.70   94.54
 -12  -2  10  -12.40  105.06
  12   2 -10   91.17   98.11
 -12  -2  10   69.37   99.95
  12  -2  10  198.46   98.15
  12  -2 -10  197.63   97.65
  12   2 -10  206.91   96.73
 -12   2 -10   -9.74   96.89
  12  -2  11    7.35   18.98
  12   2 -11    9.52   31.13
 -12  -2  11   10.01   35.29
  12  -2  11  -22.06   28.18
  12   2 -11  -42.52   24.30
 -12  -2  11  -25.05   49.85
 -12   2 -11    9.76   24.27
  12   2 -12   28.86   28.31
 -12  -2  12  -10.12   34.49
  12  -2  12   -7.36   24.64
  12   2 -12   -7.16   20.30
 -12  -2  13  -10.23   53.53
  12   2 -13   57.95   45.25
   2  12 -14   84.14   32.03
  -2  12 -14    8.24   30.27
 -12  -2  14   29.07   33.02
  12   2 -14  -29.33   22.28
  -2 -12  14  -14.35   34.43
   2 -12  15  -28.73   32.50
   2  12 -15    8.42   33.65
  -2  12 -15  -16.51   31.23
   2 -12  16   73.35   35.60
   2  12 -16    8.59   30.41
  -2  12 -16   16.49   31.09
  -2  12 -16  -14.51   41.63
   2  12 -16  -29.58   47.00
   2 -12  17  -44.94   38.05
   2 -12  17  -11.66   28.32
   2  12 -17   -8.57   27.77
  -2  12 -17   -8.42   31.38
   2  12 -17  -15.09   44.14
  12   2 -17   41.59   27.51
  -2  12 -17  -29.64   44.43
  -2 -12  18  157.12  155.65
   2 -12  18  357.06  156.57
   2 -12  18  382.37  163.02
   2  12 -18  -25.62  153.85
  -2  12 -18   16.80  153.72
  -2  12 -18   60.52  158.71
  12   2 -18  -10.54  153.16
 -12  -2  18   20.39  155.73
  12   2 -18  630.03  156.30
  -2 -12  19  -12.29   33.10
   2 -12  19  -12.12   31.24
   2 -12  19  -31.22   44.04
   2  12 -19   -8.71   32.67
  -2  12 -19  -25.71   32.94
  -2  12 -19  -46.34   55.32
 -12  -2  19   31.01   39.21
  -2 -12  20  476.01  144.65
   2 -12  20  355.20  145.31
   2 -12  20  382.20  148.91
   2  12 -20  -17.26  140.01
  -2  12 -20   17.01  140.10
  -2  12 -20   78.81  147.80
  -2 -12  21  -12.64   30.49
   2 -12  21  -12.50   31.22
   2  12 -21   -8.79   29.45
  -2  12 -21   34.68   30.67
   2 -12  21   16.24   48.32
  -2  12 -21  112.54   60.44
  -2 -12  22  115.90   60.09
   2  12 -22   -8.78   55.49
   2 -12  22  165.19   58.65
  -2  12 -22   -8.67   56.73
   2 -12  22  132.49   71.54
  -2  12 -22   16.39   75.01
   2 -12  23   33.74   49.54
   2  12 -23    8.94   31.43
  -2 -12  23  -13.08   32.94
  -2  12 -23   44.02   31.27
  -2  12 -23  -16.70   65.04
   2 -12  23  -12.94   32.10
   2  12 -24   63.42   42.55
  -2 -12  24   13.30   40.55
   2 -12  24   13.18   40.81
  -2  12 -24  -34.00   66.04
   2 -12  24   51.24   60.46
  -2  12 -24   35.85   40.66
  -2  12 -25   45.59   32.77
  -2  12 -25  190.32   93.68
  -2 -12  25  -13.52   35.92
   2 -12  25 -174.31   41.55
   2 -12  25  -34.77   63.33
   2  12 -25  128.88   46.75
   2  12 -26  -28.75   32.61
  -2  12 -26    9.50   32.35
  -2  12 -26  -17.59   71.85
  -2 -12  26   54.91   36.95
   2 -12  26   27.58   37.11
   2 -12  26   70.69   55.67
   2  12 -27  -48.62   37.12
  -2  12 -27  -89.37   74.16
  -2  12 -27   28.95   33.83
   2 -12  27   17.96   59.22
   2 -12  27   14.01   39.06
  -2  12 -28  -10.18   34.41
   2 -12  28  -18.23   58.04
   2 -12  28   14.53   29.91
  12   3   0  -16.00   23.51
 -12   3   0   -8.60   34.68
  12  -3   0  -17.38   30.14
 -12   3   0  -80.45   53.29
  12  -3   0   13.04   21.78
 -12  -3   0  -10.47   32.79
  12   3  -1   48.05  142.19
  12   3   1   -8.00  142.57
 -12   3   1  -17.34  144.18
  12  -3  -1  362.91  145.69
  12  -3   1  266.75  144.62
 -12   3  -1  -17.03  144.38
 -12   3   1  -11.61  147.70
  12   3   1   -8.04  143.34
  12  -3  -1  447.99  144.37
  12  -3   1  467.82  144.45
 -12  -3   1  345.82  146.86
 -12  -3  -1  306.19  145.66
 -12   3  -1 -102.42  149.37
  12   3  -2  -16.05   20.62
  12   3   2  -16.01   18.87
 -12   3   2  -46.97   47.03
  12  -3  -2   -8.95   31.97
  12  -3   2   33.02   25.74
 -12   3  -2  -45.08   38.06
  12   3  -2   -8.01   27.62
  12   3   2  -16.28   26.22
  12  -3  -2    6.63   20.95
 -12  -3   2  -10.50   36.25
  12  -3   2   38.10   22.76
 -12  -3  -2   31.71   24.98
  12   3  -3   47.19   27.93
  12   3   3    8.02   25.65
 -12   3  -3  -44.73   48.11
 -12   3   3  -23.76   47.51
  12  -3  -3   18.11   33.40
  12  -3   3   32.74   33.67
 -12   3  -3   53.66   38.79
  12   3  -3    8.03   33.49
  12   3   3    8.15   33.38
 -12  -3   3   41.50   37.05
  12  -3  -3    6.71   27.81
  12  -3   3   38.43   26.79
 -12  -3  -3   42.41   31.03
  12   3  -4   -7.89   19.40
 -12  -3  -4   42.53   24.10
 -12   3   4  -12.02   39.16
 -12   3  -4  -55.47   42.43
  12  -3  -4   27.61   22.16
  12  -3   4   32.49   25.20
 -12   3  -4   19.18   34.54
  12   3  -4  -16.16   26.14
  12   3   4  -24.48   25.86
 -12  -3   4   10.41   32.57
  12  -3  -4  -34.61   17.37
  12  -3   4   50.86   18.92
 -12  -3  -5   53.43  158.10
  12  -3  -5  232.96  158.67
  12  -3   5  164.25  158.80
  12   3  -5   48.81  157.82
 -12   3  -5   76.23  159.83
 -12   3  -5  231.36  162.72
  12   3   5   16.37  157.72
 -12  -3   5  269.68  160.03
  12  -3  -5  245.34  157.69
  12  -3   5  244.57  157.73
  12   3  -5  182.35  157.76
 -12   3  -6   10.87   45.36
  12  -3  -6   -9.48   23.79
  12  -3   6   15.55   26.18
  12   3  -6    8.18   27.58
 -12   3  -6   -9.33   34.32
  12   3   6   32.89   27.71
 -12  -3   6   41.70   33.13
  12  -3  -6   21.31   20.23
  12  -3   6   26.28   21.17
  12   3  -6  -23.09   23.43
 -12  -3   7   23.82  325.47
 -12   3  -7  724.70  324.86
  12  -3   7  634.10  322.87
  12   3  -7   25.23  321.30
 -12  -3   7  618.80  324.61
 -12   3  -7    9.42  321.88
  12  -3  -7  385.09  321.81
  12   3  -7  418.12  321.85
  12  -3   7  421.82  321.69
  12  -3  -8   -9.73   20.57
  12  -3   8    7.48   21.80
  12   3  -8  -42.35   26.73
 -12   3  -8  -53.83   47.99
 -12  -3   8   31.21   34.18
 -12   3  -8    9.38   31.43
  12  -3  -8   30.03   21.61
 -12  -3   8   12.13   49.57
  12   3  -8   23.39   19.69
  12  -3   8  -14.26   19.46
  12  -3   9   29.07   44.94
 -12   3  -9  -21.20   58.44
 -12  -3   9  -12.23   65.54
  12   3  -9   26.36   49.89
  12  -3   9   74.51   48.98
 -12  -3   9   73.37   56.49
  12  -3  -9   53.29   46.87
 -12   3  -9   -9.43   50.70
  12   3  -9   81.67   46.99
  12  -3  10   -7.25   15.89
  12   3 -10   26.58   27.46
  12  -3  10    7.43   24.08
 -12  -3  10   21.14   34.80
 -12  -3  10   37.24   55.07
 -12   3 -10  -21.14   46.42
 -12   3 -10    9.54   25.72
  12   3 -10   -7.49   20.56
  12  -3  11   -7.24   16.59
 -12  -3  11  -12.53   50.28
  12   3 -11  -18.44   30.62
  12  -3  11   14.51   25.58
 -12  -3  11   21.64   37.89
  12   3 -11   45.33   22.85
  12   3 -12  -37.24   34.03
 -12  -3  12   43.71   40.98
  12   3 -12   36.42   26.08
 -12  -3  13  110.37   97.56
  12   3 -13   88.31   91.09
   3  12 -14   50.83   38.54
  -3  12 -14   65.69   38.62
 -12  -3  14   11.15   45.43
  12   3 -14  -14.88   29.41
   3 -12  15   57.28   28.11
  -3 -12  15   14.73   29.67
   3  12 -15  -16.95   27.46
  -3  12 -15  -16.46   28.73
   3 -12  16   43.89   30.59
  -3 -12  16  -15.02   33.57
   3  12 -16   25.93   28.65
  -3  12 -16  -16.44   30.28
  -3  12 -16   28.93   38.59
   3  12 -16  -14.88   39.10
   3 -12  17   59.77   40.46
  -3 -12  17   15.32   34.94
   3 -12  17  -23.27   27.70
   3  12 -17  -17.24   27.79
  -3  12 -17  -16.79   28.48
  -3  12 -17  -59.10   44.91
   3  12 -17   45.54   41.07
  12   3 -17  -10.30   30.91
   3 -12  18   45.78   38.02
  -3 -12  18  -12.15   29.88
  -3 -12  18   46.85   34.71
   3 -12  18  -11.84   30.63
   3  12 -18    8.59   27.71
  -3  12 -18  -16.76   28.38
  -3  12 -18   90.55   47.24
   3  12 -18  -15.48   46.31
  -3 -12  19   86.46   56.12
   3 -12  19  186.95   63.60
   3 -12  19  157.20   58.88
  -3 -12  19   79.59   63.50
   3  12 -19   -8.76   51.20
  -3  12 -19  -17.11   52.22
  -3  12 -19   15.41   64.79
   3  12 -19   15.78   64.85
  -3 -12  20  -12.58   30.26
   3 -12  20  -48.92   30.99
   3 -12  20   31.81   48.05
  -3 -12  20   16.22   43.61
   3  12 -20   34.70   28.96
  -3  12 -20    8.49   28.35
  -3  12 -20   78.64   65.53
   3  12 -20   16.08   58.28
   3  12 -21   32.77   67.53
  -3 -12  21   12.70   53.18
   3 -12  21   74.87   54.68
   3 -12  21  194.60   71.91
   3  12 -21   44.17   53.18
  -3 -12  21   66.07   63.92
  -3  12 -21   33.97   52.04
  -3  12 -21  -64.17   69.49
  -3 -12  22  -38.80   35.81
   3  12 -22  -35.30   33.00
   3 -12  22   12.69   34.23
  -3  12 -22   -8.66   32.72
   3 -12  22  -16.54   49.03
  -3 -12  22  100.91   50.99
  -3  12 -22  -16.36   57.59
   3  12 -22  -50.04   63.47
  -3  12 -23   61.55   35.82
   3  12 -23   -8.98   33.54
  -3 -12  23   13.13   33.40
   3 -12  23   25.86   31.91
   3 -12  23  101.13   52.20
  -3 -12  23  -51.35   54.10
  -3  12 -23 -100.06   62.01
   3  12 -23   16.97   60.59
   3  12 -24   -9.10   30.19
  -3  12 -24   -8.95   30.27
  -3 -12  24   26.70   34.73
  -3  12 -24   84.92   67.14
   3  12 -24  -17.26   59.89
   3 -12  24   34.33   47.34
  -3 -12  24  -17.41   54.26
   3 -12  24  -26.34   30.30
   3  12 -25  -46.22   40.55
  -3  12 -25   -9.33   38.08
  -3  12 -25  -69.13   83.02
   3  12 -25  -17.54   91.97
  -3 -12  25  108.52   47.07
   3 -12  25  191.13   73.29
  -3 -12  25   35.18   75.90
   3 -12  25   53.60   36.53
   3  12 -26   28.85   34.21
  -3  12 -26   17.58   66.24
   3  12 -26   17.82   70.06
  -3  12 -26   -9.49   28.57
  -3 -12  26  -13.78   33.16
  -3 -12  26  -17.86   58.19
   3 -12  26  -70.68   55.81
   3 -12  26  -13.78   29.33
  -3  12 -27   35.73   74.69
   3  12 -27   54.24   76.03
   3  12 -27  -58.56   36.99
  -3  12 -27  -20.04   37.33
  -3 -12  27   54.39   54.46
   3 -12  27  -35.91   59.37
  -3 -12  27   28.29   35.52
   3 -12  27  -14.01   30.82
  -3  12 -28   10.17   34.00
   3 -12  28  -36.46   57.60
   3 -12  28  -14.53   32.34
  12   4   0   -8.17  204.87
 -12   4   0  -23.26  208.88
  12  -4   0  725.98  209.09
  12   4   0  -16.60  205.91
  12  -4   0  951.38  208.44
 -12  -4   0  722.48  209.45
 -12  -4  -1   21.60   24.25
  12   4  -1    8.16   17.21
  12   4   1   16.35   18.41
 -12   4   1  -94.11   47.25
 -12   4  -1  -91.99   46.52
  12  -4  -1  -17.99   24.16
 -12   4  -1  -42.92   32.65
  12  -4   1   -8.76   24.60
  12   4  -1  -16.40   28.19
  12  -4  -1   -6.64   20.15
  12  -4   1   -6.49   18.61
 -12  -4   1  -10.76   28.36
 -12  -4  -2  314.31  129.58
  12   4  -2   -8.17  126.11
  12  -4  -2  173.01  127.93
 -12   4  -2   34.14  133.04
  12  -4   2  233.89  129.33
 -12   4  -2  -17.02  128.53
  12   4  -2   -8.20  128.07
  12   4   2   24.94  127.35
  12  -4  -2  267.14  128.15
  12  -4   2  270.79  127.53
 -12  -4   2  409.12  130.93
  12   4  -3   -8.18   16.56
 -12  -4  -3   43.49   20.82
  12  -4  -3    9.26   22.46
  12  -4   3   17.02   27.98
 -12   4  -3  -33.71   31.76
 -12   4  -3  -78.85   47.23
  12   4  -3   -8.16   26.90
  12   4   3    8.34   22.11
  12  -4  -3   27.75   17.85
  12  -4   3   12.67   16.98
 -12  -4   3  -10.69   29.23
  12   4  -4    8.20   17.65
  12  -4  -4  -18.75   21.86
  12  -4   4  -25.29   24.16
 -12   4  -4   35.69   34.98
  12   4  -4    8.18   24.93
  12   4   4   -8.41   27.84
  12  -4  -4    7.23   18.87
 -12  -4   4   10.71   32.11
  12  -4   4   -6.28   18.16
  12   4  -5    8.22   41.11
  12  -4  -5   38.01   42.32
  12  -4   5   41.78   46.93
 -12   4  -5    8.84   47.69
  12   4  -5    8.22   43.64
  12  -4  -5   65.95   41.73
 -12  -4   5   85.94   47.53
  12  -4   5   63.29   41.40
 -12   4  -5  -22.12   57.41
  12   4  -6   33.01   88.42
 -12   4  -6  -32.91   98.67
  12  -4  -6   96.35   89.01
  12  -4   6  120.34   90.04
 -12   4  -6    9.49   92.98
  12   4  -6    8.25   89.40
  12  -4  -6  148.59   89.26
 -12  -4   6  244.51   95.47
  12  -4   6  125.55   88.16
  12   4  -7   -8.10   17.86
 -12   4  -7  -10.89   43.04
  12  -4   7    7.96   25.35
  12   4  -7   16.63   25.91
 -12   4  -7    9.28   32.46
 -12  -4   7   21.35   32.17
  12  -4  -7   -7.76   21.70
  12  -4   7   -6.52   18.72
  12   4  -8   16.29   39.16
 -12   4  -8   54.06   54.47
  12  -4   8   39.56   41.98
  12   4  -8   25.08   42.66
 -12   4  -8    9.22   45.34
 -12  -4   8   96.61   48.55
  12  -4   8   48.02   38.84
 -12   4  -9  -64.48   43.26
  12  -4   9   31.46   28.54
  12   4  -9    8.60   29.08
 -12  -4   9  -12.17   50.80
 -12   4  -9    9.30   30.82
 -12  -4   9   64.28   35.41
  12  -4   9   14.12   19.66
  12   4  -9  -24.60   21.40
 -12  -4  10   12.39   68.23
  12  -4  10   68.26   49.70
  12   4 -10  -17.32   52.17
 -12  -4  10   97.08   56.57
  12   4 -10   63.77   48.94
 -12  -4  11   24.98   61.13
  12   4 -11   -8.98   28.60
 -12  -4  11   21.73   36.24
  12   4 -11  -16.07   22.22
  12   4 -12   54.35  193.59
 -12  -4  12  431.79  196.12
  12   4 -12  210.60  192.66
 -12  -4  13  -10.89   36.64
  12   4 -13   23.17   26.59
  -4  12 -14  -16.07   87.26
 -12  -4  14  252.82   94.20
  12   4 -14  124.74   86.24
  -4 -12  15  -14.83   29.03
   4  12 -15    8.54   27.03
  -4  12 -15  -16.41   28.35
   4 -12  15   14.29   25.57
   4 -12  16   14.60   28.65
  -4 -12  16   30.24   32.70
   4  12 -16  -26.11   29.25
  -4  12 -16   32.80   28.92
   4  12 -16   14.99   43.11
   4 -12  17   59.65   36.29
  -4 -12  17  -15.41   32.49
   4 -12  17  -34.83   29.74
   4  12 -17  -17.36   27.67
  -4  12 -17   16.76   27.80
  -4  12 -17  -29.48   39.52
   4  12 -17   30.57   40.98
 -12  -4  17   13.33   54.81
   4 -12  18  -15.24   37.14
  -4 -12  18   62.85   41.96
  -4 -12  18   12.22   35.32
   4 -12  18   11.83   33.59
   4  12 -18   17.29   32.05
  -4  12 -18   58.52   37.53
   4  12 -18  -31.16   47.96
  -4  12 -18  -30.12   46.06
   4 -12  19  -15.56   37.82
  -4 -12  19   16.01   38.93
  -4 -12  19  -12.42   31.78
   4 -12  19   12.08   32.36
   4  12 -19   -8.81   31.09
  -4  12 -19    8.30   26.42
  -4  12 -19  -30.76   51.45
   4  12 -19   31.76   49.48
   4 -12  20  -15.89   44.46
  -4 -12  20   12.66   32.98
  -4 -12  20   16.31   44.40
   4 -12  20  -24.44   33.29
   4  12 -20  -17.45   31.39
  -4  12 -20   16.95   30.25
   4  12 -20   16.18   57.14
  -4  12 -20  -31.41   53.56
  -4 -12  21   63.84   32.46
   4 -12  21  -16.20   43.66
  -4 -12  21  -33.22   49.68
   4  12 -21  -26.65   30.35
   4 -12  21  -12.47   32.73
  -4  12 -21  -16.96   28.48
  -4  12 -21   96.16   55.30
   4  12 -21  -65.90   56.83
  -4 -12  22   12.96   31.10
   4 -12  22   16.53   49.09
  -4 -12  22   16.91   45.12
   4  12 -22   35.48   32.27
  -4  12 -22  -25.95   30.74
   4 -12  22   25.37   35.60
  -4  12 -22  -32.69   59.51
   4  12 -22  -16.77   55.96
   4  12 -23  -18.05   30.68
  -4 -12  23  -13.19   31.93
   4 -12  23  -50.55   50.22
  -4  12 -23  -17.57   32.03
   4 -12  23   12.93   32.98
  -4  12 -23  -83.32   57.35
   4  12 -23   17.06   61.75
  -4 -12  23  120.37   50.61
  -4  12 -24   -8.95   36.11
   4 -12  24   17.17   51.14
  -4 -12  24   17.48   60.67
  -4  12 -24  -50.93   71.93
   4 -12  24   39.50   31.48
   4  12 -24   -9.14   33.91
  -4 -12  24   40.23   32.64
  -4  12 -25    9.33   28.77
   4  12 -25    9.28   29.86
  -4  12 -25   34.56   63.01
   4  12 -25   88.13   72.44
   4 -12  25  -34.94   60.60
  -4 -12  25   52.99   56.23
  -4 -12  25  -40.86   34.84
   4 -12  25  -27.12   27.87
   4  12 -26   19.32   42.31
  -4  12 -26 -105.45   72.52
   4  12 -26   17.90   74.55
  -4  12 -26  -37.97   42.37
   4 -12  26   35.34   69.13
  -4 -12  26  125.54   71.43
  -4 -12  26   41.48   46.00
   4 -12  26  151.72   47.65
  -4  12 -27  -71.45   72.14
   4  12 -27  -19.60   35.22
  -4  12 -27  -10.02   33.84
   4 -12  27   17.96   56.13
  -4 -12  27  -28.39   35.13
   4 -12  27   28.03   33.50
  -4  12 -28  -36.28   73.33
  -4  12 -28  -10.17   36.64
   4 -12  28   18.24   58.28
   4 -12  28  -14.54   36.70
 -12  -5   0   11.05   25.16
  12  -5   0   18.12   26.42
  12   5   0    8.48   25.98
  12  -5   0   13.58   23.08
 -12  -5   1  528.61  272.80
 -12  -5  -1  409.86  272.17
  12  -5  -1  302.83  271.77
  12  -5   1  276.38  271.50
  12   5  -1  -16.97  271.05
  12   5   1    8.50  270.75
  12  -5   1  529.89  272.11
  12  -5  -1  529.60  271.83
  12   5  -2   -8.34   40.90
  12  -5  -2   55.78   43.48
  12  -5   2   35.24   44.47
  12   5  -2    8.48   46.38
  12  -5  -2   14.34   42.43
  12  -5   2  130.02   44.09
 -12  -5   2   55.01   45.73
  12   5  -3    8.34   45.12
 -12   5  -3  -34.21   57.67
  12  -5   3   34.84   50.04
 -12   5  -3   -8.51   52.13
  12  -5  -3   84.81   48.57
  12   5  -3  -16.76   50.86
  12  -5  -3   50.87   46.25
  12  -5   3  148.48   48.14
 -12  -5   3   33.00   49.54
  12   5  -4    8.35   23.38
 -12   5  -4  -11.28   39.78
  12  -5   4    8.58   29.54
 -12   5  -4    8.44   34.84
  12   5  -4    8.39   29.84
  12  -5  -4   45.55   28.96
  12  -5   4   25.54   24.02
 -12  -5   4   10.99   31.73
  12   5  -5   25.08   21.54
 -12   5  -5   55.81   44.11
  12  -5   5   -8.49   26.18
 -12   5  -5   16.70   31.75
  12   5  -5   -8.35   28.31
  12  -5   5   12.54   21.77
 -12  -5   5   55.05   30.84
  12   5  -6  -16.76   31.64
 -12   5  -6   44.20   47.98
  12  -5   6   42.02   34.38
 -12   5  -6   -8.84   38.61
  12   5  -6   -8.37   35.37
  12  -5   6   62.10   31.49
 -12  -5   6  109.45   39.84
  12   5  -7   42.05   97.38
  12  -5   7   99.92   99.80
 -12   5  -7   10.94  105.38
 -12   5  -7    9.46  102.13
  12   5  -7    8.41   98.90
 -12  -5   7  197.65  103.49
  12  -5   7  269.05   99.09
  12   5  -8   42.22   37.58
  12  -5   8   32.75   39.44
  12   5  -8    8.45   41.04
 -12   5  -8   -9.38   45.56
 -12   5  -8   97.63   52.44
 -12  -5   8  110.23   45.43
  12  -5   8   19.48   35.80
  12   5  -9   16.97   21.51
  12   5  -9   -8.51   27.77
 -12  -5   9  -10.92   34.84
  12   5 -10  -16.68   27.37
  12   5 -10  -17.11   34.52
 -12  -5  10  -21.95   39.19
 -12  -5  10  -12.36   58.81
  12   5 -11   58.74   67.38
  12   5 -11    8.80   69.33
 -12  -5  11  209.82   74.67
  12   5 -12   16.90   27.88
 -12  -5  12   22.24   42.83
 -12  -5  13  322.25  249.74
  12   5 -13  238.43  247.28
 -12  -5  14   22.40   38.98
  12   5 -14    8.29   24.08
   5  12 -15    8.61   30.00
  -5  12 -15   16.38   28.55
  -5 -12  15   14.94   26.74
   5 -12  16  -14.57   28.25
  -5 -12  16   15.23   29.39
   5  12 -16   -8.58   29.02
  -5  12 -16   -8.19   29.54
   5  12 -16  -45.32   42.03
   5 -12  17  -14.89   33.97
  -5 -12  17  -46.57   43.14
  -5 -12  17  -12.07   30.88
   5 -12  17  -11.60   31.55
   5  12 -17    8.74   27.21
  -5  12 -17    8.17   27.88
  -5  12 -17  -44.15   42.04
   5  12 -17   15.40   45.63
   5 -12  18  -15.22   34.32
  -5 -12  18  -15.82   37.78
  -5 -12  18   12.31   30.27
   5 -12  18   11.81   29.13
   5  12 -18   -8.71   28.38
  -5  12 -18   16.70   31.08
   5  12 -18   62.77   51.50
  -5  12 -18   30.07   44.30
   5 -12  19   46.63   45.03
  -5 -12  19   32.23   43.98
  -5 -12  19  -12.50   37.85
   5 -12  19   23.92   34.49
   5  12 -19   26.60   33.78
  -5  12 -19  -16.58   35.48
  -5  12 -19   46.09   56.43
   5  12 -19  159.87   59.39
   5 -12  20  -31.75   41.78
  -5 -12  20   16.41   46.95
  -5 -12  20   25.23   34.92
   5 -12  20  -24.42   33.84
   5  12 -20  -43.91   33.43
  -5  12 -20   16.93   28.01
  -5  12 -20   15.69   48.27
   5  12 -20   16.28   52.25
   5 -12  21   32.42   46.70
  -5 -12  21  -33.42   42.95
  -5 -12  21   89.90   34.16
   5  12 -21  -26.82   29.35
   5 -12  21  -12.43   31.05
  -5  12 -21   16.96   28.14
   5  12 -21  -99.49   61.56
  -5  12 -21   16.01   51.15
   5 -12  22   49.58   44.28
  -5 -12  22   17.00   40.58
  -5 -12  22  -13.04   34.41
   5  12 -22   -8.92   29.56
  -5  12 -22    8.62   32.41
   5 -12  22  -12.68   30.28
  -5  12 -22  -16.34   53.61
   5  12 -22   16.87   56.44
   5 -12  23   50.56   64.90
  -5 -12  23  -17.29   64.53
   5  12 -23   18.15   47.00
  -5 -12  23  119.33   54.07
  -5  12 -23   35.13   47.91
  -5  12 -23  -16.66   67.09
   5  12 -23   17.16   76.57
   5 -12  23   64.65   51.75
   5  12 -24  -64.34   49.43
  -5 -12  24  105.44   80.72
  -5  12 -24   27.51   48.09
  -5 -12  24   53.91   48.29
  -5  12 -24   50.92   87.60
   5  12 -24  156.96  100.15
   5 -12  24   39.52   51.06
   5  12 -25   56.00   45.50
   5 -12  25   34.96   63.02
  -5 -12  25  160.60   66.06
  -5  12 -25   17.28   73.17
   5  12 -25   17.72   74.22
  -5  12 -25   37.34   43.01
  -5 -12  25   41.05   47.21
   5 -12  25  -40.71   44.45
   5  12 -26  -48.53   32.99
  -5  12 -26   17.58   66.73
   5  12 -26  -53.95   74.92
   5 -12  26   35.37   50.88
  -5 -12  26   36.04   51.17
  -5  12 -26  -29.60   30.64
  -5 -12  26   28.10   32.50
   5 -12  26   55.21   36.08
  -5  12 -27  -17.87   73.31
   5  12 -27   59.06   43.43
   5 -12  27  -17.98   62.12
  -5  12 -27  -10.03   45.51
  -5 -12  27  128.23   47.47
   5 -12  27  -14.34   47.19
  -5  12 -28   18.15   66.58
  -5  12 -28  -40.73   35.82
   5 -12  28  -18.26   63.18
   5 -12  28   14.56   34.26
  12  -6   0  320.47  302.07
 -12  -6   1   45.20   58.02
  12  -6   1   45.57   58.31
  12  -6  -1   36.10   58.04
  12  -6   1   88.79   58.18
 -12  -6   2   67.66   32.59
  12  -6   2   17.99   26.61
  12   6  -2    8.67   33.16
  12  -6  -2   -7.54   29.15
  12  -6   2   47.19   29.96
 -12  -6   3   22.53   34.90
  12  -6   3   17.77   32.01
  12   6  -3    8.67   36.78
  12  -6   3   39.18   30.87
 -12  -6   4   22.48   22.45
  12  -6   4    8.77   21.13
  12   6  -4  -34.68   29.41
  12  -6   4   -6.45   18.91
  12   6  -5   25.59   20.58
  12  -6   5   -8.67   21.56
 -12   6  -5  -33.78   34.21
  12   6  -5   -8.57   31.13
  12  -6   5   32.00   21.45
 -12  -6   5   56.21   27.30
  12   6  -6   17.08   56.08
  12  -6   6   25.61   58.09
 -12   6  -6  -25.10   62.22
  12   6  -6   -8.58   59.85
  12  -6   6  158.14   57.60
 -12  -6   6  101.30   59.43
  12   6  -7   -8.56   18.15
  12  -6   7   16.88   24.68
 -12   6  -7   26.53   33.46
  12   6  -7    8.54   29.20
  12  -6   7   12.42   18.02
 -12  -6   7   45.04   30.70
  12   6  -8   -8.58   47.53
 -12  -6   8  203.24   55.10
  12   6  -9    8.61   19.96
 -12  -6   9   22.66   31.79
  12   6 -10   25.95   42.56
 -12  -6  10   67.68   46.69
  12   6 -11   26.07   40.75
 -12  -6  11   79.35   49.99
  12   6 -12   52.43   64.93
 -12  -6  12   91.16   69.54
 -12  -6  13   34.39   46.96
   6  12 -15  -17.36   27.68
  -6  12 -15   23.99   25.82
  -6 -12  16   46.06   32.00
   6 -12  16  -45.34   32.55
   6  12 -16   34.61   31.76
  -6  12 -16  -16.35   28.86
   6 -12  16  -14.56   26.46
   6 -12  17  -14.88   39.48
  -6 -12  17  -15.64   39.48
  -6 -12  17   60.83   40.10
   6 -12  17   34.66   39.90
   6  12 -17   44.07   38.24
  -6  12 -17   -8.16   36.76
   6  12 -17   93.15   48.56
   6 -12  18   45.64   37.99
  -6 -12  18   15.94   36.85
  -6 -12  18   61.81   38.46
   6 -12  18   23.63   28.83
   6  12 -18  -26.32   32.16
  -6  12 -18    8.11   30.72
  -6  12 -18   15.02   46.61
   6  12 -18  -15.81   49.47
   6 -12  19  -15.54   33.50
  -6 -12  19   16.23   39.41
  -6 -12  19   12.59   29.23
   6 -12  19   11.96   32.83
   6  12 -19  -26.06   28.84
  -6  12 -19   -8.29   28.88
  -6  12 -19  -15.35   47.86
   6  12 -19  -64.45   51.25
   6 -12  20   15.88   51.54
  -6 -12  20  148.76   49.70
  -6 -12  20   50.80   43.57
   6  12 -20    8.84   41.41
   6 -12  20   24.43   40.27
  -6  12 -20   -8.31   38.32
  -6  12 -20  -15.69   54.53
   6  12 -20  131.21   61.23
   6 -12  21   16.21   44.96
  -6 -12  21  -16.82   44.67
  -6 -12  21   25.85   30.69
   6  12 -21  -35.33   31.30
  -6  12 -21   25.43   30.82
   6 -12  21  -12.44   31.69
  -6  12 -21  -16.02   50.15
   6 -12  22  -33.08   46.42
  -6 -12  22  -17.11   50.50
  -6 -12  22  -39.35   33.28
   6  12 -22   -8.98   29.77
  -6  12 -22   16.34   50.54
   6  12 -22   16.99   54.79
  -6  12 -22   -8.62   30.70
   6 -12  22   38.07   28.28
  -6 -12  23   26.67   30.05
   6 -12  23  -33.73   61.52
  -6 -12  23  -34.78   55.95
   6  12 -23   27.31   29.61
  -6  12 -23    8.79   32.34
  -6  12 -23  -99.96   77.70
   6 -12  23   12.94   36.20
   6 -12  24   17.19   49.31
  -6 -12  24   17.67   51.90
   6  12 -24   -9.24   33.68
  -6  12 -24  -50.95   61.45
   6  12 -24   17.55   71.16
  -6  12 -24   18.35   33.45
  -6 -12  24   54.19   36.93
   6 -12  24   13.34   33.18
   6 -12  25  -35.01   58.40
  -6 -12  25  -17.95   49.91
   6  12 -25   48.10   33.86
  -6  12 -25 -103.77   68.25
   6  12 -25  -35.63   65.82
  -6  12 -25   18.68   34.89
  -6 -12  25  -27.51   33.91
   6 -12  25   81.52   37.90
   6 -12  26  -17.81   51.93
  -6 -12  26   91.05   58.70
  -6  12 -26  -17.60   66.83
   6  12 -26  -36.15   69.61
   6  12 -26  -39.04   33.34
  -6  12 -26   -9.88   33.70
  -6 -12  26   14.12   34.35
   6 -12  26  -13.83   30.55
  -6  12 -27   35.79   65.27
   6 -12  27   18.01   52.98
  -6  12 -27  -10.04   35.60
   6 -12  27   43.08   35.95
  -6  12 -28 -109.07   71.59
   6 -12  28  -18.30   52.80
  -6  12 -28   10.58   38.69
   6 -12  28   58.35   35.63
  12  -7   0  -15.01   24.30
  12  -7   1  114.93  110.59
  12  -7   2   42.50   44.27
  12  -7   3   27.16   31.31
 -12  -7   4  -11.53   26.24
  12  -7   4   26.80   24.68
 -12  -7   5  207.24  215.05
  12  -7   5  233.46  214.26
 -12  -7   6   11.51   24.13
 -12   7  -6  -16.98   34.79
  12  -7   6   25.61   22.21
 -12  -7   7  311.07  293.84
 -12  -7   8  -11.52   28.09
 -12  -7   9  -11.54   31.00
 -12  -7  10  -34.73   43.05
   7  12 -15   35.03   46.59
  -7  12 -15   39.94   45.79
   7 -12  16   11.33   38.98
   7  12 -16   17.46   37.82
  -7  12 -16   47.87   39.75
  -7 -12  16   30.96   39.84
  -7 -12  17  -15.77   33.22
  -7 -12  17   12.27   31.39
   7  12 -17   -8.69   29.88
  -7  12 -17    8.16   29.04
  -7 -12  18   16.06   36.97
  -7  12 -18   15.01   44.76
  -7 -12  18  -12.46   29.83
   7  12 -18   -8.85   28.25
  -7  12 -18    8.11   27.46
   7  12 -18  -31.89   45.22
  -7 -12  19   32.71   35.30
   7  12 -19  -35.03   30.31
  -7  12 -19   -8.13   30.65
  -7  12 -19  -46.04   46.89
   7  12 -19  -16.24   47.83
  -7 -12  20   33.30   43.75
  -7 -12  20  -38.38   31.20
   7  12 -20    8.91   28.50
  -7  12 -20  -62.73   49.81
   7  12 -20   33.06   53.01
  -7 -12  21   84.70   50.75
  -7 -12  21   26.03   30.06
   7  12 -21  -26.69   32.99
   7  12 -21   84.09   53.28
  -7 -12  22   17.23   51.96
   7  12 -22   36.18   31.92
  -7 -12  22  -13.20   35.30
   7  12 -22  -68.43   66.28
  -7 -12  23  -52.51   52.18
   7  12 -23   27.49   31.62
  -7 -12  23   13.42   31.55
  -7 -12  24   17.78   50.52
   7  12 -24  -18.61   32.06
   7  12 -24   35.32   68.02
  -7 -12  24  -27.26   35.33
  -7 -12  25   90.24   66.64
   7  12 -25   53.79   79.39
   7  12 -25   -9.68   50.62
  -7 -12  25   83.01   50.87
   7  12 -26  -18.19   66.97
   7  12 -26   19.63   32.13
  -7 -12  26  -14.20   35.94
  12  -8   3   28.62   34.12
  12  -8   4  112.85  108.35
  12  -8   5  -20.28   27.34
   8  12 -15  -17.31   36.37
  -8 -12  16   12.15   41.71
   8  12 -16   44.05   42.88
  -8 -12  17   15.91   31.03
  -8 -12  17  -12.34   32.73
   8  12 -17  -17.53   30.84
   8  12 -18  -16.09   41.66
  -8 -12  18  -16.20   35.47
  -8 -12  18   75.39   38.08
   8  12 -18   -8.93   32.01
  -8 -12  19  -16.49   37.91
  -8 -12  19  -38.02   29.72
   8  12 -19   26.50   31.21
   8  12 -19   32.76   48.21
   8  12 -20  -50.00  100.21
  -8 -12  20  151.06   99.51
  -8 -12  20  270.77   97.70
   8  12 -20   17.98   90.40
  -8 -12  21  -34.14   49.16
  -8 -12  21  -13.08   35.91
   8  12 -21    8.97   34.91
  -8 -12  22   17.36   44.60
   8  12 -22   -9.11   34.15
  -8 -12  22   66.51   37.81
   8  12 -22  -17.24   72.74
  -8 -12  23  -17.63   47.38
   8  12 -23   -9.23   30.51
  -8 -12  23   67.55   33.05
  -8 -12  24   17.90   44.66
   8  12 -24    9.37   31.27
   8  12 -24  -88.94   64.08
  -8 -12  24  -13.72   32.64
  -8 -12  25  -18.17   55.12
   8  12 -25   18.05   64.61
   8  12 -25   19.49   37.59
  -8 -12  25   42.26   39.01
   8  12 -26    9.88   34.81
  -8 -12  26   28.58   34.82
  12   9  -8    9.32   29.40
  12   9  -9  -27.63   39.81
  12   9 -10    9.22   28.46
  12   9 -11   -9.17   30.73
   9  12 -15   17.48   33.28
  -9 -12  16   24.54   30.58
   9  12 -16   -8.70   29.60
  -9 -12  17   24.91   35.59
   9  12 -17   17.70   34.77
  -9 -12  18  -16.35   38.13
  -9 -12  18   12.68   36.49
   9  12 -18  -43.81   34.99
  -9 -12  19  -16.64   38.74
  -9 -12  19   38.35   33.15
   9  12 -19  -17.83   31.42
   9  12 -19  -99.21   49.06
  -9 -12  20  -33.85   50.95
  -9 -12  20  -13.00   44.03
   9  12 -20  -44.48   45.16
   9  12 -20  -33.64   65.17
  -9 -12  21   34.42   43.46
  -9 -12  21   26.37   41.30
   9  12 -21   18.09   32.62
   9  12 -21  -51.30   59.45
  -9 -12  22  -17.49   41.84
   9  12 -22  -18.32   30.75
   9  12 -22  -17.38   58.20
  -9 -12  22   26.81   31.51
  -9 -12  23   35.53   48.45
   9  12 -23   17.66   62.44
  -9 -12  23  -13.62   29.61
   9  12 -23    9.30   30.49
  -9 -12  24   18.04   50.72
   9  12 -24   17.92   61.89
   9  12 -24   -9.68   30.04
  -9 -12  24  -13.82   31.61
  -9 -12  25  -18.30   54.16
   9  12 -25  -18.19   71.22
   9  12 -25  -39.27   45.65
  -9 -12  25  -28.37   43.62
 -10 -12  15   12.17   38.02
  10  12 -15   26.51   35.23
 -10 -12  16  -12.36   32.06
  10  12 -16   -8.79   29.59
 -10 -12  17   75.44   41.47
  10  12 -17  -17.88   35.54
 -10 -12  18   12.68   33.48
  10  12 -18   -8.85   28.75
 -10 -12  19   16.79   46.17
 -10 -12  19   12.90   38.38
  10  12 -19   36.00   41.08
 -10 -12  20   17.08   40.14
 -10 -12  20  -26.18   35.32
  10  12 -20  -17.96   34.84
  10  12 -20  -67.91   54.73
 -10 -12  21  -17.36   37.60
  10  12 -21   -9.13   31.22
  10  12 -21   17.26   54.50
 -10 -12  21  -13.30   31.81
 -10 -12  22  -35.27   44.74
  10  12 -22  -52.62   60.58
  10  12 -22   18.48   33.17
 -10 -12  22   54.06   38.39
 -10 -12  23  -17.91   53.04
  10  12 -23   17.81   60.50
  10  12 -23  -37.53   41.29
 -10 -12  23  -27.45   39.50
 -10 -12  24   18.17   49.33
  10  12 -24  -39.03   37.91
 -10 -12  24  -14.09   35.95
  10  12 -24  -18.07   61.00
  10  12 -25  -19.79   40.63
 -10 -12  25  -42.87   43.93
  13   0   0   34.00   27.76
 -13   0   0  -10.47   33.22
  13   0   0   -7.82   23.02
 -13   0   0   12.07   44.10
 -13   0  -1  192.23  134.38
  13   0  -1  222.12  129.81
  13   0   1   74.52  128.75
 -13   0   1   84.19  131.15
 -13   0  -1  -10.59  131.04
  13   0  -1  185.79  127.85
  13   0   1  116.85  128.00
 -13   0   1  181.96  135.24
 -13   0   2   61.71   51.33
  13   0  -2  -26.54   28.09
  13   0   2  -16.50   26.89
 -13   0   2   32.23   39.65
 -13   0  -2   21.10   36.80
  13   0  -2   -7.47   24.35
  13   0   2   32.16   19.40
  13   0   3  288.67  355.99
 -13   0   3   24.85  359.29
  13   0  -3  471.85  357.26
 -13   0   3  291.91  357.47
  13   0   3  541.69  356.99
 -13   0  -3   31.83  357.51
  13   0  -3  625.17  356.66
  13   0   4   16.38   22.20
 -13   0   4  -21.78   44.63
  13   0   4   -8.19   26.57
 -13   0  -4   10.59   32.53
  13   0  -4   14.47   21.96
  13   0   5  155.39  503.78
  13   0   5  826.49  505.42
 -13   0  -5   42.93  507.10
 -13   0   5  456.87  505.36
  13   0  -5 1706.91  506.36
  13   0   6   -8.18   17.68
 -13   0   6  -20.47   37.65
  13   0   6    8.16   26.02
  13   0  -6    7.23   19.99
 -13   0  -6  -10.73   26.59
  13   0   7   24.54  453.22
 -13   0   7  309.88  454.78
  13   0   7  677.99  454.97
 -13   0  -7  249.03  455.95
  13   0   8   -8.19   16.03
  13   0   8   16.36   26.07
 -13   0  -8   10.86   25.48
 -13   0  -9   21.77   77.76
  13   0   9   98.96   74.33
 -13   0 -10   10.93   26.24
 -13   0  10   13.32   50.44
  13   0 -10  -10.18   31.33
  13   0  10   49.62   32.01
 -13   0 -11  -10.98   18.43
 -13   0  11  -13.47   48.02
  13   0 -11   41.36   29.05
  13   0  11   -8.30   29.20
  13   0 -12   10.46   26.17
 -13   0  12  -10.16   37.65
  13   0  12  -41.69   38.97
  13   0 -12   -7.75   23.38
  13   0 -13   21.24   33.55
 -13   0  13  -10.28   43.06
  13   0  13  -16.97   37.55
  13   0 -13   54.64   31.17
  13   0 -14  -10.75   26.35
 -13   0  14  -20.81   36.55
  13   0  14    8.53   26.79
  13   0 -14   15.80   22.91
  13   0 -15   10.89   95.79
  13   0 -15  143.99   96.08
   0  13 -16    8.86   28.99
  13   0 -16   16.20   22.23
   0 -13  16  -15.40   32.10
   0 -13  17  439.05  276.53
   0  13 -17  -26.45  272.68
  13   0 -17  615.35  273.96
   0 -13  18   15.96   30.42
   0 -13  18  -12.42   31.43
   0  13 -18  -26.92   31.03
   0  13 -18   15.80   42.47
  13   0 -18    8.31   21.86
   0 -13  19  505.64  212.83
   0  13 -19  -26.77  208.99
   0  13 -19   32.17  212.42
   0 -13  20  -16.53   38.74
   0 -13  20  -12.83   31.75
   0  13 -20   -9.08   32.59
   0  13 -20   81.85   46.37
   0 -13  21  349.05  198.19
   0  13 -21   53.88  195.98
   0  13 -21  -16.65  199.75
   0 -13  22  -34.20   47.96
   0 -13  22   13.14   32.60
   0  13 -22  -27.38   31.79
   0  13 -22   33.85   55.70
   0 -13  23  243.28  105.74
   0 -13  23  293.17  101.07
   0  13 -23    9.10   93.45
   0  13 -23  -86.03  107.78
   0 -13  24  -17.65   58.67
   0  13 -24    9.24   46.40
   0 -13  24   40.60   48.28
   0 -13  25   17.91   61.39
   0  13 -25   28.05   52.75
   0  13 -25  -35.48   75.22
   0 -13  25  123.65   58.97
   0 -13  26   54.53   51.65
   0  13 -26   -9.48   29.21
   0  13 -26   18.00   66.31
   0 -13  26  -27.87   35.90
   0 -13  27   28.26   44.35
 -13   1   0   12.18   71.70
  13  -1   0   61.05   61.27
  13   1   0   67.01   59.22
 -13   1   0   10.60   65.22
 -13  -1   0   85.61   63.93
  13  -1   0   51.59   57.96
  13   1   0   73.47   58.94
  13   1   1   16.28   23.20
 -13   1  -1   24.22   51.27
  13  -1  -1   35.11   30.60
  13  -1   1   16.85   28.45
 -13   1   1   10.67   41.52
  13   1  -1   42.04   27.61
  13   1   1   33.32   32.07
 -13   1  -1  -10.39   35.70
 -13  -1   1  -21.48   37.16
 -13  -1  -1  -21.52   35.20
 -13   1   1   12.34   48.72
  13  -1  -1   -7.08   19.95
  13  -1   1   14.65   20.75
  13   1  -1    7.91   20.83
  13   1   2   58.16  131.15
 -13   1  -2  285.85  141.52
 -13   1   2   99.44  140.24
  13  -1  -2  273.53  134.41
 -13   1   2    9.94  134.26
  13  -1   2  217.94  133.36
  13   1   2   91.45  131.87
 -13   1  -2  -10.34  133.90
 -13  -1   2  215.70  136.38
 -13  -1  -2   21.48  134.61
 -13  -1   2  -12.25  140.84
  13  -1  -2  271.10  132.27
  13  -1   2  100.29  131.57
  13   1  -2  198.67  132.46
  13   1   3   -8.30   18.37
 -13   1  -3   71.16   49.37
 -13   1   3  -25.06   47.85
  13  -1  -3   -9.19   31.07
 -13   1   3   10.01   34.17
  13  -1   3    8.35   26.90
  13   1   3  -16.57   26.71
 -13  -1   3  -21.36   36.10
 -13   1  -3  -31.35   33.31
 -13  -1  -3   10.88   31.66
  13  -1  -3   -7.07   18.46
  13   1  -3    7.55   19.40
  13  -1   3    7.68   17.74
  13   1   4   16.59  383.27
 -13   1  -4 1193.60  389.13
  13  -1   4 1000.93  385.92
  13  -1  -4  694.89  385.64
 -13  -1   4  187.94  388.29
 -13   1   4  181.76  384.70
  13   1  -4  584.93  385.31
 -13  -1   4  590.87  386.06
  13   1   4  140.80  384.02
 -13   1  -4  374.96  385.33
  13  -1  -4  648.45  384.79
 -13  -1  -4   10.88  385.30
  13   1  -4  539.14  384.47
  13  -1   4  452.03  384.26
  13  -1   5   -7.91   20.36
  13   1   5   -8.30   17.95
 -13   1   5   19.07   32.08
  13  -1   5    8.12   24.53
 -13  -1   5  -65.85   41.35
  13   1   5   16.57   24.72
 -13   1  -5  -20.95   33.82
  13  -1  -5   -7.19   21.88
 -13  -1  -5  -10.97   27.26
  13   1  -5   -7.64   22.64
  13  -1   6  387.76  502.61
  13   1   6   -8.31  501.79
  13  -1   6 1547.43  504.83
 -13  -1  -6  186.76  504.78
 -13   1   6   48.11  502.56
 -13  -1   6 1072.29  505.31
  13   1   6  225.27  502.55
  13  -1  -6 1733.29  504.63
  13   1  -6 1890.28  504.97
 -13   1  -6  711.19  504.00
  13  -1   7   16.14   18.96
  13   1   7   16.64   18.70
 -13  -1   7   33.42   36.62
  13  -1   7  -16.15   26.01
  13   1   7  -25.08   28.20
 -13   1  -7   10.60   32.09
  13   1  -7   14.83   20.98
 -13  -1  -7   11.02   24.41
 -13  -1  -8   88.58  166.77
  13  -1   8   16.13  162.51
  13   1   8   58.68  163.45
 -13   1  -8   10.69  166.99
 -13  -1  -9  -11.11   18.98
  13  -1   9   -8.07   17.92
 -13   1   9   13.28   48.02
  13  -1  -9  -10.19   27.03
  13  -1   9    8.08   26.59
  13   1   9  -25.54   29.74
 -13   1  -9  -21.39   28.68
  13  -1  10    8.08   53.67
  13  -1 -10   72.12   58.76
  13  -1  10  201.77   59.96
  13   1  10   17.10   59.25
 -13  -1  10   13.25   73.66
 -13   1 -10   10.73   59.95
 -13   1 -11   21.54   23.96
  13  -1 -11   41.85   27.52
 -13  -1  11   13.39   47.06
  13   1 -11  -10.24   30.15
  13  -1  11    8.09   29.89
  13   1  11   42.96   30.98
  13  -1 -11   -7.69   23.09
 -13   1 -12  -10.81   25.99
 -13  -1  12  -13.53   62.94
  13  -1 -12  -10.59   25.52
  13   1 -12   10.35   28.39
  13  -1  12  -40.57   35.61
  13   1  12    8.62   33.80
  13  -1 -12   54.47   23.07
 -13  -1  13  -27.36   58.88
  13  -1 -13  -10.72   29.58
  13   1 -13  -31.54   35.33
 -13  -1  13  -20.45   38.50
  13  -1  13  -24.43   41.69
  13  -1 -13   -8.03   27.79
  13   1 -13  -15.58   25.54
  13   1 -14   21.27   30.42
 -13  -1  14  -10.34   40.64
  13  -1 -14    8.13   27.35
  13   1 -14   23.63   25.16
  13   1 -15   32.41   27.24
 -13  -1  15  -20.92   38.59
  13  -1 -15   -8.24   26.45
  13   1 -15   31.88   26.25
   1  13 -16    8.89   79.87
  -1  13 -16   -8.82   80.41
  13   1 -16   32.79   79.58
 -13  -1  16  -21.18   84.11
  13  -1 -16  141.90   80.08
  13   1 -16  193.62   80.55
  -1 -13  16  154.70   82.09
   1 -13  17  -15.63   35.38
  -1 -13  17   15.74   33.30
   1  13 -17  -17.71   33.17
  -1  13 -17    8.79   32.72
  13   1 -17  -11.07   28.55
 -13  -1  17  -10.70   41.19
  13   1 -17  -40.84   26.09
   1 -13  18  859.34  230.54
  -1 -13  18  672.88  227.13
  -1 -13  18  398.92  225.19
   1 -13  18  532.50  225.26
   1  13 -18  -27.04  221.72
  -1  13 -18  -44.72  221.95
   1  13 -18  -15.87  224.17
 -13  -1  18  -21.66  222.76
  -1  13 -18   15.75  224.45
  13   1 -18  777.53  224.45
   1 -13  19   16.20   43.76
  -1 -13  19   16.30   46.45
  -1 -13  19   12.68   35.60
   1 -13  19   12.60   37.74
   1  13 -19   53.75   37.66
  -1  13 -19    8.90   34.69
  -1  13 -19  -48.10   51.94
   1  13 -19   96.89   52.78
 -13  -1  19  -10.97   42.90
  13   1 -19   33.37   30.78
   1 -13  20  692.58  212.06
  -1 -13  20  248.77  208.45
  -1 -13  20  373.21  207.35
   1 -13  20  345.37  206.95
   1  13 -20   27.34  204.60
  -1  13 -20    9.05  204.27
  -1  13 -20  -32.64  209.06
   1  13 -20  -82.14  208.33
 -13  -1  20  -11.11  205.86
  13   1 -20  676.16  206.43
   1 -13  21   33.56   43.20
  -1 -13  21  -16.87   44.10
  -1 -13  21  -13.09   35.21
   1 -13  21   25.79   33.19
   1  13 -21   27.03   34.35
  -1  13 -21  -17.91   33.65
  -1  13 -21   99.61   53.08
   1  13 -21   16.71   58.17
   1 -13  22  341.25  129.98
  -1 -13  22  154.30  125.01
  -1 -13  22  289.92  122.59
   1 -13  22  341.00  122.82
   1  13 -22    9.16  118.82
  -1  13 -22   18.21  118.63
  -1  13 -22   33.78  128.53
   1  13 -22  -16.98  126.77
   1 -13  23   17.35   49.83
  -1 -13  23   34.84   43.17
  -1 -13  23   26.71   30.78
   1 -13  23  -26.60   29.41
   1  13 -23  -18.25   29.16
  -1  13 -23    9.08   28.70
   1  13 -23   51.78   60.44
  -1  13 -23  -17.16   55.25
   1 -13  24  123.32   77.19
  -1 -13  24   35.38   64.46
   1  13 -24   27.80   40.73
  -1 -13  24  108.51   45.38
  -1  13 -24  -46.12   44.38
   1 -13  24   13.51   43.94
  -1  13 -24  -17.44   79.37
   1  13 -24  -35.05   90.03
   1 -13  25   35.78   60.55
  -1 -13  25  107.74   62.37
  -1  13 -25   18.66   45.94
  -1 -13  25   13.77   45.39
  -1  13 -25  -35.42   73.95
   1 -13  25   27.44   48.28
   1  13 -25   71.16   73.31
   1  13 -25   65.61   48.01
   1 -13  26   36.30   50.05
  -1 -13  26   54.63   51.59
   1  13 -26   -9.50   31.52
  -1  13 -26  -18.93   31.69
  -1  13 -26   71.89   72.47
   1  13 -26  -18.04   72.28
  -1 -13  26  -27.92   33.96
   1 -13  26   13.92   31.36
  -1  13 -27  -19.67   36.48
   1 -13  27  -14.28   37.25
  13   2   0   -8.44   24.61
 -13   2   0   73.71   47.94
  13  -2   0   72.01   33.39
 -13   2   0   -9.82   36.31
  13   2   0   16.90   30.37
 -13  -2   0   32.71   36.93
  13  -2   0   14.09   23.29
  13   2  -1   -8.27   20.30
  13   2   1    8.43   17.94
 -13   2   1  -37.14   50.13
 -13   2  -1   24.40   48.43
  13  -2  -1   -9.07   28.65
  13  -2   1    8.94   28.54
 -13   2   1    9.90   35.23
 -13   2  -1  -10.54   38.42
  13   2   1   -8.42   26.65
 -13  -2   1  -10.93   30.89
 -13  -2  -1   11.04   32.82
  13  -2  -1  -20.93   20.81
  13  -2   1   -6.99   19.84
  13   2  -2  -16.60   20.65
  13   2   2    8.42   17.44
  13  -2  -2   28.35   28.55
 -13   2   2   28.01   33.30
  13  -2   2  -25.83   26.03
 -13   2  -2   10.48   36.72
  13   2   2  -16.82   27.68
 -13  -2   2  -10.96   31.92
 -13   2  -2   24.24   50.78
  13  -2  -2    7.04   20.04
 -13  -2  -2   11.04   28.76
  13  -2   2    7.28   18.44
 -13   2   2   24.97   44.11
  13   2   3    8.42   44.39
 -13   2  -3  167.54   68.73
  13  -2  -3   95.33   51.20
 -13   2   3    9.42   52.43
  13  -2   3   85.61   49.74
  13   2  -3   17.10   49.57
 -13   2  -3  -10.27   52.62
  13   2   3   -8.46   49.56
 -13  -2   3  109.12   55.07
 -13   2   3  -75.57   59.52
  13  -2  -3  135.87   47.67
 -13  -2  -3  -11.13   49.32
  13  -2   3   65.12   46.65
  13   2  -3   25.00   46.11
  13   2   4    8.43   14.24
 -13   2  -4  -59.53   47.14
 -13   2   4  -28.52   35.05
  13  -2   4   17.04   30.20
  13   2   4   -8.47   24.46
 -13   2  -4   51.09   34.29
 -13  -2   4   10.96   35.36
  13  -2  -4  -14.44   20.36
 -13  -2  -4   33.42   29.53
  13  -2   4   22.86   19.99
  13   2  -4   -8.08   21.19
  13   2   5   -8.44  310.13
  13  -2   5  947.79  313.44
 -13   2   5   28.74  311.47
  13   2   5   -8.48  310.84
 -13  -2   5 1064.04  316.01
 -13   2  -5   10.33  311.72
  13  -2  -5  794.70  312.40
 -13   2  -5  675.83  315.53
  13   2  -5  593.30  312.09
  13  -2   5  470.34  311.63
 -13  -2  -5   67.05  312.44
 -13  -2  -6  -11.20   27.61
 -13   2  -6  -11.68   50.21
  13  -2   6   -8.21   27.00
 -13  -2   6   10.92   38.20
  13   2   6  -51.63   32.05
 -13   2  -6  -10.30   33.88
  13   2  -6    7.73   21.84
  13  -2   6   -7.83   22.38
  13  -2   7  257.76  413.17
 -13  -2  -7   22.51  413.74
  13  -2   7 1163.34  415.46
 -13   2  -7 1258.03  418.60
 -13  -2   7  923.58  416.53
  13   2   7   -8.63  413.05
  13   2  -7  964.78  414.74
 -13   2  -7   10.35  413.97
  13  -2   8   31.90   18.76
  13  -2  -8   10.17   21.98
  13  -2   8   -8.00   24.99
  13  -2   9    7.97   56.49
  13  -2  -9  -20.65   58.43
 -13   2  -9  -10.48   61.08
  13  -2  10   -7.96   16.77
 -13  -2  10  -13.23   54.02
  13  -2 -10  -10.45   23.02
  13  -2  10   -7.99   25.95
  13  -2 -10   15.66   20.97
 -13   2 -10   10.56   25.68
  13  -2  11   -7.97   16.30
  13  -2 -11   10.58   23.04
  13   2 -11  -10.14   28.54
  13  -2  11   -7.97   29.71
  13  -2 -11   23.78   22.10
 -13  -2  11   26.70   54.28
 -13   2 -11   10.58   23.55
  13   2 -12   51.21   43.48
 -13  -2  12  -13.48   67.29
  13  -2 -12   32.10   38.95
 -13  -2  13   13.62   57.27
  13   2 -13  -10.43   29.67
 -13  -2  13  -65.28   40.68
  13  -2 -13   -8.37   22.76
  13   2 -13   15.41   21.95
 -13  -2  14  -13.76   58.91
  13   2 -14  -21.08   39.63
 -13  -2  14   21.99   45.40
  13   2 -14   62.28   35.12
  13   2 -15   21.41   30.65
 -13  -2  15   11.12   37.80
  13   2 -15  -23.61   24.14
   2  13 -16    8.94   31.13
  -2  13 -16    8.79   29.52
  13   2 -16  -10.83   29.97
 -13  -2  16   33.72   38.73
  13   2 -16   -7.96   20.86
   2 -13  17  311.76   76.95
   2  13 -17  -26.70   66.70
  -2  13 -17  -17.52   66.75
  13   2 -17  -11.00   65.20
 -13  -2  17   21.28   70.71
  13   2 -17  217.50   67.11
   2 -13  18  -31.75   35.25
  -2 -13  18   62.60   36.19
   2 -13  18  -12.35   30.87
   2  13 -18   -9.05   31.16
  -2  13 -18  -17.84   30.70
  -2  13 -18  -94.22   45.84
  13   2 -18  -11.13   22.72
 -13  -2  18  -21.54   39.20
  13   2 -18   16.30   24.66
   2 -13  19  323.31  127.47
  -2 -13  19  292.90  124.77
   2 -13  19  200.66  123.62
   2  13 -19  -26.99  121.50
  -2  13 -19  -26.62  121.32
  -2  13 -19  -31.98  126.41
 -13  -2  19  -21.81  124.81
  13   2 -19  365.95  122.49
   2 -13  20  -16.46   39.29
  -2 -13  20  -25.84   33.19
   2 -13  20   51.07   32.84
   2  13 -20  -18.30   34.29
  -2  13 -20  -45.15   31.51
  -2  13 -20   65.12   50.21
   2 -13  21  284.70   91.10
  -2 -13  21   78.79   81.77
   2 -13  21  321.88   85.84
   2  13 -21    9.04   78.42
  -2  13 -21  -26.81   78.84
  -2  13 -21   16.57   90.11
   2 -13  22  -17.04   44.32
  -2 -13  22   13.22   32.21
   2 -13  22  -13.10   32.46
   2  13 -22   36.76   30.52
  -2  13 -22  -35.67   32.58
  -2  13 -22  -16.85   50.22
   2 -13  23  103.93   49.98
  -2 -13  23   80.60   37.23
   2  13 -23  -27.48   36.66
   2 -13  23   26.57   41.64
  -2  13 -23  -18.13   34.65
  -2  13 -23  119.96   66.13
   2 -13  24  -17.60   77.41
   2  13 -24   -9.30   57.50
  -2 -13  24 -122.42   62.50
  -2  13 -24  -27.54   59.10
   2 -13  24  -53.98   60.10
  -2  13 -24 -174.12  105.65
   2 -13  25   53.61   48.27
   2  13 -25   28.20   34.57
  -2  13 -25  -37.28   32.07
  -2 -13  25  -13.80   36.40
  -2  13 -25   17.68   62.71
   2 -13  25   41.12   33.30
   2 -13  26  -18.13   54.64
   2  13 -26   57.19   38.84
  -2  13 -26   -9.69   34.65
  -2  13 -26   35.90   70.96
  -2 -13  26  -27.99   36.20
   2 -13  26   13.91   35.99
  -2  13 -27  -19.66   36.84
   2 -13  27  -14.27   36.77
  13   3   0   25.70  192.37
  13  -3   0  280.29  194.81
 -13   3   0    9.24  193.80
 -13   3   0   49.42  196.53
  13  -3   0  417.38  193.69
 -13  -3   0  429.66  195.58
  13   3  -1   -8.58   18.97
  13   3   1  -25.69   18.10
  13  -3  -1   -9.50   26.96
 -13   3   1    9.32   34.04
  13  -3   1   37.06   28.92
 -13   3  -1   19.59   33.72
 -13   3   1   12.47   46.56
  13  -3  -1  -14.14   18.45
 -13  -3   1   11.23   30.12
  13  -3   1    6.90   19.09
 -13   3  -1   12.25   48.13
 -13  -3  -1   11.30   27.53
  13   3  -2   60.16   56.28
 -13   3  -2  -24.32   71.76
  13   3   2   17.13   55.15
 -13   3   2   12.58   67.47
 -13   3   2    9.39   62.16
  13  -3  -2   57.55   58.20
  13  -3   2   17.80   58.30
 -13   3  -2   -9.72   62.48
 -13  -3   2   89.96   61.76
  13  -3  -2  128.50   57.78
  13  -3   2   76.62   57.00
 -13  -3  -2  147.04   62.73
  13   3  -3   -8.62   19.21
  13   3   3   -8.58   16.50
 -13   3  -3   48.29   45.83
 -13   3   3    9.48   34.42
  13  -3   3   -8.84   28.57
 -13   3  -3   10.43   40.49
 -13  -3   3   11.11   30.77
  13  -3  -3  -14.36   20.00
  13  -3   3   27.66   19.02
 -13  -3  -3   11.34   25.69
  13   3  -4   59.16   48.66
 -13  -3  -4  -11.37   48.13
 -13   3  -4   59.97   62.86
  13  -3   4   43.92   50.42
 -13   3  -4   10.37   57.25
 -13  -3   4   11.15   53.13
  13  -3  -4   58.03   46.82
  13  -3   4   64.75   47.79
  13   3  -5   -8.49   22.08
 -13  -3  -5  -11.41   21.00
  13  -3   5   16.93   26.11
 -13   3  -5   35.77   50.21
 -13   3  -5  -10.16   37.06
 -13  -3   5  -11.20   34.52
  13  -3   5    7.15   19.18
 -13  -3  -6   11.46  177.25
  13  -3   6  303.20  179.06
 -13   3  -6  -10.11  179.05
 -13  -3   6  435.12  182.34
 -13   3  -6  154.22  181.70
  13  -3   6  225.92  177.25
  13   3  -6  187.65  177.47
 -13   3  -7   23.46   49.18
  13  -3   7   -8.39   29.91
 -13   3  -7   10.22   34.90
  13  -3   7   29.99   25.40
  13  -3   8   85.12  107.61
 -13   3  -8  257.09  117.84
  13  -3   8  183.83  110.17
 -13   3  -8   10.27  109.62
  13  -3   9   -7.89   21.13
  13  -3  -9   10.46   23.31
  13  -3   9   40.46   28.29
 -13   3  -9  -46.59   47.39
  13  -3  -9    8.06   19.91
 -13   3  -9  -20.48   33.12
  13  -3  10   47.25   26.42
 -13   3 -10  114.91   51.36
 -13  -3  10   39.75   59.57
  13  -3  10  -24.23   28.86
  13  -3 -10    8.16   27.86
 -13   3 -10  -10.37   33.14
 -13  -3  11 -187.02   80.36
  13   3 -11   -9.83   57.34
 -13  -3  12   13.48   64.51
  13   3 -12   -9.92   32.23
  13   3 -13   10.34   33.38
 -13  -3  13  -11.75   46.33
 -13  -3  13  -13.60   60.34
  13   3 -13   24.60   24.62
  13   3 -14   10.53   55.43
 -13  -3  14  -54.92   70.54
 -13  -3  14   23.72   62.86
  13   3 -14  102.81   53.51
 -13  -3  15   55.48   52.86
  13   3 -15   21.27   35.53
 -13  -3  15  -11.98   42.55
  13   3 -15  -39.94   28.79
  -3  13 -16   17.54   30.47
 -13  -3  16   14.02   49.91
  13   3 -16  -10.80   27.68
 -13  -3  16  -12.10   44.52
  13   3 -16   -8.07   20.40
   3 -13  17   15.55   30.57
  -3 -13  17  -15.90   27.62
   3  13 -17   -8.95   28.16
  -3  13 -17   17.48   29.22
  13   3 -17  -10.91   29.50
 -13  -3  17  -48.94   45.14
  13   3 -17   32.65   24.04
   3 -13  18  -15.85   52.48
  -3 -13  18   80.88   55.41
  -3 -13  18   37.75   50.68
   3 -13  18   74.00   54.95
   3  13 -18  -27.31   51.55
  -3  13 -18   17.80   54.19
  -3  13 -18  -78.32   63.05
  13   3 -18   22.16   53.26
 -13  -3  18  -34.34   62.02
   3  13 -18  -64.12   63.86
  13   3 -18  189.90   49.90
   3 -13  19   32.28   36.88
  -3 -13  19  -16.45   38.31
  -3 -13  19   12.80   33.85
   3 -13  19   12.52   33.66
   3  13 -19    9.04   30.91
  -3  13 -19   -8.86   31.36
  -3  13 -19  -15.96   46.80
   3  13 -19   48.92   50.65
   3 -13  20  131.46   61.37
  -3 -13  20   83.64   59.59
  -3 -13  20   90.82   51.42
   3 -13  20   12.75   49.35
   3  13 -20   36.78   48.80
  -3  13 -20    8.77   48.01
  -3  13 -20   64.99   65.80
   3  13 -20  -16.58   64.90
   3 -13  21   50.19   41.64
  -3 -13  21  -34.00   41.58
  -3 -13  21   91.47   35.80
   3 -13  21  -38.59   31.04
   3  13 -21  -18.17   32.39
  -3  13 -21  -35.69   34.10
  -3  13 -21  -66.17   51.75
   3  13 -21   33.71   51.56
   3 -13  22   17.02   44.15
  -3 -13  22  -17.28   42.64
  -3 -13  22   53.11   31.96
   3 -13  22  -26.17   39.19
   3  13 -22    9.23   32.58
  -3  13 -22   17.81   31.76
  -3  13 -22  -16.83   57.82
   3  13 -22  -34.25   55.00
   3 -13  23   69.24   52.08
  -3 -13  23   17.55   50.88
  -3 -13  23   13.45   40.58
   3  13 -23  -55.19   41.12
   3 -13  23   39.83   31.81
  -3  13 -23   -9.05   35.51
  -3  13 -23  -51.35   81.69
   3 -13  24  -35.18   52.48
  -3 -13  24  -17.80   47.81
   3  13 -24   37.34   31.40
  -3 -13  24   13.65   32.76
  -3  13 -24   -9.17   29.98
   3 -13  24  -13.49   34.11
  -3  13 -24  -52.20   59.38
   3  13 -24 -105.92   67.94
   3 -13  25   35.74   51.25
  -3 -13  25  -18.06   49.75
   3  13 -25   -9.44   33.05
  -3  13 -25   46.56   34.04
  -3 -13  25   55.40   35.59
  -3  13 -25   17.67   63.42
   3  13 -25  -35.82   68.34
   3 -13  25  -27.40   36.36
   3 -13  26   36.27   60.08
  -3 -13  26   36.62   50.42
   3  13 -26    9.56   34.70
  -3  13 -26   71.75   64.93
  -3  13 -26   -9.69   33.89
   3  13 -26  -18.16   58.38
  -3 -13  26   56.15   37.42
   3 -13  26   13.91   33.08
   3 -13  27   55.20   54.19
  -3  13 -27   -9.82   32.35
   3 -13  27  -14.27   30.87
  13   4   0   -8.72   22.39
 -13   4   0   12.48   46.74
  13  -4   0   76.00   30.29
 -13   4   0  -18.62   37.44
  13  -4   0   -7.07   25.40
 -13  -4   0  115.15   32.44
  13   4  -1    8.72  260.96
 -13   4   1   12.60  263.82
 -13   4  -1   12.36  264.18
 -13   4   1  -18.80  262.36
  13  -4  -1  501.22  263.39
  13  -4   1  244.72  262.69
 -13   4  -1    9.24  262.40
  13  -4  -1  618.61  262.98
  13  -4   1  665.38  262.79
 -13  -4   1  643.92  265.05
 -13  -4  -1  345.78  263.43
 -13   4  -2  -24.50   52.43
  13  -4   2   37.32   40.82
 -13   4  -2   -9.16   42.41
  13  -4  -2   57.48   36.57
  13  -4   2   34.45   34.98
 -13  -4   2   34.52   43.48
  13  -4   3   45.88   94.83
 -13   4  -3    9.71   96.60
 -13   4  -3  -60.73   99.97
  13  -4  -3  140.66   93.52
  13  -4   3  143.48   92.90
  13  -4   4   27.31   33.88
 -13   4  -4    9.64   38.48
 -13   4  -4   24.10   52.03
  13  -4   4   27.58   29.70
  13  -4   5   27.11   44.22
 -13   4  -5  -10.34   52.31
  13  -4   5   82.15   40.92
 -13   4  -5  -95.71   62.20
 -13   4  -6   23.77   57.30
  13  -4  -6   40.92   41.46
  13  -4   6   52.15   43.77
 -13   4  -6  -10.27   49.81
  13  -4   6   42.72   39.26
 -13   4  -7   23.62   53.23
  13  -4   7   51.83   35.83
 -13   4  -7  -10.06   40.56
  13  -4   7   21.23   27.09
 -13   4  -8   82.20   57.23
  13  -4   8   25.78   34.88
 -13   4  -8   10.16   39.90
  13  -4  -8   48.48   34.34
  13  -4   8    7.45   32.28
 -13  -4   9   12.99   53.67
 -13   4  -9   11.69   46.28
  13  -4   9    8.55   29.74
 -13   4  -9  -10.11   33.53
  13  -4   9   15.36   21.26
 -13  -4  10 -290.99   97.79
  13   4 -10   -9.51   72.36
  13   4 -11  -28.74   48.11
 -13  -4  12  -13.51   81.27
  13   4 -12   19.91   36.63
 -13  -4  13   13.62   79.58
  13   4 -13  -10.04   60.41
 -13  -4  13   69.57   65.97
  13   4 -13  104.41   59.13
  13   4 -14   10.46   31.64
 -13  -4  14  -35.08   37.71
 -13  -4  14  -27.49   56.19
  13   4 -14    8.29   22.06
  13   4 -15   10.56   63.83
 -13  -4  15   27.74   81.30
 -13  -4  15   70.82   74.23
  13   4 -15   92.06   62.19
  -4  13 -16   -8.75   30.05
 -13  -4  16   14.00   52.31
  13   4 -16   21.49   30.79
 -13  -4  16  -11.92   41.89
  13   4 -16   16.91   26.07
  -4 -13  17   16.00   28.46
   4  13 -17    9.01   28.06
  -4  13 -17  -26.17   29.45
 -13  -4  17  -28.30   57.41
 -13  -4  17   24.06   41.74
   4 -13  17   15.53   27.64
   4 -13  18   31.65   39.37
  -4 -13  18   16.27   36.84
  -4 -13  18   12.65   34.14
   4 -13  18   12.32   32.76
   4  13 -18  -27.47   32.30
  -4  13 -18   -8.68   29.33
   4  13 -18  -32.26   50.42
   4 -13  19   16.13   33.61
  -4 -13  19  -16.54   36.88
  -4 -13  19   38.49   31.14
   4 -13  19  -12.51   31.47
   4  13 -19    9.10   31.51
  -4  13 -19    8.85   30.39
  -4  13 -19  -31.87   47.78
   4  13 -19  -16.40   45.57
   4 -13  20  -16.42   34.60
  -4 -13  20  -16.81   41.49
  -4 -13  20  -13.04   34.10
   4 -13  20   12.74   34.98
   4  13 -20  -18.50   32.83
  -4  13 -20  -35.03   32.73
  -4  13 -20   16.23   50.09
   4  13 -20  -50.02   51.34
   4 -13  21  -33.43   43.96
  -4 -13  21   17.09   46.76
  -4 -13  21  -26.26   39.08
   4 -13  21  -12.86   36.62
   4  13 -21  -27.40   36.02
  -4  13 -21   -8.91   35.18
   4  13 -21  -67.76   55.90
  -4  13 -21  -49.57   52.00
   4 -13  22  -17.02   42.32
  -4 -13  22   34.71   44.55
  -4 -13  22   26.67   31.08
   4  13 -22    9.28   31.53
   4 -13  22   52.19   34.91
  -4  13 -22  -17.80   30.97
  -4  13 -22  100.92   59.03
   4  13 -22  -51.64   56.61
   4 -13  23  103.84   92.09
  -4 -13  23   17.62   78.10
  -4 -13  23   67.54   71.59
   4  13 -23   73.93   73.59
  -4  13 -23    9.05   70.96
   4 -13  23   13.27   70.47
  -4  13 -23  222.44  103.85
   4 -13  24  -17.59   45.02
  -4 -13  24   71.54   49.32
   4  13 -24  -28.13   33.39
  -4 -13  24   27.41   32.75
  -4  13 -24  -18.34   30.41
  -4  13 -24   34.79   58.20
   4  13 -24   35.47   66.22
   4 -13  24  -13.49   36.17
   4 -13  25   89.35   69.07
  -4 -13  25  181.34   74.99
   4  13 -25  -28.43   54.14
  -4  13 -25   -9.31   50.97
  -4  13 -25   88.35   76.31
   4  13 -25  -35.97   79.45
  -4 -13  25  125.11   55.89
   4 -13  25  123.37   56.61
   4 -13  26   54.45   49.85
   4  13 -26  -48.01   37.90
  -4  13 -26   17.94   62.67
  -4  13 -26   -9.69   36.33
  -4 -13  26   56.35   33.98
   4 -13  26   97.41   41.77
  -4  13 -27   49.13   57.38
   4 -13  27   42.84   55.22
  13  -5   0  378.25  438.32
  13  -5   0  513.17  437.95
  13  -5   1    9.56   40.61
 -13   5  -1    9.34   47.43
  13  -5  -1   22.04   39.55
  13  -5   1   77.60   40.03
  13  -5   2  283.99  265.96
 -13   5  -2   -9.24  265.49
  13  -5  -2  356.56  265.47
  13  -5   2  385.76  265.53
 -13   5  -3  -12.27   59.45
  13  -5   3   46.89   50.47
 -13   5  -3  -18.35   52.40
  13  -5   3   83.38   47.48
 -13   5  -4  -48.64   44.25
  13  -5   4  -18.50   28.73
 -13   5  -4    9.09   31.23
  13  -5   4   -6.83   21.43
 -13   5  -5  -24.11   65.13
  13  -5   5   18.34   50.19
 -13   5  -5   -9.63   56.67
  13  -5   5   94.84   48.62
 -13   5  -6   11.96   61.24
  13  -5   6   -9.10   51.24
 -13   5  -6  -10.33   58.47
  13  -5   6  102.51   49.31
  13  -5   7   36.11   39.08
 -13   5  -7  -11.86   52.23
 -13   5  -7  -10.25   47.48
  13   5  -7   -8.97   41.51
  13  -5   7   67.82   35.14
  13  -5   8  -26.67   35.67
  13   5  -8  -36.13   39.85
 -13   5  -8 -106.01   54.91
 -13   5  -8  -10.03   43.75
  13  -5   8   -7.05   29.49
  13   5  -9   18.15   36.74
  13   5 -10  -37.30   42.42
 -13  -5  10   13.18   67.73
  13   5 -11   65.66   55.27
 -13  -5  11  -13.41   74.22
  13   5 -12  116.99   69.00
 -13  -5  12   27.00   90.21
  13   5 -12  -19.44   71.52
 -13  -5  12  106.59   77.16
  13   5 -13   27.19   25.52
  13   5 -13   -9.79   30.14
 -13  -5  13  -13.69   54.83
 -13  -5  13   11.93   37.82
 -13  -5  14  -13.80  150.85
  13   5 -14   50.87  142.81
 -13  -5  14  250.27  146.08
  13   5 -14  219.19  142.43
 -13  -5  15  -13.91   57.45
  13   5 -15  -31.79   33.41
 -13  -5  15   60.07   39.19
  13   5 -15   17.78   23.61
  -5  13 -16  -17.10   29.13
 -13  -5  16   36.35   42.40
 -13  -5  16   14.03   53.94
   5 -13  17   12.08   39.99
   5  13 -17   54.41   37.86
  -5  13 -17    8.71   39.10
  -5 -13  17   16.10   36.73
   5 -13  18  -15.82   26.21
  -5 -13  18  -16.37   32.79
  -5 -13  18   12.73   29.83
   5 -13  18   12.27   30.38
   5  13 -18    9.22   29.95
  -5  13 -18  -17.35   28.75
   5 -13  19  -16.12   32.42
  -5 -13  19   33.27   33.46
  -5 -13  19  -25.81   27.98
   5 -13  19  -12.51   33.65
   5  13 -19   18.31   29.01
  -5  13 -19   -8.84   33.87
  -5  13 -19  -15.92   44.00
   5  13 -19   16.51   48.66
   5 -13  20   32.83   34.64
  -5 -13  20  -16.91   38.92
  -5 -13  20   13.12   27.71
   5 -13  20  -12.62   27.91
   5  13 -20   18.61   30.01
  -5  13 -20   17.50   31.49
  -5  13 -20  -48.65   47.18
   5  13 -20  -67.10   51.18
   5 -13  21  -16.72   43.48
  -5 -13  21   51.53   44.55
  -5 -13  21   26.40   31.43
   5 -13  21   51.42   39.23
   5  13 -21    9.19   33.51
  -5  13 -21    8.74   31.39
  -5  13 -21  -16.52   53.72
   5  13 -21  -51.14   54.21
   5 -13  22  -51.06   51.13
  -5 -13  22  -17.44   52.70
  -5 -13  22   13.41   41.92
   5  13 -22  -18.66   40.84
   5 -13  22  -13.05   40.35
  -5  13 -22  -44.49   41.35
  -5  13 -22 -100.88   71.23
   5  13 -22  -69.24   82.80
   5 -13  23  -17.32   47.04
  -5 -13  23  141.66   53.30
  -5 -13  23   40.72   36.66
   5  13 -23  -37.16   32.32
  -5  13 -23    9.02   32.51
   5 -13  23   26.56   34.31
  -5  13 -23  -85.52   58.27
   5  13 -23   52.70   61.96
   5 -13  24  -17.61   57.83
  -5 -13  24  107.79   64.20
   5  13 -24   -9.42   45.35
  -5 -13  24  110.16   50.09
  -5  13 -24   45.85   44.12
  -5  13 -24   17.39   64.66
   5  13 -24  -71.31   71.28
   5 -13  24   54.01   48.32
   5 -13  25   53.66   51.36
  -5 -13  25   18.21   57.24
   5  13 -25   76.18   40.31
  -5  13 -25   53.04   66.10
   5  13 -25   90.36   69.43
  -5  13 -25   19.09   39.42
  -5 -13  25  -13.96   40.35
   5 -13  25  -27.44   43.21
   5 -13  26   18.17   67.44
  -5  13 -26  -35.90   77.38
  -5  13 -26   87.23   59.56
   5 -13  26   42.28   56.44
   5 -13  27   18.43   50.51
  -5  13 -27   -9.84   34.29
   5 -13  27  -28.60   34.54
  13  -6   0    7.38   22.80
  13  -6   1  175.41  187.19
  13   6  -1  -27.64  187.17
  13  -6  -1  307.46  188.14
  13  -6   1  284.77  187.31
  13  -6   2   57.84   54.62
  13   6  -2   -9.22   57.52
  13  -6   2   77.93   53.11
  13  -6   3   -9.54   23.92
 -13   6  -3   -9.28   38.13
  13   6  -3    9.22   31.67
  13  -6   3   21.03   20.71
  13  -6   4   56.64   51.18
 -13   6  -4    9.19   57.62
  13   6  -4   -9.11   53.48
  13  -6   4   90.57   49.77
  13  -6   5   37.24   38.13
 -13   6  -5    9.12   44.81
  13   6  -5    9.12   39.38
  13  -6   5   48.28   35.83
  13  -6   6   92.22   95.27
 -13   6  -6    9.65   98.60
  13   6  -6  -18.15   96.77
  13  -6   6  189.88   94.48
  13  -6   7   36.55  106.58
  13   6  -7   -9.10  108.98
  13  -6   7  211.88  105.77
  13   6  -8  -18.28   38.41
  13   6  -9   -9.17   25.86
  13   6  -9  -27.52   31.73
  13   6 -10   36.81   23.29
  13   6 -10  -46.17   33.76
 -13  -6  10   36.02   34.87
  13   6 -11   -9.25   21.34
 -13  -6  11   13.40   60.03
  13   6 -11    9.28   29.60
 -13  -6  11  -12.06   32.85
  13   6 -12   18.60   23.36
 -13  -6  12   13.47   54.59
  13   6 -12  -19.07   34.39
 -13  -6  12   48.50   39.19
  13   6 -13   37.42   21.83
 -13  -6  13  -13.71   60.98
  13   6 -13  -49.38   34.97
 -13  -6  13   48.79   38.92
  13   6 -14  -18.83   22.78
  13   6 -14   -9.94   30.52
 -13  -6  14  -13.89   56.49
 -13  -6  14   61.37   39.25
  -6  13 -15   -8.57   33.42
 -13  -6  15  -13.99   56.74
 -13  -6  15   85.30   44.25
  -6  13 -16  -25.63   36.29
   6 -13  17   84.53   43.86
   6  13 -17    9.14   42.71
  -6  13 -17   17.01   41.99
  -6 -13  18  -16.48   29.39
  -6 -13  18   38.45   31.78
   6 -13  18  -12.28   31.97
   6  13 -18   27.22   31.26
  -6  13 -18  -26.01   27.67
   6 -13  19   32.24   40.22
  -6 -13  19   83.75   45.95
  -6 -13  19   51.95   46.87
   6 -13  19   50.05   39.02
   6  13 -19   -9.22   40.21
  -6  13 -19   25.77   37.33
   6  13 -19  -49.87   54.44
   6 -13  20  -16.42   36.57
  -6 -13  20  -34.04   41.46
  -6 -13  20  -26.39   39.53
   6 -13  20   12.63   35.43
   6  13 -20  -18.21   33.69
  -6  13 -20  -26.25   38.42
  -6  13 -20  -16.22   51.43
   6  13 -20  -50.68   47.33
   6 -13  21  -16.73   40.05
  -6 -13  21   17.29   38.87
  -6 -13  21  132.82   38.10
   6  13 -21  -27.74   37.11
   6 -13  21   25.73   40.66
  -6  13 -21  -17.49   34.68
  -6  13 -21   49.58   52.18
   6  13 -21   17.15   50.46
   6 -13  22  -17.03   51.68
  -6 -13  22  -17.55   47.41
  -6 -13  22  148.32   40.61
   6  13 -22   18.42   30.54
  -6  13 -22  -44.51   35.00
   6 -13  22   13.06   35.02
  -6  13 -22  -84.11   73.17
   6  13 -22 -104.51   65.79
   6 -13  23   17.34   42.53
  -6 -13  23   17.81   42.89
  -6 -13  23   13.65   34.24
   6  13 -23   18.69   31.48
  -6  13 -23   36.11   33.67
  -6  13 -23 -102.71   58.61
   6  13 -23  -17.67   65.21
   6 -13  23  -26.59   32.25
   6 -13  24  -17.63   45.21
  -6 -13  24   36.11   45.52
   6  13 -24  -18.89   32.48
  -6 -13  24   27.68   34.18
  -6  13 -24   17.41   58.89
   6  13 -24  -17.92   64.91
  -6  13 -24  -18.36   33.81
   6 -13  24   94.65   38.28
   6 -13  25  -17.92   49.37
  -6 -13  25   91.53   47.53
   6  13 -25  -38.29   35.30
  -6  13 -25  -17.69   58.05
   6  13 -25  -36.34   65.71
  -6  13 -25  -19.12   31.50
  -6 -13  25   42.09   33.24
   6 -13  25  -13.74   34.38
   6 -13  26  -36.39   45.83
  -6  13 -26  107.85   66.11
  -6  13 -26   19.41   32.07
   6 -13  26  -14.12   32.92
   6 -13  27  -18.47   56.10
  -6  13 -27  -72.98   53.58
  -6  13 -27  -30.70   39.50
   6 -13  27   14.32   36.93
  13  -7   1   44.62   47.47
  13  -7   2   66.15   65.45
  13   7  -3   -9.42   65.36
  13  -7   3   87.20   56.60
 -13  -7   4   12.22   72.99
  13   7  -4  122.35   79.14
  13  -7   4   70.49   68.46
 -13  -7   5  109.90   82.97
 -13   7  -5   -9.24   84.44
  13   7  -5  -18.60   85.71
  13  -7   5  154.01   79.96
 -13  -7   6  122.17  102.80
  13  -7   6   84.46  101.57
  13   7  -6  -74.44  106.77
  13  -7   6  221.60  101.44
 -13  -7   7   61.06   33.19
  13   7  -7  -37.04   31.19
 -13  -7   8   85.64   43.62
  13   7  -8    9.28   43.48
  13   7  -9   -9.31   20.38
  13   7  -9   -9.32   29.26
 -13  -7   9  -12.26   28.00
  13   7 -10  -28.03   24.27
  13   7 -10   -9.35   33.54
 -13  -7  10   12.30   34.13
  13   7 -11  -18.75   18.78
  13   7 -11   18.81   30.86
 -13  -7  11   49.31   30.80
  13   7 -12   -9.42   21.08
 -13  -7  12   13.63   54.47
  13   7 -12   47.25   33.25
 -13  -7  12   49.52   33.95
  13   7 -13   -9.47   19.49
 -13  -7  13   41.10   55.95
  13   7 -13   -9.71   31.87
 -13  -7  13   12.44   34.31
 -13  -7  14  -27.87   65.50
  -7  13 -15   -8.38   31.77
  -7  13 -16  -17.08   34.57
  -7 -13  17   38.11   34.16
   7  13 -17  -18.42   34.53
  -7  13 -17   42.53   38.02
  -7 -13  18   38.74   49.61
   7  13 -18   36.57   48.74
  -7 -13  18   49.82   50.34
  -7 -13  19   16.87   33.92
  -7 -13  19  -13.08   33.06
   7  13 -19    9.29   32.36
  -7 -13  20   85.68   37.99
  -7 -13  20  -26.58   34.79
   7  13 -20  -18.35   31.82
   7  13 -20  119.08   52.01
  -7 -13  21   34.80   57.33
  -7 -13  21   13.37   47.78
   7  13 -21   27.93   46.64
   7  13 -21  155.51   78.05
  -7 -13  22   35.33   46.08
  -7 -13  22   27.14   36.07
   7  13 -22    9.27   35.58
   7  13 -22  -17.54   55.40
  -7 -13  23  -17.92   47.55
   7  13 -23  -28.21   34.12
  -7 -13  23   82.36   36.58
   7  13 -23  -17.79   62.44
  -7 -13  24   54.49   47.41
   7  13 -24  -72.14   58.76
  -7 -13  24   83.51   35.70
   7  13 -24  -28.50   33.43
   7  13 -25    9.63   34.84
  -7 -13  25  -42.32   31.53
  13  -8   2   69.50   69.31
  13  -8   3   22.24   29.39
  13  -8   4   29.30   36.04
  13   8  -5  -57.72   97.09
  13  -8   5  191.67   95.60
  13   8  -6   38.47   48.54
  13   8  -7   19.02   35.67
 -13  -8   8  -12.48   20.78
  13   8  -8   19.04   31.82
 -13  -8   9   62.51   27.63
  13   8  -9  -18.95   29.83
 -13  -8  10   12.52   45.41
  13   8 -10   56.96   49.75
 -13  -8  11  -12.56   38.73
  13   8 -11  -47.70   46.46
 -13  -8  12  -12.58   28.92
  13   8 -12    9.60   32.12
  -8 -13  17  -12.81   30.02
   8  13 -17    9.29   32.23
  -8 -13  18   51.91   44.81
   8  13 -18   18.44   42.67
  -8 -13  19  105.48   48.62
   8  13 -19   -9.37   44.37
  -8 -13  19   34.01   45.21
  -8 -13  20  -17.27   45.73
  -8 -13  20   39.79   37.88
   8  13 -20   27.74   41.01
  -8 -13  21   40.40   40.24
   8  13 -21  -28.15   37.11
   8  13 -21   17.41   57.66
  -8 -13  22   17.78   47.15
  -8 -13  22  -27.26   28.37
   8  13 -22   28.02   32.44
   8  13 -22   17.66   55.82
  -8 -13  23   18.03   49.83
   8  13 -23  -37.88   35.82
  -8 -13  23   13.82   36.92
   8  13 -23  -89.56   58.33
  -8 -13  24  -18.28   46.76
   8  13 -24   -9.57   31.70
  -8 -13  24  -14.01   30.87
  13   9  -8  -19.44   34.50
  13   9  -9  -29.19   40.36
  13   9 -10   -9.68   34.22
  13   9 -11  -29.10   44.46
  -9 -13  17   25.85   33.34
   9  13 -17   -9.16   29.17
  -9 -13  18   39.27   38.06
   9  13 -18  -18.61   31.73
  -9 -13  19   13.29   41.87
   9  13 -19  -45.92   41.03
  -9 -13  20   53.47   34.30
   9  13 -20   -9.32   32.21
  -9 -13  20  -17.40   34.75
  -9 -13  21  -35.32   34.63
  -9 -13  21   40.69   37.06
   9  13 -21  -18.56   29.47
  -9 -13  22  -17.91   36.34
  -9 -13  22   27.45   35.59
   9  13 -22   -9.41   32.60
   9  13 -22  -71.22   56.38
  -9 -13  23  -18.16   44.52
   9  13 -23  -19.02   38.65
   9  13 -23   18.05   58.39
  -9 -13  23  -41.75   38.22
   9  13 -24   28.91   38.30
  -9 -13  24   14.10   35.60
  13  10 -10  -39.81   50.44
 -10 -13  17   13.01   36.92
 -10 -13  18  -13.21   31.46
  10  13 -18   18.79   31.03
 -10 -13  19   26.57   33.11
  10  13 -19  -27.81   34.58
 -10 -13  20  -13.48   30.23
  10  13 -20   28.21   32.26
 -10 -13  21   13.64   35.08
  10  13 -21   -9.36   30.93
 -10 -13  21   35.61   34.89
 -10 -13  22  -18.06   42.14
  10  13 -22  -18.98   35.90
 -10 -13  22  -13.83   36.22
 -10 -13  23   18.30   39.55
  10  13 -23  -18.20   55.55
  10  13 -23   38.34   33.57
 -10 -13  23  -28.05   32.80
 -10 -13  24   14.20   32.73
 -14   0   2  -39.52   59.89
  14   0  -2   37.77   33.98
  14   0  -3  -37.99   49.88
 -14   0   3  -53.36   62.92
  14   0  -5    9.93   37.76
 -14   0   5  -23.36   42.37
  14   0  -5   31.06   26.91
 -14   0   6  -13.62  394.75
  14   0  -6  419.97  394.03
 -14   0   6   54.43  392.99
  14   0  -6  930.81  394.23
  14   0  -7   20.82   46.69
 -14   0   7   43.88   48.94
  14   0  -7   46.50   40.24
 -14   0   7  -13.73   64.60
  14   0  -8  220.47  259.00
 -14   0   8  -11.06  258.76
 -14   0   8  -13.84  263.80
  14   0  -8  547.03  258.68
 -14   0   9  -13.97   62.07
  14   0  -9   53.39   38.78
 -14   0   9  -20.89   47.37
  14   0  -9   31.54   33.48
 -14   0  10   14.10   57.22
  14   0 -10  -21.56   36.13
 -14   0  10   52.69   40.51
  14   0 -10   31.84   33.23
  14   0 -11   10.93   36.83
 -14   0  11  -10.64   46.68
  14   0 -11  -32.39   34.49
  14   0 -12  -11.04   28.10
 -14   0  12   10.75   40.98
  14   0 -12  -16.36   24.84
  14   0 -13   33.60   29.67
 -14   0  13  -10.86   39.40
  14   0 -13  -24.79   24.05
  14   0 -14  -11.32   25.19
 -14   0  14  -32.85   37.16
  14   0 -14    8.35   25.07
  14   0 -15   11.45   43.22
 -14   0  15   33.21   53.48
  14   0 -15   50.67   42.33
 -14   0  16  -33.57   82.17
  14   0 -16  127.55   77.51
 -14   0  17  -22.64   41.44
  14   0 -17   17.20   24.24
 -14   0  18  -11.45  235.60
  14   0 -18  365.46  234.75
   0 -14  19  -16.79   26.53
   0 -14  19  -39.17   34.14
   0  14 -19   47.15   32.32
  14   0 -19   17.61   26.23
   0 -14  20  698.69  214.24
   0 -14  20  568.41  212.85
   0  14 -20   -9.36  208.08
   0  14 -20   16.87  211.97
   0 -14  21  -17.30   38.00
   0 -14  21   13.42   32.87
   0  14 -21    9.50   30.18
   0  14 -21   17.12   51.52
   0 -14  22   52.67   51.59
   0 -14  22   67.45   44.33
   0  14 -22   -9.37   47.12
   0 -14  23   17.81   42.52
   0 -14  23   41.05   33.27
   0  14 -23  -38.01   33.53
   0  14 -23  -17.63   65.81
   0 -14  24   90.27   50.52
   0 -14  24   13.84   31.24
   0  14 -24  -28.35   32.59
   0  14 -24  -35.75   59.84
   0 -14  25  -36.59   47.04
   0  14 -25   -9.58   38.64
   0 -14  25   14.02   37.31
  14   1   0   -8.94   29.40
 -14  -1   1   13.01   52.24
  14   1  -1  -35.90   34.52
 -14   1   2   26.53   49.31
  14  -1  -2   19.46   28.58
 -14  -1   2  -13.07   46.69
  14   1  -2   -9.21   29.31
 -14   1   3   40.07   60.47
  14  -1  -3  -29.39   46.87
  14  -1   3   90.52   43.91
  14  -1   4    8.50   25.52
 -14   1   4  -40.36   49.33
  14  -1  -4  -20.39   31.65
  14   1  -4  -28.73   33.59
 -14   1  -4   11.25   36.13
  14  -1   5  195.03  170.43
 -14   1   5   10.83  172.06
  14   1  -5  173.41  171.17
 -14  -1   5  172.71  174.98
 -14   1  -5   11.23  173.58
  14  -1  -5  397.64  171.97
 -14  -1   5  -13.43  176.88
  14   1  -5  195.33  171.79
  14  -1   6   43.31   24.13
 -14   1   6  -40.89   36.54
 -14  -1   6   13.61   52.43
  14   1  -6  -19.39   30.41
 -14  -1   6  -47.04   40.94
 -14   1  -6   11.38   31.55
  14  -1  -6   -7.71   21.24
  14   1  -6   32.77   25.20
  14  -1   7   69.24  118.86
 -14  -1   7  -27.41  128.39
 -14   1   7   13.79  129.30
  14  -1  -7  -10.53  120.37
 -14   1   7  -30.93  122.63
  14   1  -7  120.87  121.85
 -14  -1   7  106.58  125.23
  14  -1  -7  548.54  123.70
 -14   1  -7   56.85  125.36
  14   1  -7  157.59  121.75
  14  -1   8   25.96   22.51
 -14  -1   8  -13.81   62.94
 -14   1   8   27.83   53.64
  14  -1  -8  -10.63   28.77
 -14   1   8   20.81   35.36
  14   1  -8  -30.44   33.22
 -14  -1   8   11.93   45.38
  14  -1  -8  -23.73   22.18
 -14   1  -8   11.47   29.61
  14   1  -8   -7.94   20.39
  14  -1   9   43.30   59.08
 -14   1   9  -42.15   79.08
  14  -1  -9   21.56   62.66
 -14   1   9  -42.01   67.46
  14   1  -9   95.12   66.73
 -14  -1   9   22.25   66.21
  14   1   9  -53.82   68.46
  14  -1  -9  151.70   62.26
  14   1  -9  184.06   61.64
 -14  -1   9  -69.61   82.26
 -14   1  -9   22.95   61.50
  14  -1  10   -8.67   19.12
  14  -1 -10   32.67   30.03
 -14   1  10  -63.50   40.40
  14   1 -10   74.62   33.94
 -14  -1  10   11.22   36.09
  14   1  10  -18.01   32.05
 -14  -1  10  -14.04   55.88
  14  -1 -10    8.07   21.94
  14   1 -10   -8.07   19.29
 -14   1 -10   11.50   26.44
 -14   1 -11  -11.55   23.12
  14  -1 -11  -22.08   26.36
 -14  -1  11   14.17   54.46
 -14   1  11   42.77   39.30
  14   1 -11   54.21   31.90
 -14  -1  11   56.60   41.28
  14   1  11    9.15   30.31
  14  -1 -11  -16.23   20.76
  14   1 -11  -24.02   22.07
 -14   1 -12   11.58   18.60
 -14  -1  12   14.30   50.96
  14  -1 -12  -33.48   27.73
 -14   1  12  -32.41   37.56
  14   1 -12  -10.94   30.27
 -14  -1  12  -34.27   35.30
  14   1  12    9.19   29.67
  14  -1 -12  -16.40   23.36
  14   1 -12   32.33   19.81
 -14  -1  13  -14.44   49.48
  14  -1 -13   22.56   24.88
  14   1 -13  -11.10   31.89
 -14  -1  13  -34.60   41.39
  14  -1 -13   16.58   21.85
  14   1 -13    8.16   24.87
  14  -1 -14   11.41   38.12
  14   1 -14   56.08   40.51
 -14  -1  14   43.61   49.70
  14  -1 -14    8.38   35.26
  14   1 -14   41.22   35.02
  14   1 -15   22.75   27.36
 -14  -1  15   44.07   42.78
  14  -1 -15  -16.96   22.95
  14   1 -15  -16.66   22.56
  14   1 -16   57.50   26.95
 -14  -1  16   22.27   39.63
  14  -1 -16   -8.74   22.38
  14   1 -16  -25.45   28.65
  14   1 -17  -11.63  137.89
 -14  -1  17   45.03  141.93
  14   1 -17  291.65  139.07
  -1  14 -18  -18.52   42.16
 -14  -1  18  -22.76   50.41
  14   1 -18  -43.38   36.73
   1 -14  19  468.75  192.96
  -1 -14  19  454.59  192.89
  -1 -14  19  117.85  190.30
   1 -14  19  273.49  191.37
   1  14 -19   28.40  188.15
  -1  14 -19   -9.41  188.27
 -14  -1  19   92.11  190.75
  14   1 -19  473.91  189.54
   1 -14  20   17.01   32.12
  -1 -14  20  -34.18   40.72
  -1 -14  20   26.51   33.07
   1 -14  20  -39.56   36.10
   1  14 -20    9.39   30.79
  -1  14 -20   37.33   33.21
   1  14 -20  -33.85   48.51
 -14  -1  20  -23.29   42.10
  14   1 -20   26.64   26.54
   1 -14  21  293.54   81.21
  -1 -14  21  277.52   76.13
  -1 -14  21  147.98   73.01
   1 -14  21   13.39   68.62
   1  14 -21   -9.53   68.58
  -1  14 -21   56.84   68.36
  -1  14 -21  -34.16   76.90
   1  14 -21  -34.36   77.08
   1 -14  22   17.52   47.83
  -1 -14  22  -35.20   42.25
  -1 -14  22  -40.58   35.43
   1 -14  22  -13.46   34.17
   1  14 -22   65.76   47.88
  -1  14 -22   84.13   44.44
  -1  14 -22 -173.41  103.67
   1  14 -22  -87.14  104.49
   1 -14  23  -17.78   42.44
  -1 -14  23  -35.70   45.66
  -1 -14  23  -27.43   37.80
   1 -14  23   54.64   31.38
   1  14 -23   38.10   33.33
  -1  14 -23  -46.52   33.93
  -1  14 -23   52.78   57.73
   1  14 -23  -35.35   59.68
   1 -14  24   36.06   44.24
  -1 -14  24   18.09   48.83
  -1 -14  24  -13.87   36.92
   1 -14  24  -13.82   35.69
   1  14 -24   47.38   34.69
  -1  14 -24    9.43   31.71
  -1  14 -24  -17.84   60.54
   1  14 -24  -17.92   57.95
   1 -14  25  -18.28   50.41
  -1 -14  25  -54.99   43.78
   1  14 -25   19.19   32.02
  -1  14 -25  -28.58   33.57
  -1 -14  25  -28.10   36.38
   1 -14  25   28.02   31.38
  -1  14 -25  -54.25   63.85
   1  14 -25   18.16   47.23
  14   2   0  -18.01   34.54
  14   2  -1    9.03   32.96
  14   2   1    8.99   29.56
  14  -2  -2   10.08   27.67
  14   2   2   17.93   29.40
 -14   2   2  -53.24   53.81
  14  -2  -3  -10.15   31.79
  14   2  -3   -9.11   30.69
  14   2   3    8.97   30.81
 -14   2  -3  -22.01   43.37
 -14   2   3   26.82   51.60
  14  -2   3   31.01   20.87
 -14  -2   3   13.20   53.98
  14  -2  -4   30.96   40.80
 -14   2   4  -10.11   47.07
 -14   2   4   94.66   57.19
  14   2  -4    9.35   40.89
  14   2   4  -26.91   42.76
 -14   2  -4  -44.49   49.18
 -14  -2   4   81.71   49.59
  14  -2   4   73.54   38.70
 -14  -2   4   53.03   65.51
  14   2  -4   68.85   38.36
 -14   2   5   27.28   49.59
  14  -2  -5  -10.41   29.90
 -14   2   5   40.79   36.33
  14   2  -5   -9.40   32.13
  14   2   5   -9.04   29.78
 -14  -2   5   58.64   40.64
 -14   2  -5   11.08   36.36
  14  -2  -5   15.49   21.64
 -14  -2   5   26.95   52.04
  14   2  -5   -8.65   24.69
  14  -2   5   -8.14   22.38
  14  -2   6  151.36   97.72
 -14  -2   6  -13.55  110.81
 -14   2   6   20.53   99.62
  14   2  -6   19.45   98.53
  14   2   6   -9.05   98.17
 -14  -2   6  244.00  103.57
 -14   2  -6   22.29  101.02
  14  -2  -6  101.60   97.85
  14   2  -6  226.09   98.40
  14  -2   7  -17.17   21.41
 -14   2   7  -20.72   35.41
  14   2  -7   19.58   29.96
 -14  -2   7  -23.38   40.99
  14   2   7  -36.31   31.60
 -14   2  -7   11.12   31.21
  14  -2  -7   -7.89   19.71
  14   2  -7   33.08   19.57
 -14  -2   7  -13.63   57.13
  14  -2   8   51.43   68.06
 -14   2  -8   49.99   82.45
  14  -2  -8  161.31   73.07
 -14   2   8  -20.93   73.05
 -14  -2   8   13.82   86.15
  14   2  -8   -9.85   71.15
 -14  -2   8   23.53   76.59
  14   2   8   18.43   72.09
  14  -2  -8  206.22   69.61
 -14   2  -8  -22.54   73.05
  14   2  -8   91.57   68.76
  14  -2   9   -8.56   22.25
 -14  -2   9   13.92   61.17
  14  -2  -9   32.72   30.26
  14   2  -9  -30.71   34.82
 -14  -2   9  -23.70   39.66
  14   2   9  -64.76   42.38
 -14   2  -9  -12.48   57.03
  14  -2  -9   32.05   23.44
 -14   2  -9  -22.52   34.05
  14   2  -9  -25.15   25.88
  14  -2  10    8.56   21.21
 -14  -2  10  -14.03   58.73
  14  -2 -10  -22.04   27.28
  14   2 -10  -20.63   29.99
 -14  -2  10   12.12   43.13
  14  -2 -10   40.49   24.41
  14   2 -10  -16.90   25.17
 -14   2 -10  -11.36   29.54
  14  -2  11   -8.57   20.56
  14  -2 -11   44.56   25.45
  14   2 -11  -10.75   32.75
 -14  -2  11   73.28   46.30
  14  -2 -11   32.74   23.75
 -14  -2  11   14.14   58.59
  14   2 -11   -8.14   22.10
 -14   2 -11  -11.38   30.74
  14  -2 -12   11.27   31.11
  14   2 -12   21.68   36.34
 -14  -2  12   24.63   46.60
 -14  -2  12  -14.26   53.56
  14  -2 -12   50.63   33.38
  14   2 -12    8.21   28.61
 -14  -2  13  -14.40   56.22
  14   2 -13  -11.03   31.04
 -14  -2  13  -12.43   44.73
  14  -2 -13   -8.53   26.95
  14   2 -13  -16.56   24.61
 -14  -2  14   14.53   55.48
  14   2 -14  -44.52   33.23
 -14  -2  14  -11.61   45.19
  14   2 -14   50.16   26.12
  14   2 -15  -22.58   35.72
 -14  -2  15   11.72   42.39
  14   2 -15  -16.89   27.29
  14   2 -16   11.41   29.65
 -14  -2  16   11.84   44.53
  14   2 -16   -8.39   21.10
  14   2 -17  -11.57   34.30
 -14  -2  17  -11.96   43.70
  14   2 -17  -16.95   27.35
  -2  14 -18  -18.48   35.69
  14   2 -18  -11.70   32.54
 -14  -2  18  -12.09   46.12
  14   2 -18   77.09   31.67
  -2 -14  19   13.14   36.83
   2 -14  19   13.00   33.38
   2  14 -19   -9.50   32.18
  -2  14 -19   18.34   31.39
 -14  -2  19   12.22   42.55
  14   2 -19    8.66   24.14
   2 -14  19  -16.71   29.48
   2 -14  20  271.60  109.96
  -2 -14  20  172.90  105.82
   2 -14  20  237.02  106.72
   2  14 -20   65.96  103.97
  -2  14 -20  -37.25  104.65
   2 -14  21   34.48   39.01
  -2 -14  21   13.50   34.34
   2 -14  21  -13.37   34.07
   2  14 -21   -9.56   32.97
  -2  14 -21  -36.78   35.58
  -2  14 -21  -34.10   50.95
   2 -14  22   52.50  119.21
  -2 -14  22  -13.56  114.18
   2 -14  22   40.35  112.40
   2  14 -22  254.51  121.24
  -2  14 -22  270.65  120.24
   2 -14  23  -17.76   51.46
  -2 -14  23   68.76   51.71
   2 -14  23   13.65   48.33
   2  14 -23   28.67   48.49
  -2  14 -23   55.75   48.17
  -2  14 -23   35.13   65.14
   2 -14  24   54.04   45.48
  -2 -14  24  -13.90   37.80
   2  14 -24   -9.50   32.47
   2 -14  24  -13.81   32.38
  -2  14 -24  -28.26   31.32
  -2  14 -24   17.82   56.26
   2 -14  25  -18.26   49.70
   2  14 -25    9.62   32.87
  -2 -14  25   28.17   33.71
  -2  14 -25  -28.55   33.96
   2 -14  25   14.00   32.89
  -2  14 -25   18.07   62.16
  14   3   0  -18.23   18.55
  14   3   0  -27.31   28.86
  14   3  -1    9.13   26.42
  14   3   1    9.11   25.71
  14  -3  -1  -10.13   35.68
 -14   3   1   13.29   53.73
  14   3   1   45.49   32.59
 -14  -3   1   59.72   44.98
  14   3  -2   -9.14   29.55
  14   3   2   27.33   27.00
 -14   3   2   13.40   55.27
  14  -3  -2   30.65   32.79
  14   3  -2   54.89   33.48
  14   3   2    9.15   34.02
 -14  -3   2   11.97   35.96
  14   3  -3  -18.33   23.21
  14   3   3   -9.12   20.68
 -14   3   3  -27.02   50.12
  14  -3  -3   61.82   29.30
 -14   3  -3   11.18   41.17
  14   3  -3   -9.17   25.42
  14   3   3   36.64   28.97
 -14  -3   3  -11.83   33.59
  14  -3   3    7.76   20.01
 -14  -3  -3  -12.06   26.69
 -14  -3  -4  -12.08   23.91
  14   3  -4   26.97   21.47
 -14   3   4   54.53   48.29
  14  -3  -4   10.44   27.04
 -14   3   4  -10.17   35.22
  14   3  -4    9.23   29.36
 -14   3  -4   10.96   39.22
  14   3   4   -9.18   27.64
 -14  -3   4   11.86   33.86
  14  -3  -4  -15.47   20.22
  14  -3   4    7.72   21.09
  14   3  -5  -18.05   19.99
 -14  -3  -5   12.12   20.61
  14  -3  -5   10.54   27.36
 -14   3   5  -30.79   36.52
  14   3  -5    9.26   28.61
 -14   3  -5  -21.82   40.36
  14   3   5  -27.92   28.73
 -14  -3   5  -11.91   35.33
  14  -3  -5   23.32   25.17
  14  -3   5   48.76   22.57
 -14  -3   5   26.82   50.64
 -14  -3  -6  -12.16   22.77
  14  -3  -6  -10.64   29.34
  14   3  -6    9.51   31.67
  14   3   6   -9.33   31.74
 -14   3  -6  -11.03   41.65
 -14  -3   6   71.16   41.80
  14  -3  -6    7.85   24.74
 -14  -3   6  -13.47   56.30
  14  -3   6   56.65   25.60
  14   3  -6    9.07   26.44
  14   3  -7   -9.56   34.20
  14   3   7    9.36   35.65
 -14  -3   7   35.76   36.91
 -14   3  -7  -10.99   35.88
  14  -3  -7   15.86   24.15
 -14   3  -7   63.09   54.80
 -14  -3   7   13.70   59.14
  14   3  -7   -8.80   22.05
  14  -3   7   -8.35   25.12
  14  -3   8   49.96   30.67
 -14   3  -8  -12.58   58.09
 -14  -3   8  -13.77   63.81
  14  -3   8   71.96   34.49
  14   3  -8    9.90   40.15
 -14  -3   8  -23.97   42.24
 -14   3  -8  -22.10   40.41
  14  -3  -8   24.50   29.78
  14   3  -8   -8.85   29.09
  14  -3   9  -25.50   25.38
 -14   3  -9   12.55   56.46
  14  -3  -9  -22.04   27.51
  14   3  -9   59.76   34.57
  14  -3   9  -26.92   32.67
 -14  -3   9   12.06   42.23
  14  -3  -9   -8.25   23.83
 -14   3  -9   22.37   34.25
 -14  -3   9   27.72   60.95
  14   3  -9   71.23   28.30
  14  -3  10   -8.49   22.88
 -14  -3  10  -56.21   58.87
  14   3 -10  -10.34   33.70
  14  -3  10   -8.70   29.22
 -14  -3  10   11.96   35.71
  14  -3 -10   16.69   20.81
  14   3 -10   17.93   24.51
 -14  -3  11   28.31   75.99
  14   3 -11  -31.26   58.60
 -14  -3  11  192.78   70.92
  14  -3 -11  118.14   57.17
  14   3 -11    8.53   56.10
 -14  -3  12  -14.27   57.72
  14   3 -12  -10.85   37.16
 -14  -3  12  -48.56   41.98
  14   3 -12   -8.60   26.28
  14   3 -13  -10.94  177.35
 -14  -3  13   48.96  178.95
 -14  -3  13  -14.39  182.34
  14   3 -13  424.94  177.41
  14   3 -14  -22.25   40.22
 -14  -3  14  -14.51   61.28
 -14  -3  14  -37.59   47.84
  14   3 -14  -26.25   32.67
 -14  -3  15  -14.64   60.23
  14   3 -15   22.45   34.81
 -14  -3  15  -12.65   47.64
  14   3 -15   35.32   29.84
  14   3 -16  -11.39   38.50
 -14  -3  16  -12.76   49.11
  14   3 -16   -8.51   23.89
  14   3 -17   23.00   39.69
 -14  -3  17  103.09   56.81
  14   3 -17    8.60   34.30
  -3  14 -18  -27.67   31.72
  14   3 -18   46.65   35.00
 -14  -3  18   13.02   48.42
  14   3 -18   26.07   24.99
  -3 -14  19   13.20   39.86
   3 -14  19  116.87   42.02
   3  14 -19  -19.09   40.27
  -3  14 -19  -27.47   38.17
   3 -14  19   33.38   36.48
  -3 -14  19  135.78   41.54
   3 -14  20  -16.96   31.26
  -3 -14  20  -34.44   37.99
  -3 -14  20  -13.36   35.65
   3 -14  20   78.94   38.14
   3  14 -20   -9.47   29.66
  -3  14 -20  -46.51   31.00
   3 -14  21   34.45   43.10
  -3 -14  21   34.94   44.31
  -3 -14  21   27.10   38.25
   3 -14  21   40.09   39.82
   3  14 -21   38.40   37.54
  -3  14 -21   -9.18   36.15
  -3  14 -21  -34.06   52.96
   3  14 -21   51.95   54.31
   3 -14  22   34.98   54.48
  -3 -14  22  -35.44   60.70
  -3 -14  22  -13.61   45.98
   3 -14  22   13.44   45.65
  -3  14 -22  -55.94   50.16
  -3  14 -22 -172.94  105.49
   3  14 -22  -70.24   88.32
   3 -14  23  -17.75   44.90
  -3 -14  23   17.96   43.87
  -3 -14  23   96.60   43.39
   3 -14  23   40.93   38.09
   3  14 -23    9.59   35.25
  -3  14 -23  -37.13   32.89
  -3  14 -23   17.55   58.36
   3  14 -23   35.60   62.98
   3 -14  24   54.04   43.85
  -3 -14  24  -18.20   46.60
  -3 -14  24   13.94   29.44
   3  14 -24   -9.54   36.72
  -3  14 -24  -28.25   34.95
   3 -14  24  -27.61   34.23
   3  14 -24   54.12   59.81
   3 -14  25   18.26   45.73
  -3 -14  25   70.61   37.94
  -3  14 -25  -19.03   34.60
  -3  14 -25  -18.05   59.12
   3 -14  25   41.99   42.32
   3 -14  26  -28.36   44.03
  14   4   0   18.50  116.25
 -14   4   0   66.51  124.22
  14  -4   0  253.30  121.63
 -14  -4   0  317.81  122.55
  14   4  -1    9.25   21.38
  14   4   1  -18.51   22.21
 -14   4   1   26.83   45.89
  14  -4  -1   41.05   31.95
  14   4  -1   -9.24   32.70
 -14  -4   1   36.63   33.27
 -14  -4  -1   61.14   30.34
 -14  -4  -2  232.64   43.60
  14   4  -2  -74.11   32.08
  14  -4  -2   31.06   34.58
  14   4  -2    9.25   37.03
  14   4   2  -18.84   37.44
 -14  -4   2  293.23   48.98
 -14  -4  -3  -12.28   52.00
  14   4  -3  -18.56   48.88
  14  -4  -3   10.45   50.93
  14   4  -3  -27.80   53.14
  14   4   3  -18.87   55.33
  14  -4  -3  115.59   49.86
 -14  -4   3   12.24   55.76
  14  -4   3  148.82   50.09
  14   4  -4   18.60   24.15
 -14  -4  -4  -12.32   24.26
  14  -4  -4   31.77   27.77
 -14   4  -4   11.16   39.10
  14   4  -4   -9.31   32.55
  14   4   4  -47.29   32.15
  14  -4  -4  -23.34   25.40
 -14  -4   4  -24.32   34.21
  14  -4   4  -22.18   23.87
  14   4  -5   -9.33   33.18
  14  -4  -5  -21.39   34.50
  14   4  -5  -28.00   42.22
 -14   4  -5   11.10   46.61
  14  -4  -5   72.11   34.40
 -14  -4   5   73.16   44.01
  14  -4   5   61.54   32.77
  14   4  -6    9.36   26.42
  14  -4  -6  -21.61   22.79
  14   4  -6   28.18   37.31
 -14   4  -6   21.75   44.42
  14  -4  -6   24.28   22.22
 -14  -4   6  -36.19   39.45
  14  -4   6    7.65   22.54
  14   4  -7  -18.80   75.21
 -14   4  -7   38.11   89.78
  14  -4  -7   32.76   74.81
  14  -4   7  185.92   78.43
  14   4  -7   37.72   78.30
 -14   4  -7   10.82   80.31
 -14  -4   7  -40.92   88.97
 -14  -4   7  181.66   82.34
  14  -4  -7   81.80   75.29
  14  -4   7  177.27   75.87
  14   4  -8   -9.23   20.02
 -14   4  -8   25.30   52.03
 -14  -4   8  -13.71   57.42
  14  -4   8   -9.25   27.65
  14   4  -8   38.74   35.39
 -14   4  -8   43.75   38.01
 -14  -4   8  -36.50   43.00
  14  -4  -8   -8.27   21.61
  14  -4   8   16.04   21.61
  14   4  -9    9.28   26.38
  14  -4   9   16.55   24.01
  14  -4   9    9.22   30.06
  14   4  -9   38.96   33.39
 -14  -4   9  -13.94   57.92
 -14  -4   9  -24.46   41.15
 -14  -4  10  -28.05  112.12
  14   4 -10   60.50   94.19
 -14  -4  10  195.19  100.40
  14   4 -10  102.69   91.95
  14   4 -11   10.15  116.66
 -14  -4  11   14.21  134.26
 -14  -4  11  122.76  119.97
  14   4 -11  244.98  118.87
 -14  -4  12   14.31  187.19
  14   4 -12  -21.08  178.80
 -14  -4  12  370.82  184.01
  14   4 -12  292.33  178.55
 -14  -4  13  100.92   75.68
  14   4 -13   10.62   48.24
 -14  -4  13   24.91   52.72
  14   4 -13   46.01   42.40
  14   4 -14   11.06  117.64
 -14  -4  14   86.55  120.59
 -14  -4  14   14.53  127.37
  14   4 -14  250.46  118.22
  14   4 -15  -11.15   46.32
 -14  -4  15  -29.31   78.39
 -14  -4  15   12.47   56.87
  14   4 -15   84.18   42.08
 -14  -4  16  -14.78   80.68
  14   4 -16  -11.34   62.78
 -14  -4  16  -25.15   72.41
  14   4 -16  133.79   59.13
 -14  -4  17   14.92   80.78
  14   4 -17  -11.45   65.92
 -14  -4  17   38.07   73.37
  14   4 -17  117.01   64.14
   4 -14  18   38.30   39.46
  -4  14 -18    9.21   37.27
  -4 -14  19   13.26   33.30
   4 -14  19  -25.96   36.77
   4  14 -19   19.20   33.41
  -4  14 -19    9.15   34.43
  -4 -14  19   85.28   37.03
   4 -14  20   67.79   33.52
  -4 -14  20  -17.30   37.68
  -4 -14  20   26.83   34.01
   4 -14  20   65.74   37.51
   4  14 -20   -9.51   32.08
  -4  14 -20  -27.88   36.25
   4 -14  21  -17.22   40.79
  -4 -14  21   52.64   50.69
  -4 -14  21  -40.83   37.80
   4 -14  21  -26.48   35.31
   4  14 -21   38.59   39.17
  -4  14 -21  -18.36   38.56
   4  14 -21 -104.40   76.08
   4 -14  22  -17.49   40.84
  -4 -14  22  -17.79   37.28
  -4 -14  22   13.67   33.44
   4 -14  22   40.33   32.32
   4  14 -22   28.52   32.33
  -4  14 -22   -9.32   35.80
  -4  14 -22  -17.28   57.18
   4  14 -22  -35.29   62.17
   4 -14  23   17.76   40.40
  -4 -14  23  108.21   40.17
  -4 -14  23   13.85   31.73
   4  14 -23    9.45   36.04
   4 -14  23  -27.22   34.19
  -4  14 -23   -9.28   32.45
  -4  14 -23   17.55   56.17
   4  14 -23  -35.76   58.38
   4 -14  24   54.05   47.60
  -4 -14  24  -18.27   47.53
  -4 -14  24  -27.99   32.87
   4  14 -24    9.57   30.88
  -4  14 -24   -9.42   32.74
   4 -14  24   13.81   35.96
  -4  14 -24   17.80   57.31
   4  14 -24  -72.46   63.42
   4 -14  25   36.54   48.99
  -4  14 -25  -28.54   30.98
  -4  14 -25   36.12   55.07
   4 -14  25   14.00   32.87
   4 -14  26   99.34  101.68
  14  -5   0  -10.32   26.68
  14   5   0  -19.15   36.34
 -14  -5   1  298.12  106.61
 -14  -5  -1  137.12  103.10
  14  -5  -1  156.25   98.82
  14  -5   1  132.49  100.60
  14   5  -1  -75.63  100.45
 -14  -5  -2  -12.49   69.98
  14   5  -2    9.41   67.87
  14  -5  -2  -10.51   68.38
  14   5  -2   66.18   72.99
  14  -5  -2  270.41   71.83
 -14  -5   2   37.26   71.07
  14   5  -3   37.66   75.29
  14  -5  -3  -10.62   75.34
  14   5  -3  178.69   82.16
  14  -5  -3  103.43   75.42
 -14  -5   3   99.42   77.32
  14   5  -4    9.43  163.68
  14  -5  -4  139.48  165.52
  14   5  -4   18.84  165.89
  14  -5  -4  241.11  164.96
  14  -5   4  299.90  165.03
 -14  -5   4  347.90  167.40
  14   5  -5   -9.45   25.54
 -14   5  -5  -20.66   44.31
  14   5  -5   47.28   33.54
  14  -5  -5    8.12   25.17
  14  -5   5    7.39   20.44
 -14  -5   5   12.45   30.00
  14   5  -6   18.95  102.68
 -14   5  -6  -11.09  109.32
  14   5  -6    9.48  105.51
  14  -5  -6  185.80  104.65
 -14  -5   6  124.81  107.95
  14  -5   6  227.50  104.10
  14   5  -7   19.01   27.10
 -14   5  -7  -51.03   53.16
  14   5  -7  -47.67   34.90
 -14   5  -7  -43.45   44.72
 -14  -5   7   12.41   37.65
  14  -5   7  -15.27   24.99
  14   5  -8   -9.54  113.22
  14  -5   8  172.32  115.77
  14   5  -8    9.57  115.18
 -14  -5   8  161.98  119.66
  14  -5   8  313.25  115.38
  14   5  -9  -19.16   24.93
 -14  -5   9   13.90   59.71
  14   5  -9   19.23   30.62
 -14  -5   9  -37.55   37.61
  14   5 -10  -48.15   27.76
 -14  -5  10   13.96   59.21
  14   5 -10   19.76   28.10
 -14  -5  10   61.99   38.30
  14   5 -11    9.68   39.34
 -14  -5  11   14.21   68.11
  14   5 -11   29.80   45.37
 -14  -5  11  124.64   57.11
  14   5 -12   85.71   93.15
  14   5 -12  -10.29   94.07
 -14  -5  12  -14.29  106.76
  14   5 -13  105.46   81.67
 -14  -5  13   14.49   97.22
  14   5 -13  -42.72   84.16
 -14  -5  13  290.20   89.64
  14   5 -14  115.84   40.46
 -14  -5  14  -14.59   71.92
  14   5 -14  -43.03   46.25
 -14  -5  14  -12.71   51.43
 -14  -5  15 -102.87   92.18
  14   5 -15   55.98   71.41
  14   5 -15   38.91   61.81
  14   5 -16  -45.15   35.17
 -14  -5  16   29.63   61.92
 -14  -5  16  -51.17   45.27
  14   5 -16   19.61   25.47
   5 -14  18   63.84   35.60
  -5  14 -18  -18.41   35.44
  -5 -14  19   13.34   34.79
   5 -14  19   12.94   34.28
   5  14 -19    9.43   29.23
  -5  14 -19  -45.72   33.21
  -5 -14  20   52.18   38.33
  -5 -14  20  -13.49   34.50
   5 -14  20  -13.15   30.81
   5  14 -20    9.57   32.00
  -5  14 -20  -36.14   35.71
   5 -14  21   34.46   48.27
  -5 -14  21  -17.64   49.17
  -5 -14  21  -27.36   43.08
   5 -14  21  -13.24   37.92
   5  14 -21  -28.30   43.19
  -5  14 -21  -45.90   41.50
   5 -14  22  -17.50   57.68
  -5 -14  22   71.50   62.70
  -5 -14  22   68.67   56.52
   5 -14  22   67.26   54.30
   5  14 -22   19.12   55.10
  -5  14 -22   45.73   53.19
  -5  14 -22  -69.14   68.86
   5  14 -22  177.38   72.76
   5 -14  23   53.30   51.32
  -5 -14  23   18.11   48.83
  -5 -14  23   55.67   36.24
   5  14 -23   19.01   35.69
   5 -14  23   13.62   35.57
  -5  14 -23  -46.43   33.93
  -5  14 -23  -17.55   52.63
   5  14 -23  125.77   62.03
   5 -14  24  -18.03   49.48
  -5 -14  24   42.17   39.46
   5  14 -24   38.48   37.74
  -5  14 -24   -9.39   36.58
  -5  14 -24  -71.26   56.59
   5  14 -24   18.20   54.56
   5 -14  24   69.11   40.98
   5 -14  25   18.29   47.00
  -5  14 -25  108.38   60.10
  -5  14 -25   28.56   38.18
   5 -14  25  -14.02   40.07
   5 -14  26   28.42   43.15
  14  -6   0   31.38  206.86
  14  -6   0  376.64  208.21
 -14  -6   1   25.33   90.26
  14  -6   1  -10.36   87.22
  14   6  -1    9.75   89.70
  14  -6  -1  245.33   89.16
 -14  -6   2   12.66   34.82
  14  -6   2   10.27   35.52
  14   6  -2  -28.88   43.12
  14  -6  -2   87.92   38.74
 -14  -6   3   75.92  180.99
  14   6  -3   -9.62  181.39
  14  -6  -3  415.52  181.76
 -14  -6   4  -12.64   24.65
  14   6  -4    9.63   31.60
  14   6  -5   -9.58  255.65
  14  -6   5  520.38  256.13
 -14  -6   5  202.39  256.11
  14   6  -6   -9.61   35.21
 -14   6  -6  -10.35   48.64
  14   6  -6  -19.20   42.46
  14  -6   6  118.33   37.47
 -14  -6   6   25.34   43.60
  14   6  -7   -9.63   21.79
  14   6  -7  -19.28   33.22
 -14  -6   7   63.41   45.19
  14   6  -8   -9.66   34.16
  14   6  -8   29.01   39.53
  14   6  -9    9.69   38.77
  14   6  -9   29.18   47.38
 -14  -6   9  140.34   53.01
  14   6 -10    9.73   19.50
 -14  -6  10  -14.10   61.30
  14   6 -10   -9.77   31.10
 -14  -6  10   25.62   34.61
  14   6 -11   -9.78   31.21
 -14  -6  11   14.17   71.00
  14   6 -11  -10.03   42.45
  14   6 -12    9.83   21.83
 -14  -6  12  -72.06   58.91
  14   6 -12  -10.08   31.54
 -14  -6  12   51.30   39.17
  14   6 -13   19.77   61.59
 -14  -6  13  -14.49   85.28
  14   6 -13   20.88   65.21
  14   6 -14   29.84   37.37
  14   6 -14   10.50   41.90
 -14  -6  14   14.68   71.36
 -14  -6  14   38.92   50.93
 -14  -6  15   14.78   70.62
 -14  -6  15   52.24   53.78
   6 -14  18  102.17   63.80
  -6  14 -18   26.98   61.96
  -6 -14  19   67.08   34.76
   6 -14  19   38.84   35.66
   6  14 -19   -9.50   32.53
  -6  14 -19  -36.58   35.38
  -6 -14  20   94.95   74.71
   6 -14  20   91.30   73.33
   6  14 -20   38.51   74.77
  -6  14 -20   45.19   74.67
  -6 -14  20  122.47   81.00
  -6 -14  21   35.48   48.33
  -6 -14  21  151.26   50.37
   6 -14  21   66.29   47.47
   6  14 -21  -47.44   45.92
  -6  14 -21   36.73   46.03
   6 -14  21   17.24   52.05
   6 -14  22   17.52   37.42
  -6 -14  22   17.97   33.63
  -6 -14  22  -27.61   34.74
   6  14 -22   28.84   31.56
   6 -14  22   13.43   30.89
  -6  14 -22    9.15   31.55
   6  14 -22  -35.68   57.13
   6 -14  23   17.79   46.23
  -6 -14  23  127.44   52.53
  -6 -14  23   69.93   46.07
   6  14 -23  -19.11   45.31
  -6  14 -23    9.29   41.60
   6 -14  23   81.85   45.80
  -6  14 -23   17.56   63.69
   6  14 -23   36.14   62.47
   6 -14  24   18.06   38.66
  -6 -14  24  -56.50   39.36
  -6  14 -24  -89.15   57.79
  -6  14 -24  -18.80   32.41
   6 -14  24   55.38   34.79
   6 -14  25   18.32   39.67
  -6  14 -25  -36.18   57.71
  -6  14 -25  -19.07   33.86
   6 -14  25   14.05   29.82
  -6  14 -26    9.90   34.33
   6 -14  26   14.41   33.62
  14  -7   0  167.20  158.99
  14  -7  -1   66.23   53.46
  14  -7   1   39.41   50.72
  14   7  -3  -39.70   50.72
 -14  -7   4  244.76   73.74
  14   7  -4   -9.81   70.24
 -14  -7   5   12.89   25.75
  14   7  -5  -19.62   34.42
 -14  -7   6  128.95   61.19
  14   7  -6    9.76   60.26
 -14  -7   7  193.38   69.77
  14   7  -7   -9.78   66.58
  14   7  -8   -9.81   38.93
  14   7  -8   39.26   47.20
  14   7  -9   19.66   26.88
  14   7  -9   -9.84   35.13
 -14  -7   9   77.71   36.49
  14   7 -10   19.73   22.38
  14   7 -10   -9.90   32.90
 -14  -7  10   38.97   32.60
  14   7 -11  -19.80   21.13
  14   7 -11    9.94   33.09
 -14  -7  11  -13.02   29.60
  14   7 -12  -19.89   24.73
 -14  -7  12   43.19   68.31
  14   7 -12  -10.20   34.83
 -14  -7  12   26.14   38.34
  14   7 -13   -9.99   25.59
  14   7 -13   10.25   35.22
 -14  -7  13   43.90   64.12
 -14  -7  13   26.27   34.76
 -14  -7  14  -44.15   70.01
 -14  -7  14   52.81   43.84
  -7 -14  19   53.86   59.24
  -7 -14  20  -27.31   36.02
   7  14 -20   -9.69   34.44
  -7 -14  21   27.42   40.63
   7  14 -21  -28.65   31.47
  -7 -14  22   36.16   44.39
  -7 -14  22   55.54   38.29
   7  14 -22  -19.35   38.84
  -7 -14  23  -14.03   36.82
   7  14 -23  -28.83   34.73
   7  14 -23   54.54   59.50
  14  -8   2   -7.94   22.84
  14  -8   3  110.12  106.53
  14   8  -5  -30.36   44.96
  14   8  -6  -10.00   34.44
 -14  -8   7   65.67   28.60
  14   8  -7  -20.02   34.41
 -14  -8   8   92.06   50.33
  14   8  -8    9.96   48.85
 -14  -8   9   65.88   54.13
  14   8  -9   39.93   54.65
 -14  -8  10   52.81   27.96
  14   8 -10  -10.03   33.01
 -14  -8  11  -26.48   37.59
  14   8 -11  -10.06   36.01
 -14  -8  12   13.26   24.38
  14   8 -12  -10.12   31.53
 -14  -8  13  -14.64   63.53
  -8 -14  20  151.22   59.13
   8  14 -20  -18.99   52.23
  -8 -14  21   27.60   36.18
   8  14 -21    9.62   34.94
  -8 -14  22   36.39   38.30
  -8 -14  22   13.98   38.77
   8  14 -22   19.11   37.54
  -8 -14  23   42.34   38.75
   8  14 -23   -9.67   33.15
  14   9  -8   10.21   33.56
  14   9  -9  -30.49   44.67
  14   9 -10  -30.54   40.38
  14   9 -11  -10.23   32.94
  -9 -14  20   41.17   39.67
   9  14 -20  -28.71   31.14
  -9 -14  21   55.60   58.73
   9  14 -21   48.46   58.97
  -9 -14  22  140.38   71.70
   9  14 -22    9.63   67.93
  14  10 -10   10.37   35.40
 -10 -14  20  -13.83   36.59
 -10 -14  21   28.02   48.26
  10  14 -21   47.94   49.62
 -10 -14  22   56.55   40.66
  10  14 -22    9.70   38.42
  15   0   0   77.18   52.05
 -15   0   0  124.69   71.15
 -15   0   0   12.06   55.18
  15   0   0    8.88   43.51
 -15   0   1   55.64   89.52
 -15   0  -1  163.82   91.12
  15   0  -1   99.70   74.43
  15   0   1   38.46   72.43
 -15   0   1  -12.11   76.39
 -15   0  -1  -12.02   75.63
  15   0  -1  133.65   71.69
  15   0   1   64.14   69.72
  15   0   2   36.56   39.68
  15   0  -2   10.01   44.07
  15   0   2   -9.59   44.53
 -15   0   2  -11.98   53.18
 -15   0  -2   24.18   52.67
  15   0  -2   33.83   36.64
 -15   0   2   27.95   64.32
  15   0   3   -9.33   27.39
 -15   0  -3  -54.34   56.57
  15   0  -3  -10.06   38.01
 -15   0   3   14.14   61.23
  15   0   3   -9.36   36.69
 -15   0   3  -48.15   47.03
 -15   0  -3  -12.07   43.75
  15   0  -3   -8.50   26.39
  15   0   4   -9.32   24.59
  15   0   4   18.69   32.42
 -15   0   4  -12.28   43.72
 -15   0  -4  -12.23   39.32
  15   0  -4    8.55   23.89
  15   0   5    9.31   62.70
  15   0   5   46.69   69.28
 -15   0   5   24.71   70.66
 -15   0  -5  -12.22   68.84
  15   0  -5  188.92   65.96
 -15   0   6   14.40   54.27
  15   0   6   18.61   24.38
  15   0  -6  -10.92   35.47
 -15   0   6  -12.43   43.54
  15   0   6    9.31   30.71
 -15   0  -6   12.32   38.02
  15   0  -6   16.54   20.45
  15   0   7   -9.31   37.36
  15   0  -7   32.99   48.32
 -15   0   7   37.56   53.32
  15   0   7  -46.58   43.28
 -15   0   7  -29.00   61.97
  15   0  -7  166.50   41.27
 -15   0  -7  -12.32   44.88
  15   0   8    9.32   19.77
  15   0  -8   77.54   35.28
 -15   0   8  -23.34   39.67
 -15   0   8   14.61   55.24
  15   0   8  -27.98   35.15
  15   0  -8    8.39   24.77
 -15   0  -8   12.35   33.80
 -15   0  -9  -24.75   49.50
 -15   0   9   14.72   65.93
  15   0  -9   22.51   52.23
 -15   0   9  -11.76   56.55
  15   0   9   18.68   50.31
  15   0  -9  116.33   48.94
 -15   0 -10  -12.42   25.57
 -15   0  10  -14.84   57.86
  15   0 -10   79.43   34.61
 -15   0  10  -11.85   37.76
  15   0  10   -9.34   28.18
  15   0 -10  -16.76   23.78
 -15   0 -11  -12.46   21.19
 -15   0  11  -14.96   55.64
  15   0 -11  -11.50   30.26
 -15   0  11   23.91   39.13
  15   0  11   28.11   33.69
  15   0 -11  -25.35   22.48
  15   0 -12  -46.40   30.60
 -15   0  12   22.57   41.56
  15   0  12   -9.40   31.31
  15   0 -12   -8.52   25.74
  15   0 -13  105.76   71.70
 -15   0  13   34.17   74.73
  15   0  13    9.44   70.02
  15   0 -13   86.68   66.41
  15   0 -14  -11.86   40.63
 -15   0  14   68.97   50.70
  15   0 -14   35.01   36.22
  15   0 -15  -23.96   30.19
 -15   0  15   23.21   42.72
  15   0 -15   17.67   26.26
  15   0 -16  -12.10   29.42
 -15   0  16  -35.15   37.69
  15   0 -16   26.78   26.26
 -15   0  17  -23.67   61.57
  15   0 -17   81.15   54.14
 -15   0  18   23.87   42.97
  15   0 -18   18.22   30.64
 -15   0  19  -12.06  138.78
  15   0 -19  211.80  136.19
   0 -15  21  -27.55   51.18
   0  15 -21  -68.26   51.01
   0 -15  21   17.77   56.37
   0 -15  22  -35.99   46.17
   0 -15  22  -27.91   48.24
   0  15 -22  -28.80   42.38
   0 -15  23  -36.45   41.94
   0 -15  23   98.00   41.19
   0  15 -23   -9.72   39.41
   0 -15  24   14.17   36.35
  15   1   0   64.72   66.34
 -15  -1   0  137.62   90.56
  15  -1   0   -9.90   69.60
  15   1   0   37.96   70.39
 -15   1   0   11.86   74.45
 -15   1   0  153.19   88.89
 -15  -1   0   36.67   75.87
  15  -1   0  125.49   66.20
  15   1   1   28.31   36.28
 -15   1  -1   13.77   65.36
 -15   1   1  209.91   70.51
  15  -1  -1   20.53   41.07
  15  -1   1    9.86   41.46
  15   1  -1  -19.46   41.80
  15   1   1   47.33   43.46
 -15   1   1   11.91   51.62
 -15  -1   1   13.80   61.04
 -15   1  -1   47.24   53.23
 -15  -1   1   24.31   45.12
 -15  -1  -1   12.19   47.27
  15  -1  -1   25.22   31.62
  15  -1   1   17.63   32.64
  15   1  -1   27.82   34.08
  15   1   2    9.42   28.04
 -15   1   2   14.07   64.72
 -15   1  -2  -13.72   57.29
  15  -1  -2  -20.64   39.85
  15  -1   2    9.83   38.27
  15   1  -2   19.53   34.46
  15   1   2   47.25   38.32
 -15   1   2   12.15   49.44
 -15   1  -2   23.89   43.79
 -15  -1   2  -12.20   45.98
 -15  -1  -2   12.35   42.13
  15  -1  -2   33.81   31.63
  15  -1   2   35.13   31.28
  15   1  -2   17.97   29.00
 -15  -1   2   13.85   57.80
  15   1   3  -18.82   29.48
 -15   1   3  -56.60   60.90
  15  -1  -3  -41.52   38.44
  15  -1   3  -28.55   37.94
 -15   1   3   12.22   47.33
  15   1   3  -18.83   35.80
 -15   1  -3   54.72   61.58
 -15  -1   3   24.49   43.95
 -15   1  -3  -23.82   51.12
 -15  -1  -3   12.34   37.57
  15  -1  -3  -16.24   26.49
  15   1  -3    9.02   27.57
  15  -1   3  -27.21   25.40
  15  -1   4   -9.05   23.05
  15   1   4  -37.61   23.94
 -15   1  -4  -26.98   52.71
  15  -1  -4  -32.37   35.93
  15  -1   4   56.96   36.41
 -15   1   4  -12.30   43.55
  15   1   4   -9.41   34.51
 -15  -1   4   72.73   45.39
 -15   1  -4  -11.98   40.98
 -15  -1  -4  -12.44   34.94
  15  -1  -4   -8.17   23.43
  15   1  -4    9.06   23.84
 -15   1   4   14.24   60.07
  15  -1   5   18.47   23.68
  15   1   5   -9.40   20.33
  15   1  -5   40.78   34.13
 -15   1   5  -45.83   41.48
  15  -1   5   18.95   31.73
  15   1   5  -18.82   30.92
 -15  -1   5  -48.73   43.02
 -15  -1   5   14.31   53.84
 -15   1   5   14.34   55.13
 -15   1  -5  -11.96   38.88
  15  -1  -5  -16.45   21.77
 -15   1  -5  121.16   58.37
 -15  -1  -5   12.44   30.28
  15   1  -5   -8.61   23.46
  15  -1   6   27.67   42.95
  15   1   6    9.41   41.25
 -15   1  -6   13.45   64.89
 -15  -1   6  -57.57   64.19
  15   1  -6   84.60   51.02
 -15   1   6  -57.68   57.07
  15  -1   6   74.04   48.16
  15   1   6   -9.40   47.54
 -15  -1   6  159.25   57.11
 -15   1  -6  -12.12   46.85
  15  -1  -6   73.29   44.30
  15   1  -6   77.93   45.18
 -15  -1  -6   12.47   48.47
  15  -1   7   27.66   22.78
  15   1   7    9.42   21.14
 -15  -1   7  -57.93   59.05
 -15   1   7  -14.55   57.80
  15  -1  -7   22.23   35.50
  15   1  -7   21.28   35.41
 -15   1   7   81.36   43.45
  15  -1   7   55.50   32.89
 -15  -1   7  -62.55   47.06
  15   1   7  -37.64   32.02
  15  -1  -7   16.41   23.37
 -15   1  -7  -12.11   35.69
  15   1  -7   -8.71   22.70
 -15  -1  -7  -24.96   26.93
 -15  -1  -8   12.53   39.05
 -15  -1   8   14.58   63.24
  15  -1   8   36.87   41.03
 -15   1   8   29.33   62.79
  15  -1  -8  -33.61   45.33
  15   1  -8  -11.07   47.60
 -15   1   8  -21.93   48.96
  15  -1   8   92.49   48.53
 -15  -1   8   37.78   53.87
  15   1   8   28.29   47.47
  15  -1  -8   49.64   40.41
 -15   1  -8   24.43   46.89
  15   1  -8  114.06   44.23
 -15  -1  -9  -12.56   21.40
  15  -1   9  -27.67   18.66
 -15   1   9   14.79   53.30
  15  -1  -9  -22.70   29.00
  15   1  -9  -33.44   34.34
 -15   1   9  -33.16   39.33
 -15  -1   9   12.68   46.14
  15  -1   9    9.25   29.58
  15   1   9    9.45   28.91
 -15  -1   9  -14.69   57.86
  15  -1  -9    8.41   23.39
  15   1  -9    8.44   23.79
 -15   1  -9   12.22   33.13
  15  -1  10   -9.23   18.12
  15  -1 -10   11.45   29.83
  15   1 -10  -11.23   31.47
 -15   1  10   55.74   38.05
 -15  -1  10  -38.33   45.89
 -15  -1  10   14.80   61.59
  15  -1  10  -36.97   34.03
  15   1  10   28.62   31.98
  15  -1 -10   -8.48   24.42
  15   1 -10    8.50   22.54
 -15   1 -10  -12.26   24.64
 -15   1 -11   12.30   22.37
 -15  -1  11  -14.91   54.01
  15  -1 -11  -23.11   29.98
  15   1 -11  -11.41   31.44
 -15   1  11   45.00   37.63
 -15  -1  11  -23.83   42.33
  15  -1  11   -9.26   29.76
  15   1  11   19.15   33.15
  15  -1 -11  -34.23   23.74
  15   1 -11   -8.57   25.05
 -15  -1  12  -15.04   71.28
  15  -1 -12  -11.71   50.78
  15   1 -12   34.53   51.60
 -15   1  12  -56.65   58.48
 -15  -1  12  -36.03   59.72
  15  -1  12    9.28   52.86
  15   1  12   57.69   51.36
  15  -1 -12  103.64   50.11
  15   1 -12  112.36   49.97
 -15  -1  13   15.17   55.22
  15  -1 -13   11.82   29.40
  15   1 -13  -11.66   34.03
 -15   1  13   11.44   41.84
 -15  -1  13  -12.11   43.19
  15  -1 -13  -17.44   23.83
  15   1 -13   42.86   24.11
  15  -1 -14  -23.88   51.99
  15   1 -14   23.54   52.84
 -15   1  14  -23.10   59.03
 -15  -1  14   12.22   59.76
  15  -1 -14  140.28   50.86
  15   1 -14   43.25   49.53
  15   1 -15   11.93   28.49
 -15   1  15  -58.33   40.51
 -15  -1  15   86.35   46.01
  15  -1 -15   53.13   27.51
  15   1 -15  -26.19   28.02
  15   1 -16  -24.07   29.59
 -15  -1  16   12.45   42.17
  15  -1 -16   35.79   26.13
  15   1 -16    8.81   25.17
  15   1 -17   24.32   29.87
 -15  -1  17   11.77   43.24
  15   1 -17    8.90   29.33
 -15  -1  18   11.89   71.29
  15   1 -18   89.92   66.38
 -15  -1  19   84.04   47.32
  15   1 -19  -27.46   26.28
 -15  -1  20   36.39  127.87
  15   1 -20  166.48  124.14
  -1 -15  21  -41.43   33.40
   1 -15  21   41.27   36.70
   1  15 -21    9.78   33.73
  -1  15 -21  -38.92   39.85
  -1 -15  21  -17.81   38.05
   1 -15  22  -17.97   33.22
  -1 -15  22  -18.03   32.29
  -1 -15  22  -41.95   37.08
   1 -15  22   13.93   32.21
   1  15 -22   28.88   32.10
  -1  15 -22   -9.58   31.34
   1 -15  23   18.20   41.84
  -1 -15  23  -36.52   39.39
  -1 -15  23  -28.05   37.06
   1 -15  23   13.98   30.86
   1  15 -23   -9.74   34.43
  -1  15 -23   19.41   32.81
   1 -15  24   42.47   44.25
  -1  15 -24   19.27   42.96
  15   2   0    9.54   26.03
 -15   2   0   13.94   58.75
  15  -2   0  -10.22   33.28
 -15   2   0   12.04   49.24
  15   2   0   -9.54   35.16
 -15  -2   0  -12.49   37.27
  15  -2   0   -7.99   24.75
 -15   2   1  -42.06   93.27
  15   2  -1   47.78   79.23
  15   2   1   -9.52   78.71
 -15   2  -1  -55.48   96.76
  15  -2  -1   63.69   83.36
  15  -2   1   71.16   83.97
 -15   2   1  -12.11   86.40
  15   2  -1   95.89   83.20
  15   2   1   19.06   81.47
 -15   2  -1  -11.81   90.03
 -15  -2   1  222.14   87.19
 -15  -2  -1   12.48   86.13
  15  -2  -1  136.64   78.56
  15  -2   1  258.04   80.78
  15   2  -2   18.73   33.13
  15   2   2  -28.54   33.45
 -15   2  -2   41.42   62.38
  15  -2  -2  -42.72   41.02
  15  -2   2  -10.12   53.40
 -15   2   2 -202.92   49.43
  15   2   2  -28.56   40.69
 -15   2  -2  -11.76   60.09
 -15  -2   2   12.37   44.51
 -15   2   2  -14.11   61.24
  15  -2  -2   -8.09   30.91
 -15  -2  -2   12.57   40.40
  15  -2   2  -16.57   32.91
  15   2  -3   18.79   24.32
  15   2   3   -9.51   24.95
  15  -2  -3   10.75   33.28
 -15   2   3   11.35   41.36
 -15   2  -3  -13.75   71.94
  15   2   3  -28.50   32.25
 -15   2   3  -14.20   54.39
 -15  -2   3   37.23   39.62
  15  -2  -3    8.00   26.23
 -15  -2  -3   12.57   33.27
  15  -2   3   61.13   33.72
  15   2   4   -9.51   21.94
 -15  -2   4   84.19   56.40
  15  -2  -4  -10.91   30.87
 -15   2   4  -28.60   58.23
 -15   2   4   11.42   42.59
  15  -2   4  -38.95   39.03
  15   2  -4   39.59   34.96
  15   2   4   38.01   33.01
 -15   2  -4  -23.69   55.97
 -15  -2   4   49.42   37.95
  15  -2  -4    8.06   23.61
 -15   2  -4  -13.61   56.81
 -15  -2  -4   25.15   33.03
  15  -2   4   -8.70   24.13
  15   2  -4    9.43   22.61
  15   2   5    9.52   22.89
 -15   2  -5  -54.27   58.53
 -15   2   5   43.22   52.03
 -15  -2   5   14.26   58.53
  15  -2  -5   43.99   34.56
 -15   2   5  -32.31   38.00
  15  -2   5    9.71   36.00
  15   2  -5    9.94   34.14
  15   2   5    9.51   33.96
 -15  -2   5   62.03   41.01
 -15   2  -5  -23.63   39.57
  15  -2  -5   16.24   25.24
  15   2  -5   45.73   28.79
 -15  -2  -5  -12.61   29.90
  15  -2   5   -8.99   28.06
  15  -2   6   -8.97   23.60
 -15  -2  -6   12.63   28.08
 -15  -2   6   14.33   56.75
 -15   2   6  -14.52   54.73
 -15   2  -6  -27.07   53.26
 -15   2   6  -43.41   35.81
  15   2  -6  -41.14   34.61
  15  -2   6   -9.41   29.87
  15   2   6   67.09   34.03
 -15  -2   6   12.47   42.64
 -15   2  -6  -11.88   42.46
  15  -2  -6   16.49   20.39
  15   2  -6   27.58   25.27
  15  -2   7   18.31   27.60
 -15  -2  -7  -12.68   31.53
 -15   2   7   10.94   39.53
  15   2  -7   10.34   34.92
  15  -2   7    9.39   33.80
  15   2   7  -19.21   34.68
 -15  -2   7   61.74   45.99
 -15  -2   7   14.50   54.78
 -15   2  -7  -27.02   60.32
 -15   2  -7  -11.87   40.56
  15  -2  -7    8.31   23.86
  15   2  -7   83.19   30.85
 -15  -2  -8   12.71   21.99
 -15   2  -8   13.34   53.42
 -15  -2   8  -14.59   55.54
  15  -2  -8   45.28   32.37
 -15   2   8   22.02   40.12
  15   2  -8  -32.19   35.57
  15  -2   8   -9.38   33.66
 -15  -2   8   12.42   42.04
  15   2   8    9.63   33.05
  15  -2  -8    8.38   25.55
 -15   2  -8  -12.03   35.99
  15   2  -8   35.15   29.26
 -15  -2   9  -14.69   61.67
  15  -2  -9   57.33   32.10
 -15   2   9   33.32   40.96
  15   2  -9  -21.60   36.01
  15  -2   9    9.38   32.29
 -15  -2   9  -74.99   46.82
  15   2   9    9.66   31.65
 -15   2  -9   93.33   59.41
  15  -2  -9    8.46   25.36
  15   2  -9   26.53   25.36
 -15  -2  10  -14.79   63.18
  15  -2 -10   23.14   32.00
 -15   2  10  -67.25   44.01
  15   2 -10  -22.47   38.63
  15  -2  10  -18.34   35.88
 -15  -2  10  -37.75   45.28
  15   2  10   -9.82   34.36
 -15   2 -10  -53.31   59.44
  15   2 -10  -17.81   31.60
  15  -2 -11   23.36   51.83
  15   2 -11   11.32   57.91
  15  -2  11   -9.18   53.95
 -15  -2  11   25.73   60.39
 -15  -2  11  -29.79   74.67
  15  -2 -11  163.02   55.16
  15   2 -11   44.86   52.33
  15  -2 -12  -23.59   26.61
  15   2 -12   11.41   33.19
 -15  -2  12   15.01   57.73
 -15  -2  12   38.88   40.42
  15  -2 -12    8.66   23.62
  15   2 -12  -18.08   23.19
 -15  -2  13   15.13  176.13
  15   2 -13   23.18  169.79
 -15  -2  13   13.07  172.53
  15  -2 -13  210.03  169.48
  15   2 -13  348.23  169.82
 -15  -2  14   15.26   61.96
  15   2 -14  -11.69   33.15
 -15  -2  14   13.17   48.83
  15  -2 -14  -17.68   24.77
  15   2 -14    8.78   22.89
  15   2 -15   71.09   50.00
 -15  -2  15  -13.29   58.97
  15   2 -15   44.29   45.57
  15   2 -16  -23.92   33.43
 -15  -2  16  -24.81   46.66
  15   2 -16   17.88   21.75
  15   2 -17  -12.11   33.28
 -15  -2  17  -25.05   48.55
  15   2 -17  -18.05   29.83
  15   2 -18  -12.23   29.21
 -15  -2  18   50.57   43.08
  15   2 -18   -9.11   26.48
  15   2 -19   12.36   36.86
 -15  -2  19   12.77   52.16
  15   2 -19   36.18   36.00
  -2 -15  21   83.10   39.44
   2 -15  21  -41.22   38.13
  -2  15 -21    9.72   35.98
   2 -15  22  -17.95   33.47
  -2 -15  22  -42.06   40.76
   2 -15  22  -41.76   35.67
   2  15 -22   28.97   37.26
  -2  15 -22   -9.57   32.22
   2 -15  23   36.36   39.23
  -2 -15  23  -28.12   41.59
   2 -15  23  -13.97   38.81
   2  15 -23    9.77   40.53
  -2  15 -23  -58.16   37.73
   2 -15  24  -28.29   36.68
  -2  15 -24   57.76   40.25
  15   3   0   -9.64  156.13
  15  -3   0  148.23  158.88
 -15   3   0  -11.19  158.85
 -15   3   0   14.00  162.53
  15   3   0    9.65  157.07
  15  -3   0  617.44  159.37
 -15  -3   0  585.35  163.83
  15   3  -1   28.95   26.25
  15   3   1 -105.94   24.66
  15  -3  -1   53.71   34.14
 -15   3   1   14.09   57.71
  15  -3   1  -52.63   36.15
 -15   3   1  -33.77   38.27
 -15   3  -1   12.02   41.57
  15   3   1   76.98   33.10
 -15   3  -1  -97.41   55.92
  15  -3  -1   47.59   22.62
 -15  -3   1   63.18   36.07
  15  -3   1   -7.97   21.52
 -15  -3  -1  -12.72   28.99
  15   3  -2    9.67   51.90
  15   3   2    9.63   50.72
 -15   3   2  -14.19   67.99
  15  -3  -2   54.09   58.82
  15  -3   2   52.34   59.12
 -15   3   2   11.33   61.64
 -15   3  -2  -11.96   64.98
  15   3  -2   -9.68   58.70
  15   3   2    9.62   56.89
 -15  -3   2   50.63   60.73
  15  -3  -2   79.87   54.11
  15  -3   2  285.32   56.99
 -15  -3  -2  -25.48   57.71
 -15   3  -2   96.88   75.35
  15   3  -3   29.08   26.34
 -15   3  -3   96.38   59.83
  15   3   3   28.91   24.29
 -15   3   3   28.58   53.39
  15  -3  -3   32.69   33.63
 -15   3   3  -42.73   40.89
  15  -3   3   40.34   40.20
  15   3  -3   19.45   35.45
 -15   3  -3  -11.72   52.53
  15   3   3   -9.63   34.86
 -15  -3   3   38.06   36.98
  15  -3  -3   16.21   25.76
  15  -3   3   -8.26   26.39
 -15  -3  -3  -12.75   31.10
 -15  -3  -4   12.76   33.46
  15   3  -4    9.72   32.28
 -15   3  -4   54.83   61.76
 -15   3   4  -14.40   55.86
  15  -3  -4  -11.03   34.05
 -15   3   4   43.05   46.35
  15  -3   4  100.38   41.53
  15   3  -4  -19.51   37.26
 -15   3  -4   11.67   49.91
  15   3   4   -9.70   36.00
 -15  -3   4  -12.54   39.90
  15  -3  -4   49.01   30.21
  15  -3   4   32.87   28.88
  15   3  -5   47.68   34.97
 -15  -3  -5  -12.81   34.77
 -15  -3   5  -14.18   64.50
 -15   3  -5   13.65   58.64
  15  -3  -5   33.36   41.42
 -15   3   5   10.85   47.06
  15  -3   5   79.99   43.17
  15   3  -5   30.02   44.64
  15   3   5  -29.14   42.88
 -15   3  -5  -11.80   49.59
 -15  -3   5   75.50   45.77
  15  -3  -5   41.17   33.75
  15  -3   5   34.65   35.09
  15   3  -6    9.58   25.32
 -15  -3  -6  -12.84   22.89
 -15  -3   6  -14.24   56.66
 -15   3  -6  -68.02   52.32
  15  -3  -6   11.21   26.81
 -15   3   6  -10.92   38.22
  15  -3   6   29.89   34.29
  15   3  -6   20.10   33.33
  15   3   6   -9.73   31.98
 -15   3  -6   23.53   35.88
 -15  -3   6   25.27   36.74
  15  -3  -6  -41.52   23.57
  15  -3   6   17.27   22.83
  15  -3  -7   11.35   29.88
 -15   3   7   11.01   37.16
  15  -3   7    9.63   29.65
  15   3  -7  -50.48   33.63
 -15   3  -7   13.56   54.67
  15   3   7   -9.88   32.32
 -15  -3   7   50.35   42.61
  15  -3  -7   -8.34   22.73
  15   3  -7    9.62   26.49
 -15  -3   8  -72.70   56.57
  15  -3   8   48.05   34.13
  15   3  -8  -10.45   32.95
 -15  -3   8   12.65   40.77
  15  -3  -8   16.83   27.35
 -15   3  -8  -13.44   58.10
  15   3  -8   37.35   26.59
 -15   3  -9  -13.41   52.83
  15  -3  -9  -11.56   26.38
  15   3  -9  -10.51   31.95
  15  -3   9   19.18   31.15
 -15  -3   9   14.72   55.53
 -15  -3   9  101.78   45.48
  15  -3  -9  -16.99   23.81
  15   3  -9    9.39   22.83
 -15  -3  10  -14.82   64.55
  15  -3 -10   23.35   38.09
  15   3 -10   32.72   40.92
  15  -3  10   38.32   38.94
 -15  -3  10   25.60   49.43
  15  -3 -10   25.73   35.14
  15   3 -10   28.35   37.15
 -15  -3  11   14.92   60.82
  15   3 -11  -10.98   33.23
 -15  -3  11   12.69   46.31
  15  -3 -11   -8.83   23.01
  15   3 -11   -9.51   24.68
  15   3 -12   91.38  205.72
 -15  -3  12  166.15  207.64
  15   3 -12  362.08  205.19
 -15  -3  12   15.02  211.79
  15   3 -13  -11.51   37.24
 -15  -3  13  -51.49   51.58
 -15  -3  13  -45.40   69.35
  15   3 -13    9.12   26.55
  15   3 -14  -11.69   83.65
 -15  -3  14  -91.51   95.87
 -15  -3  14  142.72   88.47
  15   3 -14  128.71   79.16
 -15  -3  15  -30.75   52.96
  15   3 -15   11.79   32.20
 -15  -3  15  -13.08   44.68
  15   3 -15    9.27   21.93
 -15  -3  16   15.51   61.22
  15   3 -16  -11.95   38.63
 -15  -3  16  -40.16   51.90
  15   3 -16   56.11   32.67
  15   3 -17   48.21   47.80
 -15  -3  17   54.03   62.45
  15   3 -17   28.30   43.37
  15   3 -18  -12.21   33.66
 -15  -3  18   27.25   47.61
  15   3 -18  -27.28   29.49
   3 -15  21   13.73   36.47
  -3  15 -21  -38.83   41.08
  -3 -15  22  -18.14   35.97
  -3 -15  22   28.14   40.90
   3 -15  22   55.16   36.99
   3  15 -22  -38.76   33.08
  -3  15 -22  -38.25   32.36
   3 -15  22   17.95   32.61
   3 -15  23  -18.18   36.59
  -3 -15  23   14.10   33.24
   3 -15  23   41.91   37.05
   3  15 -23   -9.80   35.36
  -3  15 -23   -9.69   33.20
   3 -15  24   18.41   44.98
  -3  15 -24  -48.11   32.18
  15   4   0   -9.76   46.28
 -15   4   0   14.10   67.30
  15  -4   0   42.96   53.97
 -15   4   0   10.54   56.12
  15  -4   0  111.02   48.13
 -15  -4   0   25.81   51.31
 -15  -4  -1  425.92  146.96
  15   4  -1   -9.77  142.43
  15   4   1  -19.53  142.29
 -15   4   1   28.39  149.66
 -15   4  -1  -56.00  149.01
  15  -4  -1  108.63  144.48
  15  -4   1  -10.67  144.43
 -15   4   1  -10.61  146.20
 -15   4  -1  -11.19  146.61
  15   4  -1    9.76  144.11
  15   4   1  -29.44  144.29
  15  -4  -1  603.44  146.44
  15  -4   1  763.86  147.18
 -15  -4   1  476.97  148.96
 -15  -4  -2  -12.92   30.03
  15   4  -2    9.78   28.69
 -15   4  -2   13.91   54.72
  15  -4  -2  -21.89   32.35
  15  -4   2  -21.20   37.17
 -15   4   2  -10.69   41.39
 -15   4  -2  -44.47   41.49
  15   4  -2   -9.79   35.33
  15   4   2  -19.64   35.70
  15  -4  -2  113.49   32.76
  15  -4   2   71.65   30.44
 -15  -4   2   38.70   40.47
 -15  -4  -3  -12.96   48.48
  15   4  -3   -9.80   45.68
  15  -4  -3   55.17   51.91
 -15   4   3  -10.75   53.27
  15  -4   3  105.36   54.56
 -15   4  -3  -96.82   69.22
 -15   4  -3   11.95   61.24
  15   4  -3   -9.81   52.32
  15   4   3   19.67   50.19
  15  -4  -3   49.03   47.11
 -15  -4   3   25.84   52.62
  15  -4   3  197.88   49.48
  15   4  -4   -9.82   34.92
 -15  -4  -4   12.98   39.10
  15  -4  -4  -11.17   40.85
 -15   4   4  -10.84   47.87
  15  -4   4   20.79   44.39
 -15   4  -4  -11.88   52.26
  15   4  -4   39.31   43.74
  15   4   4    9.97   43.85
 -15   4  -4  151.31   64.56
  15  -4  -4   73.83   38.44
 -15  -4   4   25.68   47.01
  15  -4   4   90.66   37.20
  15   4  -5   39.38   25.81
  15  -4  -5  -45.05   29.04
  15  -4   5  -20.69   31.93
  15   4  -5   29.64   32.90
 -15   4  -5  -46.61   43.91
 -15   4  -5   54.75   58.78
  15  -4  -5  -24.82   25.35
 -15  -4   5  -12.87   37.72
  15  -4   5  -24.60   24.30
  15   4  -6   49.39   46.18
  15  -4  -6   11.36   47.66
  15  -4   6  -10.30   50.87
  15   4  -6   79.30   53.70
 -15   4  -6  -11.60   56.42
  15  -4  -6   58.43   48.72
 -15  -4   6  154.98   58.62
 -15  -4   6   14.34   77.78
 -15   4  -6   27.25   64.20
  15   4  -7    9.92   26.09
 -15   4  -7  -67.86   52.89
 -15  -4   7  -14.40   60.57
  15  -4  -7  -11.47   25.99
  15  -4   7  -10.26   33.87
  15   4  -7   30.52   33.92
  15  -4  -7    8.59   23.47
 -15  -4   7   63.89   38.53
  15   4  -8    9.74   28.78
 -15   4  -8   13.52   57.77
  15  -4   8   59.37   38.54
  15   4  -8   71.51   41.42
 -15  -4   8  -38.50   39.30
  15  -4  -8    8.67   30.24
 -15  -4   8   14.46   61.76
  15   4  -9   -9.78   25.24
 -15  -4   9  -29.40   61.94
  15   4  -9   31.71   36.07
 -15  -4   9   51.59   41.67
  15   4 -10   19.68   27.57
  15   4 -10  -21.25   36.08
 -15  -4  10   38.89   40.14
 -15  -4  10   14.78   63.28
 -15  -4  11   14.97  110.40
  15   4 -11  -10.69   95.33
 -15  -4  11  181.03  101.35
  15   4 -11  178.13   94.82
  15   4 -12   33.29   41.71
 -15  -4  12  -39.04   43.70
  15   4 -12   19.23   27.08
 -15  -4  13  -15.17  200.54
  15   4 -13   67.04  193.23
 -15  -4  13  235.74  196.39
  15   4 -13  329.18  191.77
  15   4 -14   58.13   63.98
 -15  -4  14   52.78   68.08
 -15  -4  14  -15.27   81.94
  15   4 -14   68.25   57.85
  15   4 -15  -23.43   98.64
 -15  -4  15   15.39  110.42
 -15  -4  15  146.19  104.00
  15   4 -15  186.67   98.09
 -15  -4  16  -15.52   70.72
  15   4 -16   11.90   51.56
 -15  -4  16   26.40   56.73
  15   4 -16   69.33   45.47
 -15  -4  17   15.64   58.90
  15   4 -17   12.01   39.84
 -15  -4  17  -26.61   46.92
  15   4 -17   39.95   30.29
   4 -15  21  -27.48   41.11
  -4  15 -21  -18.87   39.31
  -4 -15  22  -28.24   36.77
   4 -15  22   27.59   29.81
   4  15 -22   -9.73   33.52
  -4  15 -22    9.56   32.95
  -4 -15  22   18.21   37.48
   4 -15  23   18.19   45.61
  -4 -15  23   28.31   46.02
   4 -15  23  -13.98   49.21
  -4  15 -23   85.55   50.89
   4 -15  24   56.47   34.65
  -4  15 -24  -28.88   31.94
 -15  -5   0  275.30  183.96
  15  -5   0  141.46  183.72
 -15   5   0  -31.91  183.54
  15   5   0  -39.85  182.50
  15  -5   0  539.96  184.22
 -15  -5   1   26.17   87.40
 -15  -5  -1   52.48   84.05
  15  -5  -1   66.04   84.51
  15  -5   1   43.20   85.50
 -15   5   1   10.70   88.17
 -15   5  -1  -52.80   86.90
  15   5  -1   -9.96   86.14
  15  -5  -1  162.43   84.58
  15  -5   1  264.01   85.63
 -15  -5  -2   13.14   76.31
  15   5  -2   29.73   74.50
  15  -5  -2  -11.10   76.48
  15  -5   2  -10.72   77.57
 -15   5   2  -10.78   80.43
 -15   5  -2   31.46   81.69
  15   5  -2    9.90   79.08
  15   5   2  -40.41   78.15
  15  -5  -2  244.57   77.95
  15  -5   2  283.79   78.05
 -15  -5   2   78.52   79.75
  15   5  -3    9.92   93.18
 -15   5  -3   13.94  104.17
  15  -5  -3   11.19   96.18
  15  -5   3   53.26   96.73
 -15   5  -3  -11.13   99.07
  15   5  -3   -9.91   96.24
  15  -5  -3  312.41   96.54
  15  -5   3  180.11   95.60
 -15  -5   3  183.38   99.54
  15   5  -4   -9.94   26.94
 -15   5  -4   13.85   54.05
  15  -5  -4   11.29   31.90
  15  -5   4   63.23   38.39
 -15   5  -4  -11.06   42.34
  15   5  -4   19.90   36.50
  15  -5  -4   41.47   31.33
  15  -5   4   31.66   29.34
 -15  -5   4   13.10   36.73
  15   5  -5    9.96  105.95
 -15   5  -5   68.83  114.39
  15  -5   5   20.95  108.56
 -15   5  -5  -11.89  113.38
  15   5  -5  -39.87  108.79
  15  -5  -5  315.68  109.52
  15  -5   5  259.61  108.14
 -15  -5   5  157.45  111.52
  15   5  -6   -9.98   33.51
 -15   5  -6  -13.69   56.95
  15  -5   6   10.42   38.11
  15   5  -6    9.99   38.23
 -15   5  -6  -11.83   51.08
  15  -5  -6   25.83   32.56
 -15  -5   6   13.15   41.89
  15  -5   6   90.12   34.13
  15   5  -7  -10.01   32.65
 -15   5  -7   13.62   55.51
  15  -5   7   31.10   39.18
  15   5  -7   20.10   38.67
 -15  -5   7  104.68   42.02
  15   5  -8   80.40   40.73
 -15  -5   8  -14.58   66.54
  15   5  -8  -10.09   46.45
 -15  -5   8   13.13   46.41
  15   5  -9   20.18   23.18
 -15  -5   9  -14.64   64.52
  15   5  -9  -31.06   33.63
 -15  -5   9   13.18   36.85
  15   5 -10   10.14   26.02
  15   5 -10  -41.61   34.51
 -15  -5  10   14.88   60.58
 -15  -5  10   13.24   37.36
  15   5 -11   10.19   35.19
 -15  -5  11  -14.96   70.02
  15   5 -11   10.76   41.91
 -15  -5  11  118.07   51.63
  15   5 -12   60.10   49.99
  15   5 -12   10.82   53.40
 -15  -5  12  -15.14   80.06
 -15  -5  12  105.53   66.31
  15   5 -13   50.40   32.83
 -15  -5  13  -30.47   61.37
  15   5 -13  -11.23   42.66
 -15  -5  13   26.54   45.90
  15   5 -14  121.75   69.50
 -15  -5  14  -15.34   93.88
  15   5 -14  -11.31   73.64
 -15  -5  14  106.84   77.49
  15   5 -15   20.43   36.60
  15   5 -15   11.76   44.56
 -15  -5  15   80.68   51.08
 -15  -5  15   15.44   65.38
  15   5 -16  -23.70   39.84
 -15  -5  16   46.66   64.66
 -15  -5  16  -53.73   48.68
  15   5 -16   10.29   25.04
   5 -15  21   54.99   38.00
  -5  15 -21   -9.44   35.99
  -5 -15  22   14.18   36.08
   5 -15  22  -13.81   35.15
   5  15 -22  -29.33   33.74
  -5  15 -22   47.83   34.74
   5 -15  23  -27.98   38.77
  -5  15 -23  -19.02   37.19
   5 -15  23  -18.21   39.35
   5 -15  24  -36.89   38.36
   5 -15  24   14.14   36.31
  -5  15 -24   28.89   36.80
  15  -6   0  243.09  154.78
 -15   6   0  -10.74  156.78
  15   6   0   10.25  154.50
  15  -6   0  300.30  154.29
 -15  -6   1   26.62   91.49
  15  -6  -1   89.13   94.43
  15  -6   1   32.88   93.31
 -15   6  -1  -10.66   96.75
  15   6  -1   40.49   95.00
  15  -6  -1  188.23   93.42
  15  -6   1  145.56   93.17
 -15  -6   2  133.04   99.95
  15  -6   2   10.87   98.13
 -15   6  -2  -31.80  103.16
  15   6  -2  111.29  101.91
  15  -6  -2  156.84  100.01
  15  -6   2  152.45   99.05
 -15  -6   3  -26.61   26.91
  15  -6   3   32.38   29.99
 -15   6  -3  -10.52   38.56
  15   6  -3   10.12   32.77
  15  -6  -3   25.47   23.70
  15  -6   3  -15.81   22.12
 -15  -6   4  252.58  227.88
  15  -6   4  139.34  227.01
 -15   6  -4   89.33  228.41
  15   6  -4   10.07  226.39
  15  -6   4  565.04  227.33
  15   6  -5   20.18   27.37
  15  -6   5   10.60   33.78
 -15   6  -5   77.66   45.19
  15   6  -5   50.40   38.72
  15  -6   5    7.93   29.27
 -15  -6   5  -13.31   34.51
  15   6  -6  -20.22   62.21
  15  -6   6   63.23   67.75
 -15   6  -6   11.91   71.17
  15   6  -6  -20.24   67.71
  15  -6   6  260.00   67.61
 -15  -6   6   79.98   68.78
  15   6  -7  -10.13   21.67
  15   6  -7  -10.14   35.70
 -15  -6   7   80.06   32.17
  15   6  -8   10.16   24.41
  15   6  -8  -20.40   35.47
 -15  -6   8   80.29   38.51
  15   6  -9   10.20   19.47
  15   6  -9   20.47   33.33
 -15  -6   9  -13.42   34.82
  15   6 -10   10.24   30.59
 -15  -6  10  -29.68   70.88
  15   6 -10  -21.01   41.55
  15   6 -11  -10.28   27.92
  15   6 -11   10.55   36.51
 -15  -6  11  -40.26   38.65
 -15  -6  11  -14.91   68.44
  15   6 -12  -10.33   25.98
 -15  -6  12   15.15   57.55
  15   6 -12  -43.65   34.60
 -15  -6  12   40.45   41.43
  15   6 -13   10.39   28.96
  15   6 -13   10.97   39.47
 -15  -6  13   67.78   44.35
 -15  -6  13   15.24   67.83
  15   6 -14  -10.45   22.81
 -15  -6  14  -15.43   63.07
  15   6 -14  -22.77   38.14
 -15  -6  14   27.26   41.30
  15   6 -15   10.52   28.96
 -15  -6  15   15.52   61.42
  15   6 -15  -11.46   39.34
 -15  -6  15   68.57   44.14
   6 -15  21   13.64   30.43
  -6  15 -21  -18.89   30.76
  -6 -15  22   28.23   35.87
   6 -15  22   82.96   40.57
   6  15 -22   -9.83   35.40
  -6  15 -22  -18.79   38.94
   6 -15  23  -13.98   40.17
  -6  15 -23   57.14   40.87
  -6  15 -24   -9.64   44.29
   6 -15  24  -56.65   43.82
  15  -7   0   -8.23   22.10
  15  -7  -1  135.39  174.66
  15  -7   1  236.60  175.01
 -15   7  -2   21.44   42.71
  15  -7   2   16.18   27.99
 -15   7  -3   42.55  150.09
  15   7  -3  -10.29  148.33
  15  -7   3  322.40  148.43
 -15  -7   4   27.04   36.89
  15  -7   4  -21.69   36.03
 -15   7  -4   10.58   46.00
  15   7  -4   10.29   41.78
  15  -7   4   72.00   36.10
 -15  -7   5  189.38   96.41
  15  -7   5   53.80   93.56
 -15   7  -5  -31.50   98.23
  15   7  -5  -10.23   95.18
  15  -7   5  260.02   95.64
 -15  -7   6  108.31   65.54
  15   7  -6   30.74   66.40
 -15  -7   7  203.12   68.92
  15   7  -7  -10.29   64.98
 -15  -7   8   94.98   45.87
  15   7  -8  -10.31   44.91
  15   7  -9   10.33   23.31
  15   7  -9  -41.35   33.30
  15   7 -10   10.36   23.43
  15   7 -10  -31.19   35.17
 -15  -7  10  -13.64   33.09
  15   7 -11  -10.40   29.52
  15   7 -11   31.31   38.08
 -15  -7  11   15.06   68.91
 -15  -7  11   82.07   39.71
  15   7 -12   31.32   31.86
 -15  -7  12   15.13   67.57
  15   7 -12   21.43   43.75
 -15  -7  12   13.73   38.78
  15   7 -13   10.49   24.39
 -15  -7  13   30.75   67.95
  15   7 -13   32.29   38.07
 -15  -7  13  -13.79   37.17
 -15  -7  14  -46.34   64.46
  15   7 -14   10.54   22.74
 -15  -7  14   13.86   32.84
  15  -8   2  114.99  111.24
  15  -8   3   40.72   44.77
  15  -8   4  137.91  133.43
  15   8  -5   52.36   60.13
  15   8  -6  -20.96   39.31
 -15  -8   7  192.73   65.94
  15   8  -7  -20.85   62.92
 -15  -8   8   41.35   33.24
  15   8  -8   10.44   38.12
 -15  -8   9   82.87   43.00
  15   8  -9   10.49   44.79
 -15  -8  10   69.24   32.93
  15   8 -10  -21.03   36.82
 -15  -8  11   27.77   27.90
  15   8 -11  -10.57   33.73
 -15  -8  12  -13.91   33.57
 -15  -8  12  -30.60   63.18
  15   8 -12  -10.61   36.77
 -15  -8  13  -13.96   29.01
 -15  -8  13   15.36   64.44
  15   9  -8   10.62   33.85
  15   9  -9  -21.26   40.77
  15   9 -10  -32.03   46.14
  15   9 -11   10.70   35.17
  15  10 -10  -32.50   44.67
 -16   0   0  219.43   98.39
  16   0   0  136.28   84.91
 -16   0   0   12.73   88.78
  16   0   0   48.51   79.95
  16   0   1   -9.67   23.52
 -16   0   1   14.68   57.21
  16   0  -1   10.52   35.51
  16   0   1  -10.15   35.22
 -16   0  -1  -29.17   52.77
 -16   0   1   12.77   39.79
 -16   0  -1  -12.80   39.01
  16   0  -1    9.40   19.79
  16   0   2    9.65   32.46
 -16   0  -2  -28.77   64.14
  16   0  -2   21.12   41.27
  16   0   2  131.71   46.23
 -16   0   2   25.64   52.64
 -16   0   2  -14.83   65.15
 -16   0  -2   12.77   44.70
  16   0  -2   18.87   34.69
  16   0   3  -19.71   23.10
 -16   0  -3  -28.72   56.17
 -16   0   3   14.90   58.26
  16   0  -3   32.82   37.55
  16   0   3   10.11   31.84
 -16   0   3  -12.68   41.46
 -16   0  -3  -12.75   37.80
  16   0  -3   -9.48   24.29
  16   0   4   -9.85   26.07
 -16   0   4   14.97   56.34
 -16   0  -4   43.02   59.70
  16   0  -4   21.99   34.32
  16   0   4   39.52   32.16
 -16   0   4  -12.74   41.45
 -16   0  -4  -12.92   35.67
  16   0  -4  -18.00   24.55
  16   0   5   -9.84   24.60
  16   0   5   59.23   37.57
 -16   0   5   12.81   43.39
 -16   0  -5  -12.91   37.69
  16   0  -5   -9.05   25.54
  16   0   6   -9.84   21.91
  16   0  -6  -11.48   33.41
  16   0   6   39.47   33.16
 -16   0   6  -26.14   43.24
 -16   0  -6   13.02   33.23
  16   0  -6   45.50   26.37
 -16   0   6 -105.96   66.21
  16   0   7  -29.51   37.22
  16   0  -7  -23.10   48.36
 -16   0   7  -13.15   55.69
  16   0   7 -177.68   46.58
 -16   0   7   15.23   64.83
  16   0  -7   34.98   37.51
 -16   0  -7   13.03   41.64
  16   0   8    9.85   30.87
  16   0  -8  -11.72   36.84
 -16   0   8   15.33   62.62
 -16   0   8   26.47   48.95
  16   0   8   39.42   38.29
  16   0  -8   26.40   33.70
 -16   0  -8   52.23   34.00
 -16   0  -9   13.08   25.81
 -16   0   9  -15.43   62.35
  16   0  -9   23.61   34.53
 -16   0   9   24.66   40.25
  16   0   9   88.85   35.36
  16   0  -9  -35.45   25.09
 -16   0 -10  -13.13   28.41
 -16   0  10  -15.54   60.28
  16   0 -10   11.89   35.35
 -16   0  10  -12.42   41.36
  16   0  10   -9.89   34.20
  16   0 -10   44.63   26.86
 -16   0 -11  -13.16   25.85
 -16   0  11  -15.66   57.87
  16   0 -11   48.12   39.21
 -16   0  11  100.06   57.13
  16   0  11   29.75   36.53
  16   0 -11   -8.84   26.85
  16   0 -12   24.25  106.18
 -16   0  12   12.60  109.82
  16   0  12   29.78  107.13
  16   0 -12  258.38  107.43
  16   0 -13   12.27   31.72
 -16   0  13  -50.83   48.36
  16   0 -13   17.97   23.43
  16   0 -14  -24.75   88.83
 -16   0  14  -11.99   92.83
  16   0 -14  190.25   87.47
  16   0 -15  -12.48   31.59
 -16   0  15   12.09   43.68
  16   0 -15  -27.41   30.18
  16   0 -16   12.59   38.03
 -16   0  16  -12.20   49.72
  16   0 -16   55.73   38.09
 -16   0  17  -12.30   42.39
  16   0 -17    9.37   26.69
 -16   0  18  -12.42   47.84
  16   0 -18    9.46   26.25
  16   0 -19  -19.10   29.32
  16   1   0    9.75   32.32
 -16   1   0   29.41   66.63
  16  -1   0  -53.93   39.71
  16   1   0  -92.09   40.48
 -16  -1   0  -14.52   57.96
 -16   1   0   12.52   45.94
 -16  -1   0   12.89   43.14
  16  -1   0  -28.04   33.24
  16   1  -1  -19.55   52.77
  16   1   1   29.86   52.38
 -16  -1   1  -14.56   77.18
 -16  -1  -1   14.49   75.50
 -16   1   1   14.76   74.25
  16  -1  -1  205.82   62.13
  16  -1   1   62.52   61.49
  16   1  -1   41.04   58.31
  16   1   1   19.98   56.29
 -16   1   1  -37.71   64.81
 -16   1  -1  -25.33   62.66
 -16  -1   1   12.92   62.95
 -16   1  -1  205.12   80.65
 -16  -1  -1   12.87   64.74
  16  -1  -1  115.30   55.50
  16  -1   1  139.68   55.65
  16   1   2    9.94   25.37
 -16   1  -2   58.02   61.38
 -16   1   2  -29.66   61.23
 -16  -1   2  -14.77   58.67
  16  -1  -2  -54.41   36.82
  16  -1   2   41.55   36.21
  16   1  -2   30.88   36.20
  16   1   2    9.97   35.74
 -16   1   2  -25.25   42.38
 -16   1  -2  -12.63   41.18
 -16  -1   2  -12.85   41.05
 -16  -1  -2   13.03   39.38
  16  -1  -2   26.73   26.15
  16  -1   2   28.85   25.81
  16   1  -2   19.61   25.08
  16  -1   3   -9.59   28.33
 -16   1   3  -14.91   59.75
  16   1   3   -9.93   28.31
 -16  -1   3  -14.83   62.86
 -16   1  -3  -28.94   58.49
  16  -1  -3   56.49   38.81
  16  -1   3   62.15   39.13
  16   1   3   59.77   37.31
 -16   1   3  -12.88   47.64
 -16  -1   3  -12.90   42.66
 -16   1  -3  -12.70   43.68
 -16  -1  -3  -13.02   36.73
  16  -1  -3   26.86   29.71
  16   1  -3   47.51   28.82
  16  -1   4   38.28   27.05
  16   1   4   49.61   24.82
  16  -1  -4  -11.36   35.01
 -16   1  -4  -14.44   55.99
  16  -1   4  -10.04   34.40
 -16   1   4  -25.89   45.50
  16   1   4  -29.80   35.82
 -16  -1   4   51.81   44.35
 -16   1  -4   12.67   38.01
 -16   1   4   29.98   66.47
 -16  -1  -4  -13.12   35.93
  16  -1  -4   17.20   24.20
  16   1  -4  -19.09   27.33
  16  -1   5   -9.78   25.01
  16   1   5   -9.92   24.12
 -16   1  -5   14.25   56.70
  16  -1  -5  -11.43   35.61
 -16  -1   5   15.06   59.52
  16   1  -5   55.33   36.66
  16  -1   5   20.06   33.54
 -16   1   5  -13.02   45.16
  16   1   5    9.93   31.94
 -16  -1   5   12.82   41.64
 -16   1   5   30.15   57.54
 -16   1  -5  -12.84   36.84
  16  -1  -5   -8.65   22.13
 -16  -1  -5  -13.12   31.33
  16   1  -5   -9.59   24.52
  16  -1   6  -19.53   25.42
  16   1   6   19.85   20.45
 -16  -1   6  -15.14   61.04
  16   1  -6   22.24   33.54
 -16   1   6  -12.12   43.87
  16  -1   6  -30.05   32.25
 -16   1  -6  -42.70   57.40
  16   1   6    9.94   32.64
 -16  -1   6  -25.76   41.45
 -16   1  -6   12.83   42.11
  16  -1  -6   -8.71   21.21
  16   1  -6   36.42   25.14
 -16  -1  -6   26.31   30.25
 -16  -1  -7  -13.17   30.25
  16  -1   7    9.76   22.78
  16   1   7    9.94   19.76
 -16  -1   7  -15.22   60.04
 -16   1   7  -45.81   56.01
  16  -1  -7   11.67   31.38
 -16   1  -7   56.91   56.55
  16   1  -7  -11.18   36.10
 -16   1   7  -24.40   39.69
  16  -1   7   10.01   35.25
  16   1   7   -9.95   30.58
 -16  -1   7   12.95   44.53
  16  -1  -7   34.46   28.90
 -16   1  -7  -12.82   31.75
  16   1  -7   18.31   24.18
 -16   1  -8  -42.67   60.80
 -16  -1  -8  -13.21   25.73
  16  -1   8  -19.52   22.16
 -16   1   8  -15.38   60.03
  16  -1  -8   58.76   36.12
  16   1  -8   23.24   36.54
 -16   1   8  -36.85   47.03
  16  -1   8   -9.80   33.49
 -16  -1   8   52.11   43.18
  16   1   8  -29.84   36.04
  16  -1  -8   34.70   26.99
 -16   1  -8  -12.93   34.18
  16   1  -8   64.48   27.12
 -16  -1   8  -30.62   60.18
 -16  -1  -9   13.25   21.95
  16  -1   9   -9.77   19.49
 -16   1   9 -154.89   55.00
  16  -1  -9  -11.89   30.05
  16   1  -9   11.69   35.76
 -16   1   9   61.87   38.63
  16  -1   9  -19.60   33.35
 -16  -1   9  -26.61   44.92
  16   1   9   -9.97   34.21
 -16  -1   9  -15.41   61.60
  16  -1  -9    8.74   25.49
  16   1  -9   -9.27   23.73
 -16   1  -9  -12.94   30.36
  16  -1  10  -19.56   23.47
  16  -1 -10   11.98   32.51
  16   1 -10  -59.36   40.78
 -16   1  10   58.34   41.53
 -16  -1  10  -15.51   71.87
  16  -1  10    9.81   32.27
 -16  -1  10   13.39   48.56
  16   1  10   -9.99   33.15
  16  -1 -10  -17.61   25.99
  16   1 -10  -17.82   27.82
 -16   1 -10  -12.98   31.23
 -16   1 -11  -13.02   76.90
 -16  -1  11  -15.62   98.73
  16  -1 -11   60.39   79.48
  16   1 -11   71.73   82.69
 -16   1  11   58.79   85.85
 -16  -1  11   53.94   85.91
  16  -1  11   58.96   81.08
  16   1  11   60.16   79.83
  16  -1 -11  133.13   78.53
  16   1 -11  125.67   78.66
 -16  -1  12   15.73   58.49
  16  -1 -12  -12.23   35.26
  16   1 -12   60.22   38.99
 -16   1  12  -11.85   45.84
 -16  -1  12   54.32   51.83
  16   1  12   30.38   37.74
  16  -1 -12   27.05   27.67
  16   1 -12   -9.04   30.12
 -16  -1  13   15.86   97.38
  16  -1 -13   12.33   82.88
  16   1 -13  -24.39   84.83
 -16   1  13   47.81   90.75
 -16  -1  13  -13.68   89.94
  16  -1 -13  200.07   84.57
  16   1 -13  164.05   85.42
  16  -1 -14  -12.44   34.88
  16   1 -14   12.29   33.11
 -16   1  14   24.11   43.46
 -16  -1  14  -12.76   46.16
  16  -1 -14   27.52   28.16
  16   1 -14   18.38   28.82
  16   1 -15   24.87   79.12
 -16   1  15  -48.64   87.34
 -16  -1  15  -38.60   84.61
  16  -1 -15  185.09   80.82
  16   1 -15  118.37   79.18
  16   1 -16   25.09   33.64
 -16   1  16  -61.22   49.18
 -16  -1  16  -38.93   50.09
  16  -1 -16   -9.34   28.06
  16   1 -16  -18.37   29.29
  16   1 -17  -12.66   28.36
 -16  -1  17   39.26   46.44
  16   1 -17    9.26   24.20
 -16  -1  18  118.81   54.77
  16   1 -18   -9.35   26.50
 -16  -1  19  -13.32   61.32
  16   1 -19   66.04   50.99
 -16  -1  20  -13.45   51.46
  16   1 -20  -28.57   35.73
  16   2   0   10.05   68.80
 -16   2   0  -14.72   83.47
  16  -2   0   44.58   74.39
  16   2   0  -30.24   73.06
 -16   2   0  -12.53   77.10
 -16  -2   0   13.16   80.33
  16   2  -1   30.20   25.41
  16   2   1  -10.03   22.20
 -16   2  -1  -43.97   64.76
  16  -2  -1   44.79   35.86
  16  -2   1   10.74   34.48
  16   2  -1  -20.20   36.59
  16   2   1  -10.07   35.28
 -16   2   1  -12.78   41.49
 -16   2  -1   37.42   45.88
 -16  -2   1  -14.64   56.87
 -16  -2   1   13.19   36.28
 -16  -2  -1  -13.15   36.18
 -16   2   1  -29.58   56.24
  16  -2  -1   26.63   26.77
  16  -2   1   35.18   26.86
  16   2  -2   30.27   64.66
  16   2   2  -10.02   63.94
 -16   2  -2   29.20   85.37
  16  -2  -2   90.06   70.95
  16  -2   2  -10.70   71.20
 -16   2   2   12.84   73.37
  16   2   2   50.16   69.06
 -16   2  -2  -87.00   75.48
 -16   2   2  -14.87   80.85
 -16  -2   2  286.60   76.58
 -16  -2  -2   13.24   72.10
  16  -2  -2  281.21   68.57
  16  -2   2  101.98   67.59
  16   2  -3   29.67   24.25
  16   2   3   10.02   19.78
 -16   2  -3   14.55   56.80
  16  -2  -3   67.93   38.35
  16  -2   3   10.66   36.47
 -16   2   3  -11.95   42.63
 -16   2   3  -59.81   62.66
  16   2   3  -20.06   32.74
 -16   2  -3  -37.72   47.03
 -16  -2   3   13.07   35.66
  16  -2  -3    8.57   22.84
 -16  -2  -3   13.25   31.19
  16  -2   3  -18.48   19.24
  16   2  -4    9.93   21.44
  16   2   4   10.02   17.88
 -16   2   4  -15.04   57.42
  16  -2  -4  -57.41   33.40
  16  -2   4  -20.61   35.14
 -16   2   4   48.07   42.07
 -16  -2   4   14.94   56.19
  16   2  -4  -10.42   30.68
  16   2   4   30.10   33.59
 -16   2  -4   43.51   63.58
 -16   2  -4  -37.62   37.36
 -16  -2   4  -26.22   39.98
  16  -2  -4    8.62   23.48
 -16  -2  -4  -13.27   27.30
  16  -2   4   19.08   24.84
  16  -2   5   28.55   24.83
  16   2   5  -20.06   21.67
 -16  -2   5  -15.00   62.21
 -16   2   5   15.14   57.14
  16  -2  -5  -23.11   29.00
 -16   2   5   12.09   43.67
  16  -2   5  -20.56   31.71
  16   2  -5  -10.77   34.96
  16   2   5   60.11   38.27
 -16  -2   5  -13.05   37.75
 -16   2  -5  -12.62   38.32
  16  -2  -5   34.12   22.36
 -16   2  -5  -14.37   55.06
  16   2  -5    9.96   23.84
 -16  -2  -5  -13.28   30.28
  16  -2   6   38.88   28.72
 -16  -2  -6   13.30   31.16
 -16   2  -6  -57.38   61.93
 -16   2   6  -45.72   55.05
  16  -2  -6   23.27   34.04
 -16   2   6  -12.17   44.04
  16   2  -6   10.81   34.98
  16  -2   6   71.84   38.71
  16   2   6   10.03   35.35
 -16  -2   6   13.11   46.32
 -16   2  -6   12.59   39.49
  16  -2  -6    8.59   26.18
 -16  -2   6   15.06   63.77
  16   2  -6    9.66   28.60
  16  -2   7  -19.41   38.82
 -16  -2  -7  -13.34   37.38
 -16   2  -7   42.98   65.85
 -16   2   7   45.89   50.37
 -16  -2   7   76.20   71.33
  16   2  -7   10.87   43.79
  16  -2   7   10.25   44.99
  16   2   7   30.15   44.01
 -16  -2   7   26.34   49.07
 -16   2  -7   51.04   49.86
  16  -2  -7   69.21   40.16
  16   2  -7   67.98   39.34
  16  -2   8   -9.70   22.01
 -16  -2  -8  -13.38   20.14
 -16  -2   8   15.32   68.09
  16  -2  -8  -11.86   31.27
 -16   2   8  -11.56   39.38
  16   2  -8   11.27   34.36
  16  -2   8  -49.75   34.31
 -16   2  -8   14.31   55.26
  16   2   8  -20.27   33.35
 -16  -2   8  -13.04   40.54
  16  -2  -8  -17.56   21.23
 -16   2  -8   25.51   36.50
  16   2  -8   58.58   31.52
 -16   2  -9  -99.01   60.73
  16  -2   9    9.69   20.26
 -16  -2   9   15.41   64.23
  16  -2  -9  -12.00   31.88
 -16   2   9  -58.23   41.61
  16   2  -9   11.33   35.13
  16  -2   9   -9.94   32.52
  16   2   9   10.16   32.90
 -16  -2   9  -13.12   42.35
  16  -2  -9   17.70   22.94
 -16   2  -9   64.27   33.09
  16   2  -9   19.64   26.57
  16  -2  10   19.40   24.63
 -16   2 -10  141.44   63.83
  16  -2 -10  -24.19   31.99
 -16   2  10  -11.74   43.98
  16   2 -10  -47.13   43.80
  16  -2  10  -29.84   36.58
 -16  -2  10   13.19   47.79
  16   2  10  -10.20   36.78
  16  -2 -10   44.61   30.20
 -16   2 -10   25.72   37.10
  16   2 -10   56.02   27.90
 -16  -2  10   15.51   77.63
  16  -2 -11   48.79   31.71
 -16   2  11   11.81   42.02
  16   2 -11  -35.58   39.67
 -16  -2  11  -13.28   47.65
 -16  -2  11  -62.43   68.41
  16  -2 -11  -17.99   27.73
  16   2 -11   28.19   27.99
  16  -2 -12   12.30  176.81
 -16   2  12  607.30  191.62
  16   2 -12   36.11  178.44
 -16  -2  12  -15.72  183.91
 -16  -2  12   80.21  181.34
  16  -2 -12  145.17  177.95
  16   2 -12  435.32  178.26
 -16  -2  13   15.83   76.26
  16   2 -13   36.38   60.75
 -16  -2  13  -27.34   69.34
  16  -2 -13   18.23   55.16
  16   2 -13   38.13   56.29
 -16  -2  14   15.95  223.54
 -16   2  14   12.12  219.11
  16   2 -14   36.65  218.53
 -16  -2  14  110.14  220.48
  16  -2 -14  422.93  218.55
  16   2 -14  374.63  218.47
  16   2 -15  -12.37   34.62
 -16  -2  15   13.88   49.49
  16   2 -15  -18.49   30.44
  16   2 -16   37.41   54.94
 -16  -2  16   83.93   68.64
  16   2 -16   37.29   49.71
  16   2 -17   25.25   42.11
 -16  -2  17   56.40   56.33
  16   2 -17   28.20   37.49
  16   2 -18   12.74   55.83
 -16  -2  18   28.44   69.20
  16   2 -18   66.39   51.98
  16   2 -19  -12.85   28.51
 -16  -2  19  -57.38   56.34
  16   2 -19   28.71   24.23
  16   3   0   20.27   28.31
  16  -3   0   33.52   37.87
 -16   3   0   59.09   60.85
 -16   3   0   12.76   51.29
  16   3   0   40.60   41.16
  16  -3   0   16.92   31.97
 -16  -3   0  -13.39   42.81
  16   3  -1   10.15   90.35
  16   3   1   10.13   90.22
 -16   3   1   44.56  104.62
  16  -3  -1  124.60   97.33
  16  -3   1   44.48   96.59
 -16   3   1   11.87   96.07
 -16   3  -1   12.69  100.83
  16   3   1   50.71   94.11
 -16   3  -1  -73.48  104.72
 -16  -3   1  -13.40   95.13
  16  -3  -1  374.27   95.98
  16  -3   1  326.04   95.62
 -16  -3  -1   13.38   96.68
  16   3  -2   50.85   25.83
  16   3   2  -10.13   20.59
 -16   3   2  119.50   65.73
  16  -3  -2  -22.78   34.02
  16  -3   2  -33.20   33.85
 -16   3   2  -11.93   45.91
 -16   3  -2  -12.45   45.42
  16   3   2   10.12   32.40
 -16  -3   2   26.63   38.16
 -16   3  -2   73.14   60.77
  16  -3  -2    8.41   23.59
  16  -3   2   -8.77   22.11
 -16  -3  -2   13.40   30.09
 -16   3  -3   58.27   77.01
  16   3  -3   10.19   59.49
  16   3   3   10.13   56.03
 -16   3   3  -30.06   75.22
  16  -3  -3   91.72   61.68
  16  -3   3   11.02   62.06
 -16   3   3   12.01   66.51
  16   3  -3   20.46   61.36
  16   3   3  -20.25   62.59
 -16   3  -3  -12.40   67.58
 -16  -3   3   80.06   66.07
  16  -3  -3  211.55   59.21
  16  -3   3  122.29   60.03
 -16  -3  -3   13.40   61.12
 -16  -3  -4  -13.42   28.55
  16   3  -4   51.11   26.47
 -16   3  -4   29.02   55.93
 -16   3   4  -15.13   56.62
 -16  -3   4   14.85   58.45
  16  -3  -4  -46.36   32.22
  16  -3   4  -10.63   33.38
 -16   3   4   22.62   40.79
  16   3  -4   94.37   39.65
  16   3   4  -10.13   33.18
 -16   3  -4   12.36   41.92
 -16  -3   4  -13.38   41.43
  16  -3  -4   -8.52   23.19
  16  -3   4   -9.21   23.15
  16   3  -5  -30.76   22.72
 -16  -3  -5   26.92   24.07
 -16   3  -5  -14.47   56.45
 -16  -3   5  -14.90   60.52
  16  -3  -5   11.67   31.36
 -16   3   5  -34.15   38.15
  16  -3   5   31.79   33.81
  16   3  -5   21.04   33.22
  16   3   5  -40.83   34.55
 -16   3  -5  -25.01   42.28
 -16  -3   5   39.68   39.92
  16  -3  -5   34.57   24.91
  16  -3   5    9.18   21.63
  16   3  -6  -30.18   28.76
 -16  -3  -6   26.98   27.22
 -16   3  -6   86.57   61.38
  16  -3  -6  -11.76   31.33
 -16   3   6   11.47   42.78
  16  -3   6  -21.13   37.59
 -16  -3   6   15.13   57.92
  16   3  -6   73.92   36.95
  16   3   6  -40.91   40.55
 -16   3  -6   99.75   44.38
 -16  -3   6   13.28   41.11
  16  -3  -6  -17.41   26.62
  16  -3   6   94.78   30.38
  16   3  -7  -10.10   27.42
  16  -3   7   47.29   28.59
 -16  -3   7   30.39   58.94
 -16   3  -7   28.78   58.92
  16  -3  -7  -47.57   32.36
 -16   3   7  -11.55   43.18
  16  -3   7   21.08   36.77
  16   3  -7   21.83   36.68
  16   3   7   20.51   33.90
 -16  -3   7   40.00   42.73
 -16   3  -7   12.55   38.18
  16  -3  -7   -8.77   26.37
  16  -3   8  -19.32   25.11
 -16   3   8   11.62   38.12
  16  -3   8  -40.79   36.30
  16   3  -8  -10.97   36.69
 -16   3  -8   71.83   59.04
 -16  -3   8  -13.28   38.59
 -16   3  -8  -12.53   36.40
 -16  -3   8  -15.37   63.95
  16  -3  -8   35.36   25.04
  16   3  -8   10.15   25.97
  16  -3   9   -9.65   23.70
  16  -3  -9   48.33   32.51
 -16  -3   9  -15.45   64.83
 -16   3   9   11.71   42.51
  16   3  -9   11.37   37.89
  16  -3   9   20.37   35.09
 -16  -3   9  -13.35   47.05
 -16   3  -9  -86.06   62.39
  16  -3  -9   44.37   25.22
 -16   3  -9  -12.69   40.02
  16   3  -9   -9.85   29.14
 -16  -3  10   31.07   73.67
  16  -3 -10   36.56   38.67
 -16   3  10  -11.81   44.04
  16   3 -10   45.74   46.77
 -16  -3  10   40.26   53.19
  16  -3 -10   62.63   35.53
  16   3 -10  -19.81   35.64
 -16  -3  11  -15.63  145.81
  16   3 -11  -11.51  135.58
 -16  -3  11  135.00  139.11
  16  -3 -11  270.75  135.42
  16   3 -11  139.51  133.61
  16   3 -12  -35.89   40.87
 -16  -3  12   13.58   49.04
 -16  -3  12  -78.64   69.88
  16   3 -12  -10.03   30.58
  16   3 -13   12.04  140.02
 -16  -3  13  -15.83  148.14
 -16  -3  13   53.89  142.28
  16   3 -13  323.16  140.54
 -16  -3  14   15.95   61.73
  16   3 -14   12.22   34.62
 -16  -3  14   67.81   45.79
  16   3 -14  -28.83   24.98
 -16  -3  15   16.07   70.30
  16   3 -15   12.32   50.73
 -16  -3  15   68.32   60.80
  16   3 -15   48.41   48.18
 -16  -3  16  -16.19   70.39
  16   3 -16   12.47   50.84
 -16  -3  16   13.77   59.92
  16   3 -16   78.06   48.51
  16   3 -17  -25.14   39.36
 -16  -3  17  -27.76   50.18
  16   3 -17   -9.84   32.84
  16   3 -18  -38.16   46.59
 -16  -3  18   41.97   53.91
  16   3 -18  -39.67   38.00
  16   4   0  -10.25  140.55
 -16   4   0   14.86  148.82
  16  -4   0  215.10  145.92
 -16   4   0  -11.87  145.95
  16  -4   0  526.46  144.43
 -16  -4   0   27.10  144.34
 -16  -4  -1   27.10   28.25
  16   4  -1  -10.26   23.58
 -16   4   1   14.95   54.29
 -16   4  -1   14.78   52.80
  16  -4  -1  -11.44   29.66
  16  -4   1  -11.26   33.06
 -16   4   1   11.94   40.96
 -16   4  -1   11.80   40.14
  16   4   1  -10.24   32.61
  16  -4  -1   25.23   23.67
  16  -4   1   -8.45   21.46
 -16  -4   1   67.69   32.67
 -16  -4  -2   67.80  100.93
  16   4  -2  -10.27   95.05
 -16   4  -2   44.09  106.97
  16  -4  -2  322.43  102.30
  16  -4   2  123.20  100.86
 -16   4   2  -11.24  100.66
 -16   4  -2  -12.69  102.39
  16   4  -2   20.56   97.95
  16   4   2  -30.74   98.03
  16  -4  -2  228.49   97.58
  16  -4   2  185.00   96.51
 -16  -4   2  121.94  100.72
 -16  -4  -3   13.60   25.61
  16   4  -3   10.29   24.40
  16  -4  -3  -34.78   32.06
  16  -4   3   55.71   37.85
 -16   4  -3  -43.87   55.52
 -16   4   3   11.32   38.39
 -16   4  -3  -12.63   50.06
  16   4  -3   20.60   34.97
  16   4   3  -51.59   35.35
  16  -4  -3   34.34   26.03
 -16  -4   3   54.28   35.72
  16  -4   3   35.04   26.75
  16   4  -4  -20.62   24.39
 -16  -4  -4  -13.62   25.16
  16  -4  -4   23.44   30.11
 -16   4   4  -11.40   41.40
  16  -4   4   44.02   36.05
 -16   4  -4  -14.56   53.42
  16   4  -4   51.73   36.97
 -16   4  -4   12.39   44.04
  16   4   4  -10.33   37.23
  16  -4  -4    8.64   25.39
 -16  -4   4   26.97   38.31
  16  -4   4   34.89   26.80
  16   4  -5   20.67   23.41
  16  -4  -5   47.22   28.82
 -16   4   5   11.46   42.84
  16  -4   5  -10.96   33.49
  16   4  -5  -20.75   34.80
 -16   4  -5  -12.34   41.76
  16   4   5  -51.76   34.40
 -16   4  -5  -58.01   59.28
  16  -4  -5  -17.42   24.48
 -16  -4   5   13.52   37.36
  16  -4   5   52.12   24.74
  16   4  -6   10.37   25.69
 -16  -4   6  -15.06   62.22
  16  -4  -6   47.58   30.24
 -16   4   6  -11.54   43.69
  16  -4   6   10.92   34.57
  16   4  -6   10.64   39.33
 -16   4  -6   12.48   42.99
  16  -4  -6   -8.74   25.88
 -16   4  -6   86.67   53.56
 -16  -4   6   54.23   40.15
  16  -4   6    9.16   25.86
  16   4  -7  -31.22   23.99
 -16  -4   7  -15.11   60.56
  16  -4  -7   23.99   27.62
  16  -4   7   32.65   31.69
  16   4  -7   10.68   34.39
 -16   4  -7  -12.45   37.11
  16  -4  -7    8.81   24.69
 -16  -4   7  -54.42   40.55
 -16   4  -7   14.40   56.57
  16  -4   7   -9.13   22.28
  16  -4   8  -18.85   26.88
  16   4  -8   31.34   25.54
 -16  -4   8   15.35   68.89
  16  -4   8  -54.26   41.99
  16   4  -8  -21.44   40.92
 -16   4  -8  -12.52   44.44
 -16  -4   8  -53.86   42.95
  16  -4  -8  -17.75   28.94
  16   4  -9   41.04   30.16
 -16  -4   9   15.42   67.14
  16   4  -9  -22.17   38.34
 -16  -4   9   54.09   46.13
  16  -4  -9  -17.91   29.54
  16   4 -10   41.24   48.10
  16   4 -10   22.28   55.31
 -16  -4  10   31.19   75.33
 -16  -4  10   81.55   58.41
  16   4 -11  -20.73   24.35
 -16  -4  11  -15.68   65.96
  16   4 -11  -11.55   38.40
 -16  -4  11   27.32   38.88
 -16  -4  12  -47.32   71.57
  16   4 -12  -11.62   45.22
 -16  -4  12   95.36   54.00
  16   4 -12   52.13   39.56
 -16  -4  13  -15.87   66.11
  16   4 -13  -24.16   36.53
 -16  -4  13   13.71   41.42
  16   4 -13   20.98   28.28
  16   4 -14   12.16  119.18
 -16  -4  14   41.39  122.75
 -16  -4  14   15.98  130.20
  16   4 -14  254.88  118.99
  16   4 -15  -12.34   40.05
 -16  -4  15  -16.08   64.20
 -16  -4  15   27.78   48.45
  16   4 -15  -30.80   30.40
 -16  -4  16  -16.20   69.00
  16   4 -16  -24.86   45.92
 -16  -4  16  -13.99   54.80
  16   4 -16   93.08   42.28
 -16  -4  17  -16.32   97.68
  16   4 -17  163.60   86.68
 -16  -4  17   70.46   88.12
  16   4 -17   41.68   79.29
 -16  -5   0   13.74   33.62
  16  -5   0  -11.50   32.60
 -16   5   0   11.20   45.59
  16   5   0  -20.75   37.58
  16  -5   0   50.52   27.61
 -16  -5   1   54.87  134.25
 -16  -5  -1  -13.75  134.86
  16  -5  -1  173.64  136.35
  16  -5   1   34.16  135.48
 -16   5   1   33.81  136.27
 -16   5  -1   35.68  139.14
  16   5  -1   31.13  135.90
  16  -5  -1  256.14  134.95
  16  -5   1  343.05  135.18
 -16  -5  -2  -13.77   34.16
  16   5  -2   10.39   34.97
  16  -5  -2   11.66   39.63
  16  -5   2   11.32   44.23
 -16   5   2   11.34   48.96
 -16   5  -2   11.82   51.53
  16   5  -2   10.38   44.67
  16   5   2  -31.37   42.76
  16  -5  -2  120.38   37.92
  16  -5   2   66.54   38.69
 -16  -5   2   13.72   39.01
  16   5  -3  -10.40   47.49
 -16   5  -3   29.44   66.03
  16  -5  -3   23.48   49.09
  16  -5   3   22.51   56.24
 -16   5   3  -11.40   59.15
 -16   5  -3  -11.76   58.59
  16   5  -3   10.41   53.82
  16  -5  -3  121.22   49.15
  16  -5   3  117.80   50.01
 -16  -5   3  -13.73   52.86
  16   5  -4  -20.84   26.47
 -16   5  -4   87.86   58.80
  16  -5  -4   35.49   32.29
 -16   5   4  -22.97   44.14
  16  -5   4  -11.20   36.60
 -16   5  -4  -12.64   51.27
  16   5  -4  -20.86   38.79
  16  -5  -4   17.38   31.92
  16  -5   4  108.81   32.31
 -16  -5   4   13.73   37.00
  16   5  -5  -10.44   24.56
 -16   5  -5  -87.44   56.86
  16  -5   5   55.47   33.11
  16   5  -5   20.90   35.36
 -16   5  -5   12.58   44.47
  16  -5  -5   -8.75   25.22
  16  -5   5   -8.72   22.77
 -16  -5   5   41.28   33.52
  16   5  -6  -20.93   25.45
 -16   5  -6  -43.53   64.83
  16  -5   6  -22.08   34.67
  16   5  -6   10.50   35.14
 -16   5  -6   12.35   44.73
  16  -5  -6   26.48   24.75
 -16  -5   6   13.79   38.93
  16  -5   6   34.73   25.04
  16   5  -7  -10.50   43.14
 -16  -5   7   15.23   72.60
  16  -5   7   21.99   51.04
  16   5  -7   73.74   53.60
 -16  -5   7  165.95   57.63
  16  -5   7   36.61   43.44
  16   5  -8  -42.13   28.22
  16   5  -8   10.80   38.63
 -16  -5   8   15.28   68.55
 -16  -5   8   13.76   41.59
  16   5  -9   10.57   23.58
  16   5  -9  -10.85   34.36
 -16  -5   9  -27.62   38.25
 -16  -5   9  -15.52   63.47
  16   5 -10  -31.85   24.76
 -16  -5  10  -15.59   62.90
  16   5 -10  -22.43   38.24
 -16  -5  10   69.36   44.14
  16   5 -11  -53.36   29.05
  16   5 -11   67.62   37.73
 -16  -5  11   55.74   42.50
 -16  -5  11  -15.66   65.58
  16   5 -12  -10.73   28.68
 -16  -5  12  -15.85   65.20
  16   5 -12  -45.32   40.37
 -16  -5  12   41.42   43.55
  16   5 -13   32.35   38.32
 -16  -5  13   15.94   69.60
  16   5 -13   11.75   43.50
 -16  -5  13   41.65   51.02
  16   5 -14   21.21   29.32
 -16  -5  14  -16.03   62.06
  16   5 -14  -47.29   35.53
 -16  -5  14   97.73   46.38
  16   5 -15  -42.69   28.71
  16   5 -15   49.18   42.46
 -16  -5  15  126.47   47.53
 -16  -5  15   16.14   62.99
  16   5 -16  171.94   72.14
  16   5 -16  -74.27   81.67
 -16  -5  16  211.17  116.95
 -16  -5  16  -14.14   82.03
  16  -6   0   11.62   34.35
 -16   6   0  -11.31   45.95
  16   6   0  -31.78   41.33
  16  -6   0   68.53   32.14
 -16  -6   1   55.69   43.07
  16  -6  -1   35.09   42.57
  16  -6   1   69.21   44.92
 -16   6   1   11.36   51.96
 -16   6  -1  -11.24   53.65
  16   6  -1  -31.76   49.67
  16  -6  -1   17.25   41.42
  16  -6   1  110.60   43.74
 -16  -6   2   41.76   52.42
  16  -6   2   34.38   54.11
 -16   6   2  -11.45   59.68
 -16   6  -2  -22.33   63.32
  16   6  -2   21.05   56.50
  16  -6  -2   43.25   50.62
  16  -6   2  125.84   51.99
 -16  -6   3   41.77   87.53
  16  -6   3   11.39   86.53
 -16   6  -3  -11.86   94.08
  16   6  -3   10.53   87.83
  16  -6  -3  122.03   85.30
  16  -6   3  200.13   85.51
 -16  -6   4   13.92   36.08
  16  -6   4  101.90   44.87
 -16   6  -4   47.16   47.57
  16   6  -4  -10.54   38.70
  16  -6  -4  -17.57   31.84
  16  -6   4   42.16   31.13
  16   6  -5   52.80   44.25
  16  -6   5  -11.22   47.86
 -16   6  -5   38.03   62.25
  16   6  -5   31.72   48.11
  16  -6   5   67.07   43.03
 -16  -6   5  -13.93   48.32
  16   6  -6  -10.58   31.29
  16  -6   6   33.47   38.56
  16   6  -6  -31.78   44.45
  16  -6   6  104.83   36.35
 -16  -6   6  -27.91   39.31
  16   6  -7   21.21   21.30
  16   6  -7  -21.29   31.36
 -16  -6   7   13.97   32.50
  16   6  -8   10.64   32.64
  16   6  -8   53.39   42.32
 -16  -6   8   14.01   39.69
  16   6  -9  -21.34   24.75
  16   6  -9  -21.43   36.98
 -16  -6   9   15.47   63.03
 -16  -6   9   14.05   33.64
  16   6 -10  -10.71   25.56
 -16  -6  10   15.53   64.40
  16   6 -10  -10.99   37.73
 -16  -6  10  -14.10   38.17
  16   6 -11  -32.27   26.89
 -16  -6  11  -15.78   65.85
  16   6 -11  -22.07   38.69
 -16  -6  11   42.48   38.71
  16   6 -12   21.61   25.10
 -16  -6  12  -15.85   63.60
  16   6 -12  -34.24   36.14
 -16  -6  12   42.31   37.41
  16   6 -13  -10.86   26.41
  16   6 -13   34.42   37.83
 -16  -6  13   16.03   62.64
 -16  -6  13   42.52   50.42
  16   6 -14   10.92   24.29
 -16  -6  14 -112.86   64.01
  16   6 -14  -11.90   40.25
 -16  -6  14   14.25   42.34
  16   6 -15   10.98   33.54
 -16  -6  15   97.33  100.85
  16   6 -15   11.97   44.14
 -16  -6  15   14.33   53.72
 -16   7   0   11.43   68.40
  16  -7   0   77.66   61.47
 -16   7  -1  -11.35   43.82
  16  -7  -1    8.69   29.50
  16  -7   1   25.82   27.61
 -16   7  -2  -11.29   99.63
  16  -7   2  136.73   94.85
 -16  -7   3   14.12   21.91
 -16   7  -3   22.44   42.89
  16   7  -3  -21.49   38.37
  16  -7   3   16.98   26.71
 -16  -7   4  -14.12   38.56
  16  -7   4  -22.87   40.55
 -16   7  -4   11.92   53.30
  16   7  -4   74.79   49.03
  16  -7   4   75.34   42.37
 -16  -7   5   14.13   47.60
  16  -7   5  125.02   46.99
  16   7  -5  -32.08   51.51
 -16  -7   6  -14.15   24.32
  16   7  -6   10.73   34.50
 -16  -7   7   56.62   39.69
  16   7  -7   10.75   41.23
 -16  -7   8   14.18   29.15
  16   7  -8   10.77   34.37
  16   7  -9  -10.79   25.53
  16   7  -9   21.66   35.35
 -16  -7   9   56.87   37.05
  16   7 -10   10.82   22.23
  16   7 -10   10.87   35.29
 -16  -7  10  -15.69   63.42
 -16  -7  10   14.26   29.82
  16   7 -11  -10.86   23.64
 -16  -7  11   15.74   65.72
  16   7 -11  -22.30   39.06
 -16  -7  11  -14.31   37.27
  16   7 -12  -10.91   25.45
  16   7 -12  -33.58   42.21
 -16  -7  12  -95.91   70.48
 -16  -7  12   43.04   44.26
  16   7 -13   10.96   22.45
 -16  -7  13   16.06   72.23
  16   7 -13  -46.30   39.33
 -16  -7  13  -14.41   35.09
  16   7 -14   33.03   33.63
  16   7 -14   11.63   49.33
 -16  -7  14   16.24   76.78
 -16  -7  14   14.47   53.25
  16  -8   1   52.11   57.27
 -16   8  -2   11.43   68.22
  16  -8   2   68.96   57.70
 -16   8  -3  -11.35   40.52
  16  -8   3    8.60   23.26
  16   8  -5  -43.40   55.44
  16   8  -6  -21.72   40.12
 -16  -8   7   14.36   40.77
  16   8  -7   54.38   50.50
 -16  -8   8   14.38   48.47
  16   8  -8   54.58   51.02
 -16  -8   9  -14.41   42.35
  16   8  -9   76.58   52.58
 -16  -8  10   28.90   33.80
  16   8 -10   11.00   38.88
 -16  -8  11  -14.49   37.34
  16   8 -11  -22.07   39.55
 -16  -8  12  -14.52   37.00
  16   8 -12  -22.63   45.08
 -16  -8  12  -15.97   72.11
 -16  -8  13   14.57   30.17
 -16  -8  13  -48.64   69.98
  16   9  -8  -33.16   48.57
  16   9  -9  -33.28   50.59
  16   9 -10   22.23   45.59
  16   9 -11  -22.35   45.82
 -16  -9  12   44.12   50.34
  17   0   0  -10.18   26.51
 -17   0   0  -15.36   65.23
  17   0   0   11.00   34.27
 -17   0   0  -13.47   42.72
  17   0   1   91.44   58.58
 -17   0  -1   15.32   78.56
  17   0  -1   33.11   61.82
  17   0   1   21.96   61.70
 -17   0   1   13.40   67.59
 -17   0   1  -62.03   81.68
 -17   0  -1   13.44   61.18
  17   0  -1  112.36   57.35
  17   0   2  -10.37   28.44
 -17   0   2  -15.56   63.02
 -17   0  -2  -15.29   59.91
  17   0  -2  -11.42   37.60
  17   0   2   31.93   35.10
 -17   0   2   26.89   44.53
 -17   0  -2  -26.84   40.41
  17   0  -2   29.69   28.31
  17   0   3   51.78   42.61
 -17   0  -3  105.63   71.93
 -17   0   3   15.62   73.90
  17   0  -3   57.34   50.52
  17   0   3   10.63   51.36
 -17   0   3  -26.98   57.68
 -17   0  -3  -13.59   51.17
  17   0  -3   59.59   43.43
  17   0   4   10.34   27.36
 -17   0   4  -15.68   77.96
  17   0  -4  -11.52   42.69
  17   0   4   10.62   37.82
 -17   0  -4   30.15   60.80
 -17   0   4  -13.35   45.51
 -17   0  -4   13.58   38.50
  17   0  -4  -19.95   30.10
  17   0   5   10.34   31.06
  17   0   5  -10.61   36.91
 -17   0  -5  -15.06   64.98
 -17   0   5   40.22   54.47
 -17   0  -5  -13.69   38.77
  17   0  -5   47.34   31.51
  17   0   6  -10.34   24.20
 -17   0  -6   30.13   62.82
  17   0  -6   12.01   40.99
  17   0   6   41.51   36.60
 -17   0   6   13.47   55.96
 -17   0  -6  -13.69   39.61
  17   0  -6    9.52   28.83
  17   0   7  -20.68   27.31
  17   0  -7  -12.08   41.58
  17   0   7  -20.76   40.47
 -17   0   7  -13.74   50.11
 -17   0   7  -31.84   65.00
  17   0  -7   -9.57   26.09
 -17   0  -7   13.69   36.15
  17   0   8  -20.70   21.03
  17   0  -8   48.97   37.90
 -17   0   8   16.01   60.76
  17   0   8  -20.78   33.27
 -17   0   8   13.82   42.74
  17   0  -8    9.19   23.78
 -17   0  -8   13.73   28.43
 -17   0  -9  -13.75   29.16
 -17   0   9  -64.41   60.04
  17   0  -9  -36.95   38.22
 -17   0   9  -55.61   47.45
  17   0   9  -10.40   38.32
  17   0  -9    9.25   28.41
 -17   0 -10   13.80   27.64
 -17   0  10  -16.21   63.18
  17   0 -10   12.40   33.70
 -17   0  10  -13.99   49.79
  17   0  10   10.39   36.06
  17   0 -10   -9.30   23.03
 -17   0 -11  -13.83   23.35
 -17   0  11   48.94   61.71
  17   0 -11   12.53   35.05
 -17   0  11  -14.08   54.66
  17   0  11  -31.26   35.31
  17   0 -11   46.84   29.34
  17   0 -12  -12.62   38.67
 -17   0  12   65.57   47.73
  17   0  12   20.90   40.68
  17   0 -12   18.87   31.53
  17   0 -13   12.76  140.91
 -17   0  13   13.21  145.62
  17   0 -13  280.23  141.85
  17   0 -14   12.85   29.14
 -17   0  14  -66.53   48.65
  17   0 -14   28.22   27.89
  17   0 -15   12.96   57.60
 -17   0  15   13.41   66.31
  17   0 -15   75.83   53.12
  17   0 -16  -39.17   43.01
 -17   0  16  -13.51   52.85
  17   0 -16  -19.11   34.29
 -17   0  17   95.28   61.95
  17   0 -17    9.63   38.88
 -17   0  18  -12.84   49.56
  17   0 -18   38.85   36.36
 -17  -1   0  -15.23   94.49
  17   1   0   62.77   72.69
 -17   1   0   15.44   89.67
  17  -1   0   67.98   78.53
  17   1   0  -10.74   75.58
 -17   1   0   13.34   82.83
 -17  -1   0   27.04   78.92
  17  -1   0  215.88   74.87
  17   1  -1   10.25   29.20
  17   1   1   10.44   26.42
 -17   1   1  -15.50   66.60
 -17  -1   1   30.89   62.07
 -17   1  -1   15.40   61.48
  17  -1  -1   22.74   37.59
  17  -1   1   33.88   37.00
  17   1  -1   10.76   36.70
 -17  -1  -1   15.20   63.47
  17   1   1   10.72   35.89
 -17   1   1  -13.19   43.31
 -17   1  -1  -13.30   41.92
 -17  -1   1   13.55   39.37
 -17  -1  -1  -13.70   40.26
  17  -1  -1   -9.85   26.66
  17  -1   1   29.34   26.88
  17  -1   2   70.73   41.63
  17   1  -2   30.84   40.57
  17   1   2  -10.43   40.23
 -17   1   2  -93.34   71.83
 -17  -1   2  -15.49   75.37
  17  -1  -2   79.90   51.42
  17  -1   2   32.76   47.49
  17   1  -2   66.64   51.09
  17   1   2   62.81   47.90
 -17   1   2  -52.96   54.95
 -17  -1  -2   15.19   67.28
 -17   1  -2  -13.38   51.45
 -17  -1   2  -13.59   54.50
 -17   1  -2   92.13   70.73
 -17  -1  -2  -13.68   48.22
  17  -1  -2  121.44   44.08
  17  -1   3  -10.08   29.97
 -17   1  -3  -76.10   62.89
  17   1   3   10.42   26.35
  17  -1  -3  -47.37   42.99
  17   1  -3  -11.14   37.36
  17  -1   3  -32.69   41.16
  17   1   3   20.91   37.90
 -17   1   3  -53.18   53.63
 -17  -1   3   13.52   45.61
 -17   1  -3  -13.36   46.75
 -17  -1   3  -15.54   63.75
 -17  -1  -3   41.00   41.09
  17  -1  -3    9.38   25.22
  17   1  -3  -10.31   34.32
  17  -1   4  -10.30   28.07
  17   1   4   10.41   23.54
 -17   1  -4  -30.38   62.85
  17  -1  -4  -11.90   38.33
  17  -1   4  -21.75   39.40
  17   1   4  -41.82   37.88
 -17   1   4   13.56   51.02
 -17  -1   4  -13.56   46.27
 -17   1   4   15.70   74.65
 -17   1  -4  -26.67   40.69
 -17  -1  -4  -13.78   32.35
  17  -1  -4   84.84   31.31
  17   1  -4    9.99   26.06
  17  -1   5   10.28   45.29
  17   1   5   31.25   39.40
 -17   1  -5  -30.34   68.70
  17  -1  -5  -11.96   50.79
  17   1  -5  208.54   55.46
  17  -1   5   73.86   49.60
 -17   1   5   31.56   84.11
  17   1   5  -10.45   46.68
 -17   1   5   13.63   59.39
 -17  -1   5   27.24   59.70
 -17   1  -5   13.51   53.55
  17  -1  -5   36.20   41.72
 -17  -1  -5   41.34   53.51
  17   1  -5   20.07   41.00
  17  -1   6   20.55   24.52
  17   1   6  -10.42   23.42
 -17  -1   6  -15.83   69.72
  17   1  -6   23.27   40.20
  17  -1   6  -31.63   35.89
 -17   1   6   13.70   52.31
  17   1   6   10.43   33.18
 -17  -1   6   13.48   48.42
 -17   1  -6  -13.50   41.68
 -17   1  -6   30.32   64.17
  17  -1  -6    9.10   23.84
  17   1  -6   40.32   31.43
 -17  -1  -6  -13.81   33.02
 -17  -1  -7  -13.83   28.58
  17  -1   7  -30.82   24.18
 -17   1  -7  -29.97   64.60
  17  -1  -7   97.53   40.23
  17   1  -7  -12.08   37.08
  17  -1   7   63.24   37.56
 -17   1   7   13.77   50.73
  17   1   7   10.44   34.32
 -17  -1   7   54.15   45.83
 -17   1  -7   13.61   33.84
  17  -1  -7   27.46   28.47
  17   1  -7   10.13   25.63
 -17  -1  -8  -13.87   25.74
  17  -1   8   30.83   20.34
 -17   1   8  -16.05   57.71
  17  -1  -8  -49.06   35.82
  17   1  -8   36.43   38.00
 -17   1   8   12.82   39.68
  17  -1   8  -21.09   33.05
  17   1   8  -20.92   37.08
 -17  -1   8  -40.83   47.34
 -17  -1   8  -79.97   65.82
  17  -1  -8    9.21   24.57
 -17   1  -8   13.62   33.89
  17   1  -8   48.11   24.87
 -17   1  -8  -44.95   63.20
 -17  -1  -9   13.90   29.93
  17  -1   9  -10.28   26.26
 -17   1   9  -32.31   56.72
  17  -1  -9   12.40   35.35
  17   1  -9   48.85   42.26
 -17   1   9   12.90   47.39
  17  -1   9   30.96   37.28
  17   1   9   10.48   37.14
 -17  -1   9  -27.37   47.94
 -17  -1   9  -16.08   61.14
 -17   1  -9 -134.94   65.03
  17  -1  -9   63.78   33.46
  17   1  -9   48.37   29.59
 -17   1  -9  -13.65   35.02
 -17   1 -10   13.67   30.63
  17  -1 -10  -24.97   35.79
  17   1 -10   37.15   43.35
 -17  -1  10   16.18   69.78
 -17   1  10  -12.98   46.75
  17  -1  10   31.00   38.32
 -17  -1  10   41.29   50.47
  17   1  10  -20.96   35.01
 -17   1 -10  -90.05   61.60
  17  -1 -10   45.86   29.46
  17   1 -10   38.93   29.81
 -17  -1  11  -16.28   58.83
  17  -1 -11  -12.62   35.15
  17   1 -11  -24.93   36.61
 -17   1  11  117.65   51.47
  17  -1  11   20.70   36.86
 -17  -1  11  -42.16   51.59
  17   1  11   10.52   36.10
  17  -1 -11   27.71   27.46
  17   1 -11   19.59   30.81
 -17  -1  12  -16.39  111.04
  17  -1 -12  -12.71   96.88
  17   1 -12  -12.54   98.80
 -17   1  12   13.17  102.51
 -17  -1  12  -28.29  103.98
  17   1  12   42.20   99.24
  17  -1 -12  279.15   98.87
  17   1 -12  235.44   99.96
 -17  -1  13   16.50   61.75
  17  -1 -13  -25.61   39.40
  17   1 -13   88.82   47.07
 -17   1  13   37.25   50.07
 -17  -1  13   28.47   50.78
  17  -1 -13   -9.37   34.50
  17   1 -13   75.85   38.08
  17  -1 -14  -12.91  138.82
  17   1 -14   25.56  139.62
 -17   1  14   75.04  143.64
 -17  -1  14   14.34  144.92
  17  -1 -14  377.77  140.73
  17   1 -14  200.55  139.13
  17   1 -15  -51.69   43.73
 -17   1  15   12.60   47.58
 -17  -1  15   14.44   56.78
  17  -1 -15   -9.59   29.07
  17   1 -15  -19.24   32.32
  17   1 -16  -26.04   52.98
 -17   1  16   12.70   61.11
 -17  -1  16  -13.46   64.74
  17  -1 -16   58.01   48.37
  17   1 -16   96.94   50.81
  17   1 -17  -13.12   33.60
 -17  -1  17  -13.57   53.11
  17   1 -17  -19.54   30.69
 -17  -1  18  -13.67   51.63
  17   1 -18    9.85   25.23
 -17  -1  19   27.56   64.13
  17   1 -19   48.79   49.72
 -17  -1  20  -69.45   49.78
  17   1 -20   29.52   25.83
  17   2   0  -21.05   50.80
 -17  -2   0   15.31   79.33
  17  -2   0  -46.82   57.20
  17   2   0   21.13   55.31
 -17   2   0   13.15   68.00
 -17  -2   0  -13.79   57.14
  17  -2   0  213.31   51.62
 -17   2   0  -15.46   76.97
  17   2  -1  -10.54   50.25
  17   2   1  -10.51   50.44
 -17   2  -1  -30.80   82.90
 -17  -2   1  -15.34   80.24
  17  -2  -1  176.28   62.28
  17  -2   1   79.01   61.68
  17   2  -1   10.82   55.71
  17   2   1   10.55   53.65
 -17   2   1   13.20   64.41
 -17   2  -1   13.11   59.47
 -17   2   1  -15.52   76.04
 -17  -2   1   41.45   62.95
 -17  -2  -1  -13.89   59.14
  17  -2  -1  111.75   53.61
  17  -2   1  195.56   54.38
  17   2  -2   10.57   24.55
  17   2   2   10.51   20.80
 -17   2  -2  -61.39   73.03
 -17  -2   2  -15.38   66.37
  17  -2  -2   11.80   37.36
  17  -2   2   22.50   38.50
  17   2  -2  -21.69   37.12
  17   2   2   10.54   36.43
 -17   2   2  -53.84   54.03
 -17   2   2   15.59   69.53
 -17   2  -2  -13.26   47.73
 -17  -2   2  -13.85   42.35
 -17  -2  -2   13.89   38.45
  17  -2  -2   -9.35   25.68
  17  -2   2   48.72   27.47
  17   2  -3  -31.79   30.97
  17   2   3  -21.00   26.67
 -17   2  -3  -15.31   66.58
  17  -2  -3   71.75   40.11
 -17   2   3   15.67   68.85
  17  -2   3   44.88   40.55
 -17   2   3  -13.52   58.40
  17   2   3   31.54   39.11
 -17   2  -3   13.23   50.30
 -17  -2   3  -13.68   44.57
  17  -2  -3   35.91   29.34
 -17  -2  -3  -13.88   39.41
  17  -2   3   29.15   25.45
  17  -2   4  130.52   70.40
  17   2  -4   20.78   69.00
  17   2   4   10.50   66.05
 -17  -2   4   15.64   94.95
 -17   2   4   31.49   97.74
 -17   2  -4   61.09   89.91
  17  -2  -4   96.17   74.55
  17  -2   4  111.94   77.07
  17   2  -4  168.42   75.76
 -17   2   4  -13.59   79.41
  17   2   4   42.06   71.97
 -17   2  -4   13.31   80.18
 -17  -2   4  -27.45   78.20
  17  -2  -4  171.47   69.74
 -17  -2  -4  -13.90   68.31
 -17  -2  -5   13.92   35.80
  17   2  -5   31.28   33.15
  17  -2   5   20.04   34.18
 -17   2   5  -15.83   71.80
  17  -2  -5  -12.09   40.46
  17  -2   5  108.29   45.54
  17   2  -5  -11.27   41.01
 -17   2   5   12.65   46.89
 -17   2  -5   45.72   67.14
  17   2   5   10.52   38.25
 -17  -2   5  -41.31   47.99
 -17   2  -5   39.85   54.29
  17  -2  -5   27.22   32.20
 -17  -2   5   15.70   69.75
 -17  -2  -6   13.96   27.82
  17  -2   6  -20.48   29.52
 -17   2   6   15.92   63.53
  17  -2  -6   36.64   39.43
  17   2  -6  -56.56   41.50
  17  -2   6  -32.43   37.19
 -17   2   6  -12.72   46.46
 -17  -2   6  -63.47   63.73
  17   2   6  -10.53   31.44
 -17  -2   6   27.41   49.55
 -17   2  -6   26.53   44.38
 -17   2  -6 -120.93   67.89
  17  -2  -6  161.52   31.24
  17   2  -6  -10.47   26.01
  17  -2   7  -30.69   27.15
 -17  -2  -7  -13.98   25.16
 -17   2  -7  -90.60   67.98
 -17  -2   7  -15.94   66.63
  17   2  -7  -11.72   37.83
 -17   2   7  -12.79   45.46
  17  -2   7   32.40   40.90
  17   2   7  -10.53   34.60
 -17  -2   7   55.06   41.67
 -17   2  -7  -40.33   39.33
  17  -2  -7   -9.03   30.94
  17   2  -7  -10.15   27.37
  17  -2   8   10.22   34.30
 -17  -2  -8   14.01   33.21
 -17  -2   8  -64.04   68.59
 -17   2  -8   45.27   68.09
  17   2  -8  -23.55   44.65
 -17   2   8  -12.88   48.24
  17  -2   8   32.39   43.32
  17   2   8   21.10   41.56
 -17  -2   8   41.48   52.78
  17  -2  -8   72.70   36.42
 -17   2  -8   13.44   44.94
  17   2  -8   61.19   37.03
 -17  -2   9  -16.09   64.48
  17  -2   9  -10.22   23.06
 -17   2  -9   60.36   63.29
  17  -2  -9  -12.50   34.66
  17   2  -9  -12.23   41.88
 -17   2   9   72.79   43.75
  17  -2   9  -20.97   37.27
  17   2   9   21.16   35.64
 -17  -2   9  -55.60   48.96
  17  -2  -9   64.06   28.63
 -17   2  -9  -27.11   35.73
  17   2  -9   30.76   29.07
  17  -2  10  -10.23   32.53
  17  -2 -10  -12.59   40.12
  17   2 -10   12.30   44.46
 -17   2  10   24.43   47.67
  17  -2  10   20.98   40.79
  17   2  10   63.64   43.07
 -17  -2  10  -55.07   55.97
  17  -2 -10   64.97   37.53
 -17  -2  10   32.36   64.96
  17   2 -10   61.85   38.62
  17  -2 -11   50.72  108.91
  17   2 -11  123.67  112.65
 -17   2  11  -36.89  113.55
 -17  -2  11  -16.27  122.13
 -17  -2  11   55.38  114.41
  17  -2 -11  215.05  109.45
  17   2 -11  156.76  109.45
  17  -2 -12   12.78   71.94
 -17  -2  12   16.38   89.46
  17   2 -12   12.54   74.87
 -17   2  12   49.56   78.66
 -17  -2  12   69.65   82.90
  17  -2 -12   94.22   70.03
  17   2 -12  118.31   71.50
 -17  -2  13   32.96  136.11
  17   2 -13  -50.51  124.56
 -17   2  13   74.90  128.47
 -17  -2  13  -42.04  129.38
  17  -2 -13  332.27  124.96
  17   2 -13  168.72  123.66
 -17  -2  14   16.59   72.83
  17   2 -14   51.07   55.33
 -17   2  14  -12.55   55.98
 -17  -2  14   14.11   61.66
  17  -2 -14   47.84   47.15
  17   2 -14   59.94   46.98
  17   2 -15   77.14  195.97
 -17  -2  15  259.59  198.97
  17   2 -15  241.49  192.64
  17   2 -16  -51.80   37.82
 -17  -2  16   29.04   51.21
  17   2 -16   40.55   30.15
  17   2 -17   65.50   55.25
 -17  -2  17  -14.63   65.06
  17   2 -17   51.06   49.92
  17   2 -18  -39.61   32.34
 -17  -2  18   58.97   52.62
  17   2 -18    9.83   25.84
  17   2 -19  -13.31   32.65
 -17  -2  19   29.71   51.72
  17   2 -19   -9.91   28.77
  17   3   0  -10.61  107.39
  17  -3   0  153.69  112.83
 -17   3   0   77.51  128.81
  17   3   0  -31.95  110.70
 -17   3   0  -13.39  115.52
 -17  -3   0   14.01  111.60
  17   3  -1   10.62   59.39
  17   3   1   10.60   58.36
  17  -3  -1  154.42   69.04
  17  -3   1  105.10   68.60
 -17   3   1   13.45   70.99
  17   3  -1   95.97   66.66
  17   3   1   10.62   66.74
 -17   3  -1  200.70   90.89
 -17   3  -1  -13.14   71.10
 -17  -3   1  -14.03   64.36
  17  -3  -1   53.51   59.86
  17  -3   1  120.30   63.75
 -17  -3  -1   28.01   67.47
  17   3  -2   31.92   55.89
  17   3   2   10.60   54.12
 -17   3   2   46.95   93.10
  17  -3  -2   59.69   61.18
  17  -3   2  116.36   66.46
 -17   3   2   13.51   71.65
  17   3   2   31.84   59.37
 -17   3  -2   13.09   68.62
 -17   3  -2  169.17   90.83
 -17  -3   2   13.93   68.52
  17  -3  -2   53.78   56.63
  17  -3   2  147.52   59.23
 -17  -3  -2   14.02   60.73
 -17  -3  -3   14.03   46.98
  17   3  -3   53.32   45.28
 -17   3   3  -47.20   78.90
 -17  -3   3   15.50   72.92
  17  -3  -3  -36.17   49.37
  17  -3   3   34.78   56.03
 -17   3   3   12.56   55.16
  17   3  -3   32.83   52.70
  17   3   3   95.54   51.35
 -17   3  -3   26.09   63.05
 -17  -3   3   13.96   53.82
  17  -3  -3   81.10   41.93
 -17   3  -3  137.93   74.32
  17  -3   3    9.72   44.36
 -17  -3  -4  -14.04   32.24
  17   3  -4   64.14   34.55
 -17   3  -4  -61.12   68.28
 -17   3   4   15.82   61.71
 -17  -3   4   15.54   59.02
  17  -3  -4   12.12   39.01
  17  -3   4   46.24   42.90
 -17   3   4   25.28   48.61
  17   3  -4  -10.97   42.08
  17   3   4   53.02   39.20
 -17   3  -4   13.20   49.33
 -17  -3   4  -13.99   42.17
  17  -3  -4   26.72   31.25
  17  -3   4    9.69   32.68
  17   3  -5   10.72   37.62
 -17  -3  -5   14.08   37.95
 -17   3  -5   76.20   69.32
  17  -3  -5  -12.20   41.89
  17  -3   5   44.64   43.25
 -17   3   5  -25.42   53.24
  17   3  -5  -11.00   42.25
  17   3   5  -42.45   43.86
 -17  -3   5  -78.83   72.47
 -17   3  -5  -52.68   57.65
 -17  -3   5   27.67   44.95
  17  -3  -5  125.45   38.74
  17  -3   5  100.12   37.78
  17  -3   6  -19.98   30.43
  17   3  -6  -10.76   29.35
 -17  -3  -6  -14.11   26.31
 -17  -3   6  -15.82   64.19
  17  -3  -6  -12.27   31.54
 -17   3   6  -47.87   42.39
  17  -3   6  -22.27   33.93
  17   3  -6  -11.36   38.66
  17   3   6  -53.16   37.32
 -17   3  -6   26.50   40.75
 -17  -3   6  -41.63   45.78
  17  -3  -6    9.02   26.87
  17   3  -7   31.67   35.92
  17  -3   7  -30.61   34.93
 -17   3  -7   75.90   62.97
  17  -3  -7   12.40   37.91
 -17   3   7  -12.04   48.02
  17  -3   7   33.35   43.19
  17   3  -7   11.41   43.04
  17   3   7  117.20   44.97
 -17  -3   7  -41.79   49.45
 -17   3  -7   13.23   44.74
  17  -3  -7   64.01   35.84
 -17  -3   7   15.88   66.68
  17   3  -8   42.41   25.19
  17  -3   8   10.19   25.12
 -17   3  -8   15.16   59.66
 -17   3   8  -12.12   41.52
  17  -3   8  -11.10   35.95
  17   3  -8  -22.91   40.99
 -17  -3   8   16.06   64.87
 -17  -3   8   13.99   43.79
 -17   3  -8   26.81   40.13
  17  -3  -8  -18.41   26.75
  17  -3   9   71.26   42.97
 -17  -3   9   16.13   76.62
 -17   3   9  -12.21   53.49
  17   3  -9   59.37   51.71
  17  -3   9   10.75   45.95
 -17  -3   9  -13.93   52.91
  17  -3  -9   37.09   41.99
  17   3  -9   42.60   41.90
 -17  -3  10  -16.21   67.98
  17  -3 -10  -38.00   34.92
 -17   3  10  -24.54   44.55
  17   3 -10  -11.93   38.34
 -17  -3  10   14.00   46.27
  17  -3 -10   28.02   30.91
  17   3 -10   85.64   32.18
 -17  -3  11  -32.60   75.41
 -17   3  11   49.43   59.00
  17   3 -11  -61.97   56.86
 -17  -3  11   28.15   60.12
  17  -3 -11   75.27   46.62
  17   3 -11   83.12   48.93
  17   3 -12   12.47   99.60
 -17  -3  12   84.92  103.14
 -17  -3  12   16.39  114.41
  17   3 -12  188.08   99.73
  17   3 -13   25.08   61.48
 -17  -3  13   16.49   79.88
 -17  -3  13  -56.94   68.77
  17   3 -13  115.65   57.70
 -17  -3  14  -33.19   95.22
  17   3 -14  -89.06   50.29
 -17  -3  14  -42.35   53.49
  17   3 -14   74.07   32.61
 -17  -3  15 -100.20   84.84
  17   3 -15  -12.81   47.55
 -17  -3  15   71.04   61.20
  17   3 -15  -31.96   39.00
 -17  -3  16  -16.82   61.30
  17   3 -16   12.96   40.94
 -17  -3  16   28.61   49.05
  17   3 -16   10.73   29.90
  17   3 -17   26.10   82.45
 -17  -3  17  100.85   91.89
  17   3 -17  102.09   80.74
  17   3 -18  -26.39   33.86
  17   3 -18   10.29   26.99
  17   4   0  -10.71   18.25
 -17   4   0  -31.17   62.56
  17  -4   0  -11.93   37.01
 -17   4   0  -26.90   50.77
  17  -4   0   17.83   23.56
 -17  -4   0  -14.16   33.45
 -17  -4  -1   42.48  116.30
  17   4  -1  -32.16  111.99
 -17   4   1   15.66  122.89
 -17   4  -1  -77.55  128.90
  17  -4  -1   11.99  113.23
  17  -4   1   82.73  115.55
 -17   4   1  -12.51  117.49
 -17   4  -1  -13.39  118.89
  17   4   1   21.40  114.44
  17  -4  -1  475.62  115.10
  17  -4   1  346.04  114.40
 -17  -4   1   14.17  114.10
 -17  -4  -2  -14.19   27.66
  17   4  -2  -21.46   24.65
 -17   4  -2  -61.76   61.44
  17  -4  -2   24.11   35.03
  17  -4   2  -47.07   39.36
 -17   4   2   12.58   47.29
  17   4  -2   10.74   33.85
 -17   4  -2   13.33   46.24
  17   4   2   10.71   36.81
  17  -4  -2   44.29   26.06
  17  -4   2   -9.25   25.85
 -17  -4   2  -14.16   39.05
 -17  -4  -3   14.20   31.53
  17   4  -3  -10.75   28.18
 -17   4  -3  -46.14   64.81
  17  -4  -3   12.12   38.77
  17  -4   3  -11.72   40.03
 -17   4   3   12.65   48.44
  17   4  -3   10.79   39.17
 -17   4  -3   26.17   50.24
  17   4   3  -42.85   42.24
  17  -4  -3   53.45   29.29
 -17  -4   3   14.18   39.84
  17  -4   3   82.90   31.91
  17   4  -4  -21.54   28.40
 -17  -4  -4   14.22   24.68
  17  -4  -4   12.24   33.31
  17  -4   4  -11.68   35.32
 -17   4   4  -11.90   48.06
 -17   4  -4  -30.65   62.96
  17   4  -4  -10.81   39.09
  17   4   4   10.73   35.87
 -17   4  -4  -13.04   48.93
  17  -4  -4   89.61   30.45
 -17  -4   4   28.42   35.32
  17  -4   4    9.18   25.80
  17   4  -5   10.80   22.65
 -17  -4   5  -15.69   64.79
  17  -4  -5   36.96   32.98
  17  -4   5  -23.09   36.50
 -17   4   5  -11.98   48.95
  17   4  -5   99.71   40.29
 -17   4  -5 -106.90   57.82
 -17   4  -5  -13.19   43.53
  17  -4  -5   18.17   26.87
 -17  -4   5  -14.12   40.13
  17  -4   5   19.36   27.69
  17   4  -6   21.66   25.76
 -17  -4   6   15.73   66.37
  17  -4  -6   37.21   30.23
 -17   4   6   12.05   42.63
  17  -4   6  -46.05   38.32
  17   4  -6  -11.11   38.09
 -17   4  -6   13.16   40.51
 -17   4  -6  -15.23   57.88
  17  -4  -6   -9.15   26.89
 -17  -4   6   42.48   41.48
  17  -4   6   28.96   26.06
  17   4  -7   10.86   25.54
  17  -4  -7   49.96   32.66
 -17   4   7  -12.11   47.38
  17  -4   7  -45.93   36.11
 -17  -4   7   15.97   63.30
  17   4  -7   11.15   36.94
 -17   4  -7   13.13   41.42
  17  -4  -7  -46.04   33.16
 -17  -4   7  -28.41   39.62
 -17   4  -7  -45.58   61.11
  17  -4   7   -9.97   25.00
  17   4  -8   10.90   36.03
 -17  -4   8   16.02   74.32
 -17   4   8   48.77   50.28
  17  -4   8   11.46   43.82
  17   4  -8  -46.08   44.61
 -17  -4   8   71.30   47.71
  17  -4  -8  110.80   58.92
  17   4  -9  -10.95   28.24
 -17   4   9  -36.83   44.32
  17   4  -9  -46.27   38.92
 -17  -4   9   84.67   43.55
  17  -4  -9  -27.90   33.31
 -17  -4   9  -16.20   67.75
  17   4 -10   53.76   46.76
 -17  -4  10   16.27   79.56
  17   4 -10  -23.97   54.16
 -17  -4  10  113.39   58.60
  17   4 -11   32.42   37.55
 -17  -4  11  -16.35   72.01
  17   4 -11   24.09   45.94
 -17  -4  11   42.72   48.38
  17   4 -12  -21.72   34.48
 -17  -4  12  -49.31   69.87
  17   4 -12  -24.22   42.32
 -17  -4  12  -14.32   48.05
  17   4 -13   54.62   30.12
  17   4 -13  -50.32   41.28
 -17  -4  13  -43.18   51.22
 -17  -4  13  -16.53   89.84
  17   4 -14  316.40  143.55
 -17  -4  14   83.14  165.90
 -17  -4  14  287.14  146.94
  17   4 -14   21.98  130.01
 -17  -4  15   16.73   61.06
  17   4 -15   38.52   40.09
 -17  -4  15  -14.44   40.98
  17   4 -15  -11.05   27.47
 -17  -4  16  -16.84   63.66
  17   4 -16   12.92   39.92
 -17  -4  16   14.54   49.51
  17   4 -16  -21.49   29.93
 -17  -4  17   16.95   63.78
  17   4 -17   52.28   38.97
 -17  -4  17   43.90   50.79
  17   4 -17  -32.46   26.38
  17  -5   0   24.10  104.87
 -17   5   0  -12.53  109.11
  17  -5   0  194.04  104.73
 -17  -5   1  -14.31   28.53
 -17  -5  -1  -14.34   27.02
  17  -5  -1  -12.12   31.66
  17  -5   1   35.83   32.69
 -17   5   1  -23.58   44.56
 -17   5  -1   12.47   44.39
  17   5  -1  -32.48   40.93
  17  -5  -1   35.48   28.22
  17  -5   1   62.48   29.81
 -17  -5   2  -14.32   66.07
 -17  -5  -2   14.35   60.63
  17   5  -2   21.68   58.64
  17  -5  -2  -12.19   61.41
  17  -5   2   11.88   62.27
 -17   5   2   23.72   67.49
 -17   5  -2   67.05   72.96
  17   5  -2   54.29   64.32
  17   5   2  -21.80   63.82
  17  -5  -2  152.78   62.45
  17  -5   2  159.86   60.63
  17   5  -3   10.85   23.46
 -17   5  -3   15.47   52.25
  17  -5  -3  -36.79   29.86
  17  -5   3   59.14   34.84
 -17   5   3   23.86   41.78
 -17   5  -3  -13.35   46.76
  17   5  -3   21.74   37.74
  17  -5  -3   -9.04   26.34
  17  -5   3   -8.84   22.32
 -17  -5   3  -14.33   28.76
  17   5  -4  -10.87   25.37
 -17   5  -4   30.81   53.15
  17  -5  -4  -24.68   28.70
  17  -5   4  -11.78   32.77
 -17   5   4   12.00   44.00
  17   5  -4   43.64   36.77
 -17   5  -4  -13.30   50.96
  17  -5  -4    9.10   25.14
  17  -5   4  -18.43   26.15
 -17  -5   4  -43.06   34.56
  17   5  -5  -21.78   27.95
 -17   5  -5  -46.04   63.50
  17  -5   5  -46.72   37.23
 -17   5   5  -12.05   48.18
  17   5  -5  -32.80   42.06
 -17   5  -5  -13.05   46.73
  17  -5  -5    9.16   31.37
 -17  -5   5   28.72   37.15
  17  -5   5  -18.37   28.46
  17   5  -6   10.92   33.28
 -17   5  -6  -45.86   62.91
 -17  -5   6  -15.85   67.71
 -17   5   6  -12.13   52.25
  17  -5   6  -11.64   39.79
  17   5  -6   87.68   45.28
 -17   5  -6   39.03   51.60
  17  -5  -6   27.55   38.00
 -17  -5   6  -43.17   44.69
  17  -5   6   77.44   36.14
 -17  -5   7   15.89   80.74
  17   5  -7   54.74   51.59
  17   5  -7  112.33   62.49
 -17  -5   7  -43.28   56.08
 -17  -5   8  -15.94   65.98
  17   5  -8   43.93   27.45
  17   5  -8  -33.81   41.18
 -17  -5   8   28.70   41.63
  17   5  -9   33.06   30.93
 -17  -5   9  -32.37   67.59
  17   5  -9   33.93   41.76
 -17  -5   9  -14.40   43.08
  17   5 -10  -33.20   34.06
 -17  -5  10   16.25   65.66
  17   5 -10  -23.38   42.71
 -17  -5  10  -14.46   41.64
  17   5 -11  -11.12   35.09
  17   5 -11  -58.71   44.72
 -17  -5  11   16.43   69.63
 -17  -5  11  -43.56   44.85
  17   5 -12   11.17   27.01
 -17  -5  12  -33.02   78.34
  17   5 -12  -24.34   41.90
 -17  -5  12   87.52   50.23
  17   5 -13   56.14   94.10
 -17  -5  13   82.99  142.94
  17   5 -13  122.35  102.43
 -17  -5  13  187.89  112.20
 -17  -5  14  -50.06   74.03
  17   5 -14  -22.58   38.18
  17   5 -14   12.71   46.33
 -17  -5  14  -72.63   53.05
  17   5 -15   33.30   34.93
  17   5 -15   25.57   44.74
 -17  -5  15   16.78   68.95
 -17  -5  15  -14.61   49.41
  17   5 -16   44.67   32.08
  17   5 -16  -12.97   40.73
 -17  -5  16   16.88   66.72
 -17  -5  16  -14.70   50.65
  17  -6   0  -12.15   51.19
 -17   6   0   11.83   59.84
  17  -6   0  -71.68   49.90
 -17  -6   1  -14.50   52.16
  17  -6  -1   24.45   56.54
  17  -6   1  -12.08   56.34
 -17   6   1   11.90   64.51
 -17   6  -1  -25.15   70.88
  17   6  -1   21.91   60.90
  17  -6  -1   81.13   54.56
  17  -6   1  141.50   55.34
 -17  -6   2   43.50   29.80
  17  -6   2  -12.02   28.40
 -17   6   2   23.89   40.88
 -17   6  -2   12.51   46.10
  17   6  -2  -43.83   39.89
  17  -6  -2   -9.07   26.54
  17  -6   2   43.99   27.03
 -17  -6   3   29.02   32.38
  17  -6   3  -11.96   29.01
 -17   6   3  -12.02   40.90
 -17   6  -3   12.45   42.74
  17   6  -3   10.99   40.09
  17  -6  -3   27.37   25.34
  17  -6   3  -17.81   25.08
 -17  -6   4   14.50   31.71
  17  -6   4   11.90   29.93
 -17   6   4   12.10   38.88
 -17   6  -4  -13.39   45.94
  17   6  -4   22.00   40.16
  17  -6  -4   -9.15   25.09
  17  -6   4    8.86   23.99
 -17  -6   5   43.56   36.39
  17   6  -5   11.00   29.79
  17  -6   5   23.60   38.45
 -17   6  -5   13.33   52.95
  17   6  -5   66.10   44.32
  17  -6   5    9.24   32.48
  17   6  -6  -11.02   21.49
  17   6  -6   11.06   35.59
 -17  -6   6   14.54   32.04
  17   6  -7   11.05   27.65
  17   6  -7  -44.36   40.96
 -17  -6   7  -43.72   40.72
 -17  -6   8  -16.07   68.21
  17   6  -8   33.24   31.14
  17   6  -8   11.12   38.69
 -17  -6   8   29.18   40.72
  17   6  -9  -22.23   31.45
 -17  -6   9  -32.25   73.78
  17   6  -9   11.41   40.04
 -17  -6   9  -43.91   38.22
  17   6 -10  -33.46   21.99
  17   6 -10   80.13   36.96
 -17  -6  10   16.36   66.48
 -17  -6  10  -14.68   39.47
  17   6 -11   11.20   30.00
 -17  -6  11  -49.29   77.71
  17   6 -11  -11.83   39.19
 -17  -6  11   14.74   43.37
  17   6 -12   67.48   44.28
  17   6 -12  -59.40   53.75
 -17  -6  12  -16.61   80.89
 -17  -6  12  148.01   63.90
  17   6 -13  -11.30   27.47
 -17  -6  13   16.69   65.97
  17   6 -13   24.62   41.18
 -17  -6  13  -14.75   39.50
  17   6 -14   11.35   30.38
 -17  -6  14   16.77   68.32
  17   6 -14   49.50   47.79
 -17  -6  14  -14.82   44.46
  17   6 -15   11.42   23.87
 -17  -6  15   16.86   65.18
  17   6 -15   24.88   36.35
 -17  -6  15  -44.68   46.91
 -17   7   0  -35.87   40.91
  17  -7   0   36.21   28.98
 -17   7   1  -36.02   41.92
 -17   7  -1  -11.89   43.28
  17  -7  -1   18.22   26.56
  17  -7   1   17.99   28.14
 -17   7  -2   11.82   44.70
  17  -7   2  -17.76   26.95
 -17   7  -3  -12.57   41.73
  17   7  -3  -44.41   41.80
  17  -7   3   52.99   26.47
 -17  -7   4  -29.38   30.21
  17  -7   4   12.00   30.73
 -17   7  -4  -12.50   43.77
  17   7  -4  -33.33   38.56
  17  -7   4   26.35   26.19
 -17  -7   5  -14.70   32.61
  17   7  -5  -22.29   43.36
 -17  -7   6   58.88   44.36
  17   7  -6   22.32   49.51
 -17  -7   7  -14.75   26.24
  17   7  -7   11.18   34.09
 -17  -7   8   88.52   39.34
  17   7  -8  -22.47   41.05
 -17  -7   9  -14.79   35.96
  17   7  -9  -11.22   22.47
  17   7  -9   11.27   38.74
 -17  -7   9   65.08   66.44
  17   7 -10   11.26   31.93
  17   7 -10  -11.55   43.47
 -17  -7  10   16.32   75.92
 -17  -7  10   14.83   38.95
  17   7 -11  -22.59   37.96
  17   7 -11  -46.37   50.00
 -17  -7  11   16.56   78.46
 -17  -7  11  -29.77   48.96
  17   7 -12   11.34   21.88
 -17  -7  12  -49.87   65.39
  17   7 -12   23.96   40.28
 -17  -7  12  -14.94   35.24
  17   7 -13   11.39   29.33
  17   7 -13   48.13   41.90
 -17  -7  13  -29.96   43.77
 -17  -7  13   33.39   74.91
  17   7 -14  -22.88   28.29
 -17  -7  14  -33.76   66.47
  17   7 -14   12.09   44.39
 -17  -7  14   30.09   38.22
 -17   8  -1  -12.01   44.74
  17  -8   1  -27.31   33.38
 -17   8  -2  -23.92   43.80
  17  -8   2   18.10   26.51
 -17   8  -3  -23.80   46.52
  17  -8   3  -17.99   31.48
  17   8  -6  -22.55   43.86
 -17  -8   7   14.92   32.55
  17   8  -7  -45.27   47.04
 -17  -8   8  -14.94   43.58
  17   8  -8   56.69   52.50
 -17  -8   9   29.94   32.36
  17   8  -9  -22.78   38.54
 -17  -8  10   30.01   40.18
  17   8 -10   22.85   45.35
 -17  -8  11   15.05   31.83
 -17  -8  11  -16.53   66.07
  17   8 -11   23.42   43.47
 -17  -8  12   15.07   33.22
 -17  -8  12   16.59   68.59
  17   8 -12  -11.75   40.05
 -17  -8  13  -15.13   39.35
 -17  -8  13  -33.68   73.12
  17   8 -13  -23.59   46.90
  17   9  -8  -11.48   38.82
  17   9  -9   46.01   56.60
  17   9 -10  -11.56   39.08
  17   9 -11   57.93   68.42
 -17  -9  12   15.26   30.11
 -17  -9  12   16.76   68.30
  18   0   0   10.64   33.09
  18   0   0   68.98   44.14
 -18   0   0  -16.15   74.22
 -18   0   0   14.07   45.68
  18   0  -1  -10.66   29.46
  18   0   1  -10.86   25.97
 -18   0  -1   16.01   66.00
 -18   0   1   32.39   64.64
  18   0  -1   11.89   39.73
  18   0   1  -11.47   35.35
 -18   0   1  -14.11   39.24
 -18   0  -1  -14.05   40.64
  18   0   2   10.84   61.36
 -18   0  -2  -31.97   85.72
 -18   0   2   16.24   80.90
  18   0  -2   35.77   65.90
  18   0   2  -11.45   65.66
 -18   0   2   14.03   70.05
 -18   0  -2   14.23   69.55
  18   0  -2  224.54   63.86
  18   0   3   21.65   25.37
 -18   0   3   16.29   63.52
 -18   0  -3   15.96   61.80
  18   0  -3  -11.96   36.05
  18   0   3  -22.22   39.88
 -18   0   3   14.07   47.08
 -18   0  -3   14.21   43.81
  18   0  -3  -10.36   25.64
  18   0   4   32.45   40.64
 -18   0   4   16.35   72.45
  18   0  -4   12.01   47.62
  18   0   4   11.10   46.72
 -18   0   4   14.12   55.74
 -18   0  -4   14.20   48.19
 -18   0  -4   15.95   72.12
  18   0  -4   72.77   39.98
  18   0   5  -10.81   27.86
 -18   0  -5  -15.76   66.75
  18   0   5  -22.19   41.42
 -18   0   5   41.90   48.48
 -18   0  -5   14.31   38.25
  18   0  -5   62.63   32.55
  18   0   6   54.06   30.72
 -18   0  -6  -31.52   63.73
  18   0   6   11.10   37.80
 -18   0   6  -42.08   44.70
 -18   0  -6  -14.32   36.62
  18   0  -6   19.82   33.21
  18   0   7   32.45   27.17
 -18   0  -7   31.53   65.69
  18   0  -7   12.56   39.61
 -18   0   7  -49.68   68.03
  18   0   7   10.86   36.61
 -18   0   7   14.09   49.32
  18   0  -7   19.91   30.03
 -18   0  -7  -14.35   36.05
  18   0   8   10.83   22.44
 -18   0   8  -16.64   64.49
  18   0  -8   63.65   38.91
  18   0   8  -54.33   37.81
 -18   0   8  -28.31   51.30
  18   0  -8  -10.00   27.73
 -18   0  -8   14.36   34.41
 -18   0  -9  -14.38   30.46
 -18   0   9   16.73   63.94
  18   0  -9  -51.19   35.92
  18   0   9   10.88   35.16
 -18   0   9  -28.88   50.21
  18   0  -9   20.11   25.52
 -18   0 -10  -14.43   33.88
 -18   0  10   16.82   61.22
  18   0 -10   25.86   39.11
  18   0  10   43.61   39.43
 -18   0  10   14.52   47.19
  18   0 -10    9.66   30.88
 -18   0 -11  -14.47   37.16
  18   0 -11  -78.01   53.54
 -18   0  11   14.60   61.44
  18   0  11  -21.85   50.51
  18   0 -11  -38.86   43.54
  18   0 -12  143.87  122.01
 -18   0  12  117.51  124.73
  18   0  12  -32.78  117.07
  18   0 -12  215.02  116.33
  18   0 -13   39.64   40.54
 -18   0  13  -14.78   50.11
  18   0 -13  -19.67   29.31
  18   0 -14   39.90   54.96
 -18   0  14   13.76   61.89
  18   0 -14   59.41   52.19
  18   0 -15   40.16   36.14
  18   0 -15   29.90   29.45
  18   0 -16   53.93   65.71
 -18   0  16  -13.95   74.94
  18   0 -16   88.79   64.34
 -18   0  17   42.12   56.09
  18   0 -17   19.87   33.90
 -18   0  18   42.42   50.37
  18   0 -18   10.01   30.22
  18   1   0  -10.92   26.21
 -18   1   0  -16.14   66.32
 -18  -1   0   16.09   67.77
  18  -1   0  -47.35   38.43
  18   1   0   11.21   38.58
 -18   1   0  -13.94   42.19
 -18  -1   0  -14.32   41.26
  18  -1   0   10.25   30.74
  18   1  -1  -10.94   28.68
  18   1   1  -10.90   25.34
 -18   1   1  -16.18   68.19
 -18  -1   1   16.12   65.87
 -18   1  -1  -64.38   64.51
  18  -1  -1   83.10   39.28
  18  -1   1   94.44   42.33
  18   1  -1   69.36   40.13
  18   1   1  -22.38   36.48
 -18   1   1  -13.98   42.50
 -18   1  -1   55.63   45.55
 -18  -1   1  -14.14   37.73
 -18  -1  -1   28.60   42.40
 -18  -1  -1  -48.18   68.48
  18  -1  -1  -10.28   28.80
  18  -1   1   21.18   32.59
  18  -1   2   42.27   31.59
 -18   1   2 -129.91   68.25
  18   1  -2   10.72   30.42
  18   1   2   32.67   25.98
 -18  -1  -2   15.86   65.10
 -18   1  -2   16.06   64.64
  18  -1  -2  -24.62   40.65
  18  -1   2  -11.78   40.89
  18   1  -2   46.35   41.67
  18   1   2  -11.17   39.65
 -18   1   2  -41.45   47.38
 -18   1  -2   69.97   47.07
 -18  -1   2   14.17   40.93
 -18  -1  -2   14.28   40.16
 -18  -1   2  -16.16   65.45
  18  -1  -2   41.26   30.59
  18   1  -3   53.76   26.36
  18  -1   3   10.79   28.25
  18   1   3  -21.76   28.02
 -18  -1  -3   15.85   63.53
  18  -1  -3   24.71   40.08
  18   1  -3   69.72   42.75
  18  -1   3  -56.99   39.60
  18   1   3   66.99   38.49
 -18  -1   3 -212.06   66.65
 -18   1   3  -13.87   48.73
 -18   1  -3   16.03   69.13
 -18  -1   3   14.21   44.48
 -18   1  -3   27.94   44.68
 -18   1   3 -130.39   71.46
 -18  -1  -3  -14.39   38.21
  18  -1  -3   20.71   25.92
  18  -1   4   32.33   44.62
  18   1   4   32.63   41.63
  18  -1  -4   86.82   48.81
  18  -1   4   45.54   49.24
  18   1   4   54.60   49.94
 -18   1   4  -13.92   55.94
 -18  -1  -4  -47.52   72.22
 -18   1   4   16.37   68.57
 -18  -1   4   14.14   58.71
 -18   1  -4   14.15   55.42
 -18  -1  -4  -14.39   48.50
  18  -1  -4   39.30   40.68
 -18   1  -4   47.71   72.81
  18   1  -4   53.93   41.50
  18  -1   5  -21.53   26.66
  18   1   5  -21.76   26.43
 -18   1  -5   15.89   60.33
  18  -1  -5  -50.24   41.89
 -18   1   5   49.30   62.80
  18  -1   5  -22.75   37.14
  18   1   5  -10.92   37.52
 -18   1   5  -69.89   48.91
 -18  -1   5  -14.19   48.30
 -18   1  -5   14.14   43.07
  18  -1  -5    9.87   28.32
 -18  -1  -5  -14.40   37.31
  18   1  -5   10.45   29.74
  18  -1   6  -21.52   23.81
  18   1   6  -10.89   20.73
 -18  -1   6  -32.98   69.05
 -18   1  -6  -15.88   63.21
  18   1  -6   48.46   36.98
  18  -1   6  -22.73   38.43
  18   1   6  -21.86   33.00
 -18   1   6  -14.25   46.82
 -18  -1   6   99.68   49.87
 -18   1  -6  -14.14   39.57
  18  -1  -6   19.83   27.04
  18   1  -6   20.98   27.78
 -18  -1  -6   14.42   31.86
 -18  -1  -7   14.44   30.22
  18  -1   7  -10.76   28.37
  18   1  -7  -50.28   41.49
  18  -1   7  -44.17   38.87
 -18   1   7  -57.30   50.03
 -18   1  -7  -31.75   64.93
  18   1   7  -21.87   39.49
 -18  -1   7   42.90   48.63
 -18   1  -7   14.26   39.74
  18  -1  -7   19.04   28.78
 -18  -1   7  -16.56   65.47
  18   1  -7  -10.54   30.30
 -18   1  -8  -62.81   65.86
 -18  -1  -8   14.48   26.96
  18  -1   8  -10.76   23.06
 -18   1   8  -16.68   60.98
  18  -1  -8   12.80   35.06
  18   1  -8  -63.15   36.49
  18  -1   8  -33.13   36.48
 -18   1   8   14.39   46.49
  18   1   8  -21.84   33.93
 -18  -1   8   14.15   42.84
 -18  -1   8  -16.64   63.17
  18  -1  -8   86.12   29.80
 -18   1  -8   14.26   34.31
  18   1  -8   21.18   28.68
 -18  -1  -9  -14.51   29.76
  18  -1   9   10.77   28.67
 -18   1  -9  -15.71   64.93
  18  -1  -9   25.75   40.03
  18   1  -9   76.14   42.86
  18  -1   9  132.62   40.92
 -18   1   9   57.90   56.80
 -18  -1   9  -16.72   70.06
  18   1   9   32.84   39.65
 -18  -1   9  -28.44   55.52
  18  -1  -9   -9.62   30.87
  18   1  -9  -20.11   34.70
 -18   1  -9   14.30   37.81
 -18   1 -10  -14.32   42.26
 -18  -1  10  -16.80   71.08
  18  -1 -10   25.90   42.45
  18   1 -10   25.72   44.68
 -18   1  10  -13.47   56.51
  18  -1  10  -22.13   44.40
  18   1  10  -43.87   45.84
 -18  -1  10   14.29   51.01
  18  -1 -10  106.48   37.64
 -18   1 -10   47.18   70.61
  18   1 -10   60.64   37.34
 -18  -1  11  -33.79   93.47
  18  -1 -11  -91.55   49.70
  18   1 -11  -77.59   59.89
 -18   1  11  -13.55   54.92
  18   1  11  -11.00   42.54
 -18  -1  11 -100.57   64.33
  18  -1 -11    9.74   34.71
  18   1 -11   50.80   33.31
 -18  -1  12  -16.99   95.01
  18  -1 -12  -13.16   63.31
  18   1 -12  104.53   77.74
 -18   1  12   13.63   72.13
 -18  -1  12  -14.45   76.86
  18   1  12   33.09   65.06
  18  -1 -12   77.08   63.12
  18   1 -12  153.32   69.50
  18  -1 -13  -39.75   72.97
  18   1 -13  -39.43   77.24
 -18   1  13  -13.72   82.33
 -18  -1  13  -14.75   83.44
  18  -1 -13  203.61   75.14
  18   1 -13  154.25   73.91
  18  -1 -14  -40.02   39.57
  18   1 -14   39.68   41.17
 -18   1  14  -27.61   52.66
 -18  -1  14  -14.84   53.88
  18  -1 -14   29.28   33.21
  18   1 -14   72.45   35.72
  18   1 -15  -66.84   55.39
 -18   1  15  -27.80   64.70
 -18  -1  15   29.87   66.71
  18  -1 -15   78.62   52.12
  18   1 -15  119.36   54.47
  18   1 -16  -26.91   35.60
 -18   1  16  -13.10   45.18
 -18  -1  16   75.17   53.29
  18  -1 -16   29.70   32.11
  18   1 -16   10.02   27.88
  18   1 -17  -13.55   39.06
 -18  -1  17   60.55   56.89
  18   1 -17   30.26   33.20
 -18  -1  18  -76.18   63.23
  18   1 -18  -20.31   39.47
 -18  -1  19   92.05   59.24
  18   1 -19   10.23   41.01
 -18  -1  20  -30.90   65.55
  18   1 -20  -41.21   45.97
  18   2   0   54.89   34.41
  18  -2   0  -12.23   43.42
  18   2   0  -33.79   41.35
 -18   2   0   13.74   51.41
 -18   2   0   16.15   67.48
 -18  -2   0   15.98   69.59
 -18  -2   0   14.39   44.08
  18  -2   0   51.26   34.19
 -18   2  -1  -16.10   70.83
  18   2  -1   21.99   33.86
  18   2   1   10.97   33.81
 -18  -2   1   16.00   71.60
 -18  -2  -1   31.92   76.15
  18  -2  -1   36.82   44.18
  18  -2   1  -12.19   44.34
  18   2  -1  -11.28   46.00
  18   2   1  -22.01   44.91
 -18   2   1  -41.36   55.43
 -18   2  -1  -13.90   52.03
 -18   2   1   16.20   70.84
 -18  -2   1   14.41   46.03
 -18  -2  -1   28.99   45.26
  18  -2  -1   97.24   36.65
  18  -2   1   91.99   39.72
  18   2  -2   66.09   50.22
  18   2   2  -21.91   48.85
 -18   2  -2   32.11   79.23
  18  -2  -2  -12.32   52.65
  18  -2   2  176.55   60.09
 -18   2   2  -32.53   72.67
  18   2  -2  -11.31   53.78
 -18  -2   2   16.22   79.12
  18   2   2   55.00   54.82
 -18   2   2   41.51   62.89
 -18   2  -2  -13.87   59.68
 -18  -2   2   14.43   59.51
 -18  -2  -2  -14.49   52.53
  18  -2  -2  136.64   51.15
  18  -2   2  101.92   51.79
  18  -2   3   21.06   31.30
  18   2  -3  -11.04   31.59
  18   2   3  -10.95   28.89
 -18   2  -3  -48.06   72.53
 -18   2   3  -16.33   64.08
  18  -2  -3   99.75   44.17
  18  -2   3  140.92   45.63
  18   2   3  -11.00   39.74
 -18   2   3  -14.10   50.02
 -18   2  -3  -41.53   45.36
 -18  -2   3  -14.26   45.14
  18  -2  -3   48.99   33.89
 -18  -2  -3   28.97   38.38
  18  -2   4  -10.51   26.05
  18   2  -4   33.21   30.55
  18   2   4   10.96   25.21
 -18   2  -4  -15.99   64.48
 -18   2   4  -49.21   73.47
  18  -2  -4  -12.52   33.08
  18  -2   4   11.72   36.94
  18   2  -4  -58.48   36.47
 -18   2   4  -14.16   49.56
  18   2   4   11.00   38.17
 -18   2  -4   55.73   44.37
 -18  -2   4  -14.30   38.89
  18  -2  -4   -9.40   25.95
 -18  -2  -4   14.51   29.84
 -18  -2  -5  -14.52   63.95
  18   2  -5  141.13   65.19
  18  -2   5   21.48   62.53
 -18   2   5   16.48   80.86
 -18   2  -5   63.87   87.61
  18  -2  -5  188.77   69.96
  18  -2   5  -11.70   68.26
  18   2  -5   11.73   67.02
 -18   2   5  -14.23   75.34
  18   2   5   10.98   66.92
 -18  -2   5  -16.46   92.98
 -18  -2   5   14.34   73.57
 -18   2  -5   13.92   72.67
  18  -2  -5  170.03   64.60
  18   2  -6   21.79   36.61
 -18  -2  -6  -14.56   36.38
  18  -2   6   53.62   34.56
 -18   2   6   16.56   67.95
 -18  -2   6   33.03   71.90
  18  -2  -6   25.41   43.50
  18   2  -6   72.89   49.00
  18  -2   6   22.66   45.02
 -18   2  -6  127.62   70.48
 -18   2   6   28.59   49.60
  18   2   6  -32.96   42.56
 -18  -2   6   14.39   48.98
 -18   2  -6   14.10   49.94
  18  -2  -6   18.99   38.67
  18  -2   7   21.44   26.00
 -18  -2  -7   14.58   25.07
 -18  -2   7  -49.74   70.14
  18   2  -7   24.39   39.40
  18  -2   7   33.98   37.77
 -18   2   7  -13.30   46.61
  18   2   7  -66.02   37.08
 -18  -2   7  -14.32   40.60
 -18   2  -7  143.44   73.54
 -18   2  -7  -14.09   37.81
  18  -2  -7   19.09   26.45
  18   2  -7   10.94   25.53
  18  -2   8  -42.86   25.47
 -18  -2  -8   14.61   22.67
 -18  -2   8  -16.65   65.50
  18   2  -8   73.48   38.40
  18  -2   8   11.32   35.54
 -18   2   8  -13.37   47.78
  18   2   8  -11.02   34.62
  18  -2  -8   18.87   25.27
 -18   2  -8   14.21   37.18
 -18   2  -8   79.14   67.97
  18   2  -8  -10.99   27.52
  18  -2   9   10.72   45.50
 -18   2  -9  -31.65   73.30
  18  -2  -9   25.94   49.35
  18   2  -9   38.13   53.95
 -18   2   9   40.34   61.04
  18  -2   9   11.32   54.03
  18   2   9  -33.07   53.83
 -18  -2   9   72.22   60.22
  18  -2  -9   66.42   47.47
 -18   2  -9   14.21   53.63
 -18  -2   9   16.73   77.08
  18   2  -9  170.44   52.97
  18  -2 -10   26.10   33.04
  18   2 -10  -38.31   44.45
 -18   2  10  -27.05   47.88
 -18  -2  10  -43.53   50.91
 -18  -2  10  -33.61   70.86
  18  -2 -10    9.55   26.94
  18   2 -10   53.52   32.46
  18  -2 -11  -13.13   42.53
  18   2 -11  -12.94   56.69
 -18   2  11   13.61   59.00
 -18  -2  11   16.89  105.91
 -18  -2  11  -58.33   61.42
  18  -2 -11   67.26   33.10
  18   2 -11   21.52   38.27
  18  -2 -12  -26.43   37.14
  18   2 -12  -26.02   58.41
 -18   2  12  -12.82   56.35
 -18  -2  12 -144.46   63.67
  18   2 -12  -10.82   40.87
 -18  -2  13   17.08   84.78
  18   2 -13   52.35   66.11
 -18   2  13   25.80   72.39
 -18  -2  13   14.53   74.09
  18  -2 -13   58.86   60.58
  18   2 -13   87.07   60.55
 -18  -2  14  -17.18   63.13
  18   2 -14  -66.12   40.90
 -18   2  14  -12.98   48.98
 -18  -2  14  -87.66   55.24
  18  -2 -14   39.49   27.57
  18   2 -14   82.77   35.06
  18   2 -15  -13.31   76.55
 -18  -2  15   44.10   84.42
  18   2 -15  145.75   76.81
  18   2 -16  -26.79   43.23
 -18  -2  16   14.80   56.22
  18   2 -16   62.86   40.76
  18   2 -17   13.53   68.08
 -18  -2  17   29.78   82.07
  18   2 -17  105.50   67.90
  18   2 -18  -27.26   32.46
 -18  -2  18   29.98   53.60
  18   2 -18  -10.62   27.64
  18   2 -19   13.73   49.14
 -18  -2  19  -15.32   65.30
  18   2 -19   74.86   50.54
  18   3   0  -22.11   31.31
 -18   3   0   16.19   67.72
  18  -3   0   24.70   43.30
  18   3   0  -33.28   40.09
 -18   3   0  -13.78   52.67
  18  -3   0  135.87   38.27
 -18  -3   0  -14.60   45.93
  18   3  -1  -11.06   35.15
  18   3   1   11.04   32.45
 -18   3   1   32.51   68.09
  18  -3  -1   12.40   43.52
 -18  -3   1  -16.09   72.56
  18  -3   1   86.15   47.86
 -18   3  -1   32.27   65.58
  18   3  -1  -11.11   43.50
  18   3   1   66.53   45.20
 -18   3   1  -14.03   52.59
 -18   3  -1   13.73   55.76
 -18  -3   1  -29.22   45.29
  18  -3  -1  116.93   38.29
  18  -3   1    9.67   33.71
 -18  -3  -1   29.23   42.20
  18   3  -2  -11.08   33.26
  18   3   2   22.09   33.20
 -18   3   2  -16.32   64.97
  18  -3  -2   24.90   45.61
  18  -3   2   36.50   45.87
 -18   3   2   14.09   53.44
  18   3   2   11.06   43.92
 -18   3  -2   16.09   64.58
 -18   3  -2   41.06   52.95
 -18  -3   2   14.63   43.20
  18  -3  -2   84.12   39.74
  18  -3   2   30.61   34.83
 -18  -3  -2  -14.61   38.75
 -18  -3  -3  -14.61   39.72
  18   3  -3   11.10   36.84
 -18   3   3   32.78   63.14
  18  -3  -3   50.26   44.84
  18  -3   3   84.96   48.32
  18   3  -3   34.18   46.11
 -18   3   3  -14.15   55.23
  18   3   3   55.29   45.28
 -18   3  -3   13.85   52.88
 -18   3  -3   48.12   66.71
 -18  -3   3  -43.62   48.25
  18  -3  -3   37.55   38.96
  18  -3   3   50.87   38.86
 -18  -3  -4   14.65   35.40
  18   3  -4  -11.13   36.33
  18  -3  -4   25.25   45.80
  18  -3   4   12.11   44.71
  18   3  -4  -45.69   41.50
 -18   3   4   26.31   48.44
  18   3   4  -11.07   42.44
 -18  -3   4  -49.11   71.56
 -18   3  -4   13.82   47.09
 -18  -3   4  -14.57   49.54
  18  -3  -4  113.20   38.45
 -18   3  -4  -80.03   67.77
  18  -3   4  105.10   36.68
  18  -3   5   83.92   33.46
  18   3  -5   11.16   32.20
 -18   3  -5  -31.94   63.78
 -18  -3  -5   14.66   32.85
 -18  -3   5  -16.41   68.79
  18  -3  -5  -12.69   37.51
  18  -3   5  -36.24   40.96
 -18   3   5  -13.22   49.92
  18   3  -5   47.15   43.68
  18   3   5  110.76   46.26
 -18   3  -5  -13.91   47.69
 -18  -3   5  -14.61   49.70
  18  -3  -5   18.64   31.84
  18  -3   6  -10.47   29.22
 -18  -3   6  -82.33   62.10
  18   3  -6  -22.38   31.34
 -18  -3  -6   14.69   23.37
 -18   3  -6  111.61   69.70
  18  -3  -6  -25.61   33.25
  18  -3   6   11.67   40.40
 -18   3   6  -39.86   48.32
  18   3  -6   59.13   37.49
  18   3   6  -22.14   41.71
 -18   3  -6  -13.89   49.16
 -18  -3   6  -14.44   43.56
  18  -3  -6  131.20   32.89
  18   3  -7   56.15   41.53
  18  -3   7  -21.40   41.11
 -18   3  -7   63.69   72.16
  18  -3  -7   25.75   48.43
  18  -3   7  -11.66   49.34
 -18   3   7   13.36   54.83
  18   3  -7   47.46   51.87
  18   3   7  155.24   52.41
 -18  -3   7  -16.63   74.72
 -18   3  -7   13.88   53.24
  18  -3  -7   47.11   41.74
  18   3  -8   11.02   37.38
  18  -3   8   42.75   37.20
 -18   3  -8  -63.64   71.69
 -18  -3   8   16.70   74.71
  18  -3  -8   51.82   43.07
 -18   3   8   12.58   47.53
  18  -3   8   23.30   45.55
  18   3  -8  -49.15   50.73
 -18  -3   8  -29.08   49.07
 -18   3  -8  -14.07   48.42
  18  -3  -8  132.68   40.13
  18   3  -9  -11.07   29.64
 -18  -3   9   16.76   68.14
 -18   3   9   37.94   46.95
  18   3  -9  -12.34   42.20
 -18  -3   9  -14.60   44.35
  18  -3  -9   38.14   30.68
  18   3 -10   22.23   32.72
 -18  -3  10  -16.84  107.20
  18  -3 -10  -26.23   33.56
 -18   3  10  -38.18   58.48
  18   3 -10  -24.79   51.90
 -18  -3  10 -102.64   64.27
  18  -3 -10   38.67   25.15
 -18   3  11   64.02  132.75
  18   3 -11   64.33  130.91
  18  -3 -11   97.29  120.24
 -18  -3  11   16.92  156.50
  18   3 -11  111.68  124.26
  18   3 -12  -38.79   47.43
 -18  -3  12  -34.01   67.40
 -18  -3  12   14.68   54.20
  18   3 -12   11.23   28.71
  18   3 -13  -65.53   54.79
 -18  -3  13   68.36   74.03
 -18  -3  13   59.04   61.28
  18   3 -13   87.19   45.03
 -18  -3  14  -51.57   76.21
  18   3 -14  -13.18   40.59
 -18  -3  14  -29.68   51.71
  18   3 -14   10.96   30.54
 -18  -3  15  -17.29   75.49
  18   3 -15   39.78   47.71
 -18  -3  15   44.78   54.53
  18   3 -15   33.08   40.59
  18   3 -16  -40.20   65.23
 -18  -3  16   90.09   72.47
  18   3 -16  110.96   62.82
  18   3 -17   40.47   35.23
 -18  -3  17  -14.89   51.76
  18   3 -17  -11.16   32.22
  18   3 -18   13.63   42.24
 -18  -3  18  -74.92   60.55
  18   3 -18  -11.24   34.46
  18   4   0   22.28   44.63
 -18   4   0  -48.79   72.37
  18  -4   0   24.90   51.18
 -18   4   0  -14.04   60.04
  18   4   0   78.12   53.98
  18  -4   0   83.76   47.77
 -18  -4   0   29.47   56.01
 -18  -4  -1   29.46   38.07
  18   4  -1   33.45   25.29
 -18   4  -1   16.20   60.02
  18  -4  -1   12.50   35.90
  18  -4   1   49.39   40.59
 -18   4   1  -42.29   45.33
 -18   4  -1   13.98   48.95
  18   4   1   33.47   36.37
  18  -4  -1   37.38   31.27
  18  -4   1  -29.11   30.37
 -18  -4   1  -14.74   33.61
 -18  -4  -2   29.52   36.64
  18   4  -2   22.33   32.27
 -18   4  -2  -16.14   67.31
  18  -4  -2   25.12   39.34
  18  -4   2   12.30   42.35
 -18   4   2  -13.10   51.15
  18   4  -2  100.87   46.18
  18   4   2  -55.79   43.38
 -18   4  -2   13.73   50.44
  18  -4  -2   75.11   35.49
  18  -4   2    9.67   35.29
 -18  -4   2  -14.74   38.44
 -18  -4   3  -16.25   79.33
 -18  -4  -3   14.77   38.77
  18   4  -3   22.36   35.33
 -18   4  -3   32.18   68.63
  18  -4  -3   12.62   43.17
  18  -4   3   12.26   45.31
 -18   4   3  -13.16   54.66
  18   4  -3   78.57   49.49
  18   4   3  -11.14   43.29
 -18   4  -3   13.69   54.18
  18  -4  -3   74.19   38.74
 -18  -4   3   14.76   43.24
  18  -4   3   38.55   40.03
  18   4  -4  -22.40   25.01
 -18  -4  -4  -14.79   27.11
 -18  -4   4  -16.28   64.23
  18  -4  -4  -50.95   34.24
 -18   4  -4   32.09   59.79
  18  -4   4  -12.22   39.05
 -18   4   4  -13.23   46.35
  18   4  -4   45.98   42.43
  18   4   4  -22.31   36.46
 -18   4  -4  -13.86   47.66
  18  -4  -4   -9.32   25.09
 -18  -4   4   29.56   36.52
  18  -4   4   10.17   26.81
  18   4  -5  -22.45   39.60
 -18  -4   5   16.32   72.69
  18  -4  -5   64.03   43.48
  18  -4   5   12.19   48.99
 -18   4   5   37.33   54.31
 -18   4  -5   16.00   71.17
  18   4  -5  -11.52   47.97
 -18   4  -5  -13.82   54.52
  18  -4  -5  121.82   44.86
 -18  -4   5   14.81   48.91
  18  -4   5   50.70   42.20
  18   4  -6  -22.51   27.21
  18  -4  -6   51.50   33.37
  18  -4   6   48.28   39.68
 -18   4   6   12.51   41.04
  18   4  -6  -11.55   38.46
 -18   4  -6  -63.86   64.30
 -18   4  -6  -13.79   44.12
  18  -4  -6   47.11   27.47
 -18  -4   6   29.45   40.12
  18  -4   6   20.96   26.92
  18  -4   7   41.84   35.58
  18   4  -7   11.29   29.99
 -18  -4   7  -33.19   74.58
  18  -4  -7  -25.90   34.68
  18  -4   7   84.33   44.17
 -18   4   7  -12.58   48.57
  18   4  -7  -23.86   43.13
 -18   4  -7   15.94   65.61
 -18   4  -7  -13.89   48.81
  18  -4  -7   57.29   32.29
 -18  -4   7   44.29   46.72
  18   4  -8   33.99   30.96
 -18   4   8  -50.62   46.11
  18   4  -8  -47.87   38.93
 -18  -4   8  -14.81   39.91
  18  -4  -8   -9.61   23.89
 -18  -4   8   66.59   67.16
  18   4  -9  -56.86   34.39
 -18   4   9  -12.73   69.08
  18   4  -9  -48.06   49.34
 -18  -4   9  -16.82   88.80
 -18  -4   9  -59.46   55.29
  18  -4  -9   67.67   34.12
  18   4 -10  171.27  170.85
 -18  -4  10   33.79  201.52
  18   4 -10  124.45  175.06
 -18  -4  10  353.12  182.23
  18   4 -11  -22.94   35.74
 -18  -4  11  -16.97   75.60
  18   4 -11   25.00   45.68
 -18  -4  11  -73.89   55.00
  18   4 -12   11.26   28.89
 -18  -4  12  -17.05   73.92
  18   4 -12  -38.92   40.48
 -18  -4  12   29.69   50.16
  18   4 -13   33.96   30.84
  18   4 -13  -26.09   38.90
 -18  -4  13   14.92   49.13
 -18  -4  13   17.14   65.78
  18   4 -14   34.14   39.27
  18   4 -14   13.11   48.25
 -18  -4  14   17.22   72.56
 -18  -4  14   44.98   54.52
  18   4 -15  -22.89   27.67
 -18  -4  15  -17.32   66.94
  18   4 -15   53.16   41.98
 -18  -4  15   45.24   48.98
 -18  -4  16   52.26   69.84
  18   4 -16   13.37   37.98
 -18  -4  16  -30.08   47.97
  18   4 -16  -11.51   27.64
 -18  -4  17   17.53   66.72
  18   4 -17  -13.52   39.32
 -18  -4  17   30.26   48.10
  18   4 -17  -23.17   33.45
 -18  -5   0  -14.89   25.66
  18  -5   0   37.70   34.69
 -18   5   0   13.07   44.96
  18  -5   0   -9.36   27.25
 -18  -5   1  -14.89   36.10
 -18  -5  -1  -14.89   32.70
  18  -5  -1   12.62   35.90
  18  -5   1   49.87   41.15
 -18   5   1  -52.49   46.46
 -18   5  -1  -14.06   52.46
  18   5  -1   11.27   40.92
  18   5   1   22.49   40.19
  18  -5  -1   73.91   35.00
  18  -5   1   37.27   32.77
 -18  -5   2  -14.88   38.33
 -18  -5  -2   29.81   35.19
  18  -5  -2   25.37   36.10
  18  -5   2  -12.42   39.93
 -18   5   2   13.19   51.87
 -18   5  -2   42.02   50.99
  18   5  -2   11.28   42.47
  18   5   2  101.26   46.88
  18  -5  -2    9.28   33.54
  18  -5   2   37.11   36.88
  18   5  -3   11.27   20.11
  18  -5  -3  -25.50   31.03
  18  -5   3  -49.47   35.97
 -18   5   3   12.40   43.42
  18   5  -3   67.92   40.31
 -18   5  -3   41.88   48.86
  18  -5  -3  -28.00   26.12
  18  -5   3    9.68   24.79
 -18  -5   3  -14.89   31.38
  18   5  -4  -11.29   28.17
 -18   5  -4  -16.12   60.92
  18  -5  -4  -38.47   36.49
  18  -5   4  -61.64   39.63
 -18   5   4   12.46   44.28
  18   5  -4  -22.67   41.47
 -18   5  -4  -54.83   48.96
  18  -5  -4  103.97   32.36
  18  -5   4   77.14   30.70
 -18  -5   4  -14.91   36.53
  18   5  -5  -22.62   27.38
 -18   5  -5   80.35   56.40
  18  -5   5  -12.29   34.68
 -18   5   5   37.61   41.34
  18   5  -5  -11.36   37.89
 -18   5  -5   13.67   56.40
  18  -5  -5   28.52   31.97
 -18  -5   5  -14.92   38.09
  18  -5   5   61.04   31.13
 -18  -5   5  -16.43   67.60
 -18  -5   6   16.46   70.61
  18   5  -6   11.34   25.75
  18  -5   6   48.80   34.60
 -18   5   6   25.20   41.33
  18   5  -6  -23.27   38.29
 -18   5  -6  -13.84   44.34
  18  -5  -6   19.12   25.40
 -18  -5   6   14.95   37.23
  18  -5   6  -10.15   29.50
  18   5  -7  -11.37   27.61
 -18  -5   7  -16.51   71.32
  18   5  -7   11.67   37.87
 -18  -5   7  -14.98   35.47
  18   5  -8   11.40   32.84
 -18  -5   8   16.75   79.64
  18   5  -8  -23.40   46.96
 -18  -5   8   15.02   42.65
  18   5  -9   57.18   38.03
 -18  -5   9   16.80   79.14
  18   5  -9  -12.08   47.04
 -18  -5   9  -14.95   53.20
  18   5 -10   11.48   28.54
  18   5 -10  -36.39   42.86
 -18  -5  10  -33.95   72.57
 -18  -5  10   15.00   42.34
  18   5 -11   11.53   25.40
 -18  -5  11  -17.04   69.59
  18   5 -11  -25.13   40.40
 -18  -5  11   15.06   40.93
  18   5 -12   11.58   25.29
 -18  -5  12  -17.12   68.24
  18   5 -12  -12.62   43.58
 -18  -5  12   15.12   41.90
  18   5 -13   34.89   47.85
 -18  -5  13   85.99   80.11
  18   5 -13   12.68   56.36
 -18  -5  13   91.13   62.71
  18   5 -14   11.69   35.87
  18   5 -14   13.16   46.75
 -18  -5  14   76.31   50.56
 -18  -5  14  -17.28   72.44
  18   5 -15   11.75   25.34
  18   5 -15  -39.70   44.69
 -18  -5  15  -17.37   67.74
 -18  -5  15   30.24   44.49
  18   5 -16  -11.82   31.63
 -18  -5  16  -17.47   68.29
  18   5 -16  -13.42   39.34
 -18  -5  16   30.41   45.58
  18  -6   0   63.30   64.00
 -18   6   0   13.17   71.13
  18  -6   0   74.11   63.02
 -18  -6   1   15.04   31.24
  18  -6  -1  -12.72   34.58
  18  -6   1   75.59   38.03
 -18   6   1   49.52   53.81
 -18   6  -1   13.11   48.36
  18   6  -1  -11.36   40.87
  18  -6  -1   18.62   31.37
  18  -6   1   18.44   32.29
 -18  -6   2   45.13   36.94
  18  -6   2   25.09   37.00
 -18   6   2   24.88   45.17
 -18   6  -2   26.11   51.26
  18   6  -2   11.39   42.33
  18  -6  -2   28.29   34.63
  18  -6   2   18.68   34.17
 -18  -6   3   15.05   28.44
  18  -6   3  -49.96   37.10
 -18   6   3  -50.03   44.06
 -18   6  -3  -14.05   50.92
  18   6  -3  -11.40   39.66
  18  -6  -3   18.96   30.75
  18  -6   3   -9.30   29.31
 -18  -6   4  -15.04   32.70
  18  -6   4   12.44   35.22
 -18   6   4   62.74   48.87
 -18   6  -4  -14.00   53.01
  18   6  -4   11.41   39.55
  18  -6  -4    9.53   28.85
  18  -6   4   19.40   30.60
 -18  -6   5  -15.06   38.09
  18  -6   5  -24.80   42.93
  18   6  -5  -68.75   49.28
  18  -6   5    9.66   35.72
  18   6  -6  -22.86   26.30
  18   6  -6   22.96   44.47
 -18  -6   6   30.18   33.27
 -18  -6   7  -16.63   74.35
  18   6  -7  -11.46   29.58
  18   6  -7   23.01   44.08
 -18  -6   7   60.47   37.44
  18   6  -8  -34.47   42.63
 -18  -6   8  -16.67   76.86
  18   6  -8  -23.58   53.73
 -18  -6   8  -60.61   53.20
  18   6  -9   11.52   28.75
  18   6  -9   11.83   41.42
 -18  -6   9   16.91   68.84
 -18  -6   9   30.35   39.01
  18   6 -10   34.67   32.86
 -18  -6  10   33.93   73.29
  18   6 -10   12.22   44.96
 -18  -6  10   15.22   45.71
  18   6 -11   58.01   33.30
  18   6 -11  -12.26   44.23
 -18  -6  11  -30.55   45.22
 -18  -6  11   68.11   76.67
  18   6 -12  -23.29   26.37
  18   6 -12   36.92   44.97
 -18  -6  12  -86.06   75.49
 -18  -6  12   30.67   39.95
  18   6 -13  -35.10   35.70
 -18  -6  13  -17.29   75.16
  18   6 -13  -12.75   48.38
 -18  -6  13   15.40   43.03
  18   6 -14  -23.50   31.86
 -18  -6  14   34.73   72.33
  18   6 -14  -38.44   44.07
 -18  -6  14   30.68   42.77
  18   6 -15  -11.81   24.32
  18   6 -15   26.60   39.99
 -18  -6  15  -30.83   44.02
 -18  -6  15  -17.45   67.77
 -18   7   0  -12.44   48.30
  18  -7   0    9.41   25.87
 -18   7   1   37.49   61.34
 -18   7  -1   12.38   58.20
  18  -7  -1   47.30   41.25
  18  -7   1   27.89   41.42
 -18   7  -2   13.17   45.02
  18  -7   2   -9.26   30.01
 -18   7  -3  104.87   62.81
  18   7  -3   11.50   46.34
  18  -7   3  -18.75   26.36
 -18  -7   4   76.06   35.12
  18  -7   4   25.08   36.15
  18   7  -4  -34.59   47.51
  18  -7   4   -9.33   27.34
 -18  -7   5  -30.46   36.60
  18   7  -5  -11.55   45.03
 -18  -7   6  -15.25   53.25
  18   7  -6  -69.37   61.35
 -18  -7   7   61.10   51.98
  18   7  -7   34.84   56.47
 -18  -7   8  -15.28   38.99
 -18  -7   8  -33.63   70.50
  18   7  -8  -23.27   42.18
 -18  -7   9   61.27   46.02
 -18  -7   9   16.85   73.94
  18   7  -9   11.93   48.81
 -18  -7  10   16.90   69.47
  18   7 -10  -11.65   24.58
  18   7 -10   11.96   42.24
 -18  -7  10   15.36   34.60
  18   7 -11  -11.69   23.38
 -18  -7  11  -17.15   69.98
  18   7 -11  -12.00   42.66
 -18  -7  11   15.41   36.87
 -18  -7  12  -17.21   65.20
  18   7 -12  -46.93   26.41
  18   7 -12   49.59   39.46
 -18  -7  12   61.85   32.55
  18   7 -13  -23.56   28.86
  18   7 -13  -24.90   45.13
 -18  -7  13   52.18   75.07
 -18  -7  13  -31.00   40.67
  18   7 -14   11.83   25.09
 -18  -7  14  -17.47   70.49
  18   7 -14  -38.69   46.76
 -18  -7  14   15.57   34.43
 -18   8  -1   12.51   46.60
  18  -8   1    9.46   26.74
 -18   8  -2  -24.90   49.39
  18  -8   2   28.04   29.78
  18   8  -6   23.37   42.85
 -18  -8   7  -15.43   31.97
  18   8  -7  -23.41   44.59
 -18  -8   8   30.90   43.01
  18   8  -8   35.26   51.82
 -18  -8   9  -15.48   33.68
  18   8  -9   35.35   43.62
 -18  -8  10  -15.52   32.80
 -18  -8  10   51.15   72.41
  18   8 -10  -36.22   43.28
 -18  -8  11  -15.56   35.95
 -18  -8  11   17.10   78.12
  18   8 -11   48.44   45.43
 -18  -8  12  -31.22   32.10
 -18  -8  12  -17.35   67.16
  18   8 -12   24.30   41.03
 -18  -8  13  -15.64   82.28
 -18  -8  13   17.42  102.85
  18   8 -13  188.30   91.12
  18   9  -9  -35.72   50.88
  18   9 -10  -59.67   68.09
  18   9 -11   23.94   45.56
 -18  -9  11   17.26   74.41
 -18  -9  12  -15.75   29.25
 -18  -9  12   17.31   75.14
  19   0   0   56.55   37.67
 -19   0   0   16.79   76.33
  19   0   0  -24.66   48.87
 -19   0   0   29.26   51.04
  19   0  -1  -11.08   27.41
  19   0   1  -11.29   27.94
 -19   0   1   33.66   71.71
  19   0  -1   12.35   36.34
  19   0   1   11.93   37.17
 -19   0  -1  -33.53   73.07
 -19   0   1   29.31   42.05
 -19   0  -1  -14.82   45.67
  19   0  -2   11.11   27.02
  19   0   2  -11.27   26.43
 -19   0   2   16.87   65.76
  19   0  -2   12.39   40.25
  19   0   2  -11.91   36.32
 -19   0   2  -14.69   44.78
 -19   0  -2  -14.80   37.87
 -19   0  -2   16.63   70.04
  19   0   3  -22.53   27.11
 -19   0   3   50.75   70.04
 -19   0  -3   49.84   69.20
  19   0  -3   49.67   44.69
  19   0   3   35.70   38.43
 -19   0   3  -14.61   42.60
 -19   0  -3   14.79   43.64
  19   0  -3  -22.28   30.47
  19   0   4   22.51   28.80
 -19   0  -4  -66.40   70.32
  19   0  -4   38.61   41.82
  19   0   4  -11.89   40.16
 -19   0   4  -14.65   45.66
 -19   0  -4   14.90   38.12
 -19   0   4   16.97   72.30
  19   0  -4  -21.58   33.62
  19   0   5  -11.25   55.49
  19   0   5   11.55   65.59
 -19   0  -5 -182.56   90.25
 -19   0   5 -102.14   96.77
 -19   0  -5  -14.90   63.01
  19   0  -5   43.30   58.47
 -19   0  -6   16.41   79.45
  19   0   6   45.03   43.97
  19   0   6   92.40   56.75
 -19   0   6   43.61   67.10
 -19   0  -6  -44.72   55.57
  19   0  -6   21.73   50.19
  19   0   7  -45.04   34.73
 -19   0  -7   49.26   81.41
  19   0  -7  -65.60   49.80
 -19   0   7   17.16   76.55
  19   0   7   23.11   43.10
 -19   0   7   43.78   50.99
  19   0  -7   10.91   34.83
 -19   0  -7  -14.93   42.71
 -19   0  -8  -29.91   48.00
 -19   0  -8  -65.73   76.03
 -19   0   8  -17.23   76.30
  19   0  -8  -13.18   53.65
  19   0   8  -34.70   53.44
 -19   0   8  -29.31   60.83
  19   0  -8  -41.42   43.94
 -19   0  -9  -65.83   79.69
 -19   0  -9   14.99   45.68
 -19   0   9   17.31   74.27
  19   0  -9  -26.47   48.45
  19   0   9   56.66   51.07
 -19   0   9   14.72   60.81
  19   0  -9   93.62   45.27
 -19   0 -10   15.03   23.93
 -19   0  10  -17.39   61.36
 -19   0 -10  -16.49   69.43
  19   0 -10   26.72   37.85
  19   0  10  -22.70   40.06
 -19   0  10   44.36   52.19
  19   0 -10  -10.45   29.22
  19   0 -11   26.86   36.43
  19   0  11  -34.12   40.93
 -19   0  11   15.08   51.87
  19   0 -11   31.52   30.26
  19   0 -12   13.50   39.61
 -19   0  12   30.31   59.58
  19   0 -12  -31.68   28.51
  19   0 -13  -27.26   31.36
 -19   0  13  -30.48   52.34
  19   0 -13   10.14   29.08
 -19   0  14  -15.32   58.17
  19   0 -14  -10.20   28.94
 -19   0  15  -15.41   58.47
  19   0 -15  -10.26   29.45
  19  -1   0   11.04   28.91
  19   1   0   22.69   27.73
 -19   1   0  -16.78   67.43
 -19  -1   0   50.16   69.78
  19  -1   0  -12.31   41.09
  19   1   0  -11.99   39.31
 -19   1   0   28.99   45.67
 -19  -1   0   14.88   44.78
  19  -1   1   11.02   33.53
 -19   1   1   84.12   74.41
  19   1  -1   11.36   31.86
  19   1   1   11.33   33.45
 -19   1  -1   16.75   68.70
 -19  -1  -1   16.70   75.44
  19  -1  -1  -12.75   44.66
  19  -1   1  110.55   43.62
  19   1  -1   12.01   41.71
  19   1   1  -11.97   41.59
 -19   1   1   14.53   48.25
 -19   1  -1  -14.59   49.34
 -19  -1   1   29.80   46.40
 -19  -1  -1  -14.86   42.62
 -19  -1   1   66.99   72.47
  19  -1  -1   22.13   30.41
  19  -1   2  -11.25   30.87
  19   1  -2   34.16   34.52
  19   1   2   11.32   29.23
 -19   1  -2   66.87   67.01
  19  -1  -2  -12.79   39.67
  19  -1   2   12.26   41.37
  19   1  -2   36.10   46.28
  19   1   2  -11.62   37.11
 -19  -1   2 -101.38   71.60
 -19  -1  -2  -16.68   68.60
 -19   1   2   87.41   58.65
 -19   1  -2   14.56   44.27
 -19  -1   2  -14.72   43.15
 -19   1   2  -16.87   67.60
 -19  -1  -2  -14.97   40.47
  19  -1  -2   53.58   32.71
  19   1  -3  -11.16   28.58
  19  -1   3   11.23   29.23
  19   1   3   11.31   25.50
 -19  -1  -3   16.48   68.59
 -19  -1   3  -16.93   66.49
 -19   1  -3  -16.69   68.60
  19  -1  -3  -12.83   40.85
  19   1  -3   49.77   39.22
  19  -1   3  -36.73   42.12
  19   1   3  -23.22   43.02
 -19   1   3   14.61   52.45
 -19   1   3  -16.92   74.58
 -19  -1   3   14.75   44.98
 -19   1  -3  -14.75   42.35
 -19  -1  -3  -14.96   35.75
  19  -1  -3   21.50   25.70
  19   1  -4  -11.19   28.84
  19  -1   4   11.22   26.52
  19   1   4  -56.54   34.63
 -19  -1   4   16.98   73.70
  19  -1  -4  -12.87   43.99
  19  -1   4  -11.86   41.27
 -19   1   4  -16.98   72.86
  19   1   4  -34.81   48.99
 -19  -1  -4   32.95   73.47
 -19   1  -4   66.70   71.13
 -19   1   4  -43.33   48.44
 -19  -1   4  -29.58   43.66
 -19   1  -4   29.48   40.21
 -19  -1  -4   14.97   35.23
  19  -1  -4   53.93   28.68
  19  -1   5   11.21   30.82
  19   1   5   56.56   30.20
 -19   1   5   34.08   88.50
  19  -1  -5  -13.02   40.73
 -19  -1  -5   16.48   75.65
  19  -1   5  -11.85   45.73
  19   1   5  -69.66   49.08
 -19   1   5   14.49   58.46
 -19  -1   5  -44.14   52.81
 -19   1  -5 -166.62   90.52
 -19   1  -5  -29.47   50.22
  19  -1  -5   10.23   30.88
 -19  -1  -5  -14.99   44.10
  19   1  -5  -33.67   37.47
 -19  -1  -6  -30.00   80.24
 -19  -1   6  102.57  114.02
  19  -1   6   33.63   76.64
 -19   1  -6   99.27  111.50
  19   1   6   90.53   80.20
 -19  -1  -6 -230.84  103.79
 -19   1   6   34.22  102.97
  19  -1  -6  156.90   87.12
  19   1  -6  -12.97   84.39
  19  -1   6   47.38   83.09
  19   1   6  204.49   88.20
 -19   1   6  116.43   93.38
 -19  -1   6   14.76   94.69
 -19   1  -6   44.55   90.17
  19  -1  -6  143.84   80.35
  19   1  -6  135.16   80.12
 -19  -1  -7   15.02   38.71
  19  -1   7  -22.42   31.27
 -19   1  -7  -16.55   81.33
  19   1  -7  -65.12   48.48
  19  -1   7   35.53   43.11
  19   1   7  -90.97   46.97
 -19   1   7   14.61   51.80
 -19  -1   7  -14.82   52.06
 -19  -1   7  -34.31   94.37
 -19   1  -7   14.86   49.92
  19  -1  -7   10.32   31.45
  19   1  -7   43.67   31.29
 -19  -1  -8  -15.06   32.47
  19  -1   8  -11.22   28.71
 -19   1   8   17.26   62.95
 -19   1  -8  -16.55   67.18
  19  -1  -8   26.50   40.40
  19   1  -8  -13.08   39.87
  19  -1   8  -11.51   39.24
  19   1   8  -22.77   35.49
 -19   1   8  -29.79   51.67
 -19  -1   8   17.22   68.07
 -19  -1   8   14.87   52.93
  19  -1  -8   31.10   30.52
 -19   1  -8  -14.89   35.55
  19   1  -8   21.92   27.60
 -19  -1  -9  -15.09   29.26
  19  -1   9  -11.23   24.79
  19  -1  -9  -13.32   39.47
  19   1  -9  -26.48   42.43
 -19  -1   9  121.06   71.57
  19  -1   9   57.60   43.59
  19   1   9   57.02   41.24
 -19   1   9   14.97   52.76
 -19   1  -9  -16.57   67.81
 -19  -1   9  -44.79   52.19
  19  -1  -9   -9.95   27.61
  19   1  -9   66.03   31.30
 -19   1  -9   14.90   36.80
 -19   1 -10   29.84   35.38
 -19  -1  10  -17.37   66.38
  19  -1 -10  -40.14   39.85
  19   1 -10  -53.20   42.82
  19  -1  10  -46.14   42.55
 -19   1  10  -30.08   55.94
  19   1  10   34.20   39.77
 -19  -1  10  -14.78   50.69
  19  -1 -10  -20.00   31.35
  19   1 -10  -11.06   31.43
 -19  -1  11  -34.91   68.37
  19  -1 -11   13.50   36.98
  19   1 -11  -53.46   42.37
 -19   1  11   15.12   53.17
  19   1  11   11.43   42.11
 -19  -1  11  -14.84   52.71
  19  -1 -11   40.20   26.19
  19   1 -11   31.50   31.44
 -19  -1  12  -35.08   66.39
  19  -1 -12   13.58   35.54
  19   1 -12   13.49   43.63
 -19   1  12   15.19   54.14
 -19  -1  12   29.84   55.41
  19  -1 -12   30.32   31.03
  19   1 -12   10.55   33.48
  19  -1 -13  -13.66   35.06
  19   1 -13   40.68   37.50
 -19   1  13  -42.41   54.42
 -19  -1  13  -15.00   51.18
  19  -1 -13   30.49   28.56
  19   1 -13  -31.82   30.58
  19   1 -14  -13.64   38.63
 -19   1  14  -14.22   50.17
 -19  -1  14   45.22   53.64
  19  -1 -14  -10.22   27.39
  19   1 -14   10.67   27.29
 -19  -1  15   15.16   71.22
  19   1 -15   75.09   61.94
 -19  -2   0  -16.59   78.20
  19   2   0   34.19   43.39
  19  -2   0   63.58   52.28
  19   2   0   11.69   48.87
 -19   2   0  -29.01   56.89
 -19   2   0  -16.79   80.48
 -19  -2   0   75.31   54.99
  19  -2   0   63.95   44.40
  19   2  -1  -22.82   27.38
  19   2   1  -22.77   24.13
  19  -2  -1   25.51   38.97
 -19  -2  -1  -16.57   64.22
 -19  -2   1  -33.61   69.97
  19  -2   1  -50.75   40.90
  19   2  -1   11.71   39.64
  19   2   1  -11.68   40.27
 -19   2   1  -16.84   70.12
 -19   2   1  -14.33   48.00
 -19   2  -1   14.47   52.83
 -19   2  -1  -33.51   74.28
 -19  -2   1   14.96   40.16
 -19  -2  -1   30.10   44.89
  19  -2  -1   53.44   33.78
  19  -2   1   10.63   28.61
  19  -2   2   32.97   36.65
 -19   2  -2   16.71   71.35
  19   2  -2   11.43   30.67
  19   2   2  -11.38   32.30
 -19  -2   2   16.83   73.08
 -19  -2  -2   16.57   68.24
  19  -2  -2  -51.59   46.88
 -19   2   2  -16.89   78.87
  19  -2   2  101.27   44.60
  19   2  -2  -36.23   42.40
  19   2   2   46.71   43.86
 -19   2   2  -28.74   55.04
 -19   2  -2   28.87   45.21
 -19  -2   2  -29.95   46.74
 -19  -2  -2  -15.04   40.37
  19  -2  -2   85.78   36.57
  19  -2   3  -21.94   35.90
  19   2  -3   11.45   38.74
  19   2   3  -22.75   41.62
 -19   2  -3 -166.86   90.09
 -19  -2  -3  -33.13   75.80
 -19   2   3   16.95   75.86
  19  -2  -3   12.94   46.24
  19  -2   3  -73.37   50.59
 -19   2   3  -28.84   57.31
 -19   2  -3  -43.60   56.53
 -19  -2   3   30.01   52.96
  19  -2  -3  -40.67   38.47
 -19  -2  -3   15.06   39.72
  19  -2   4  -11.20   37.52
  19   2  -4  -22.96   37.80
  19   2   4  -45.50   42.34
 -19   2  -4 -183.26  100.18
 -19   2   4   17.01   83.46
  19  -2  -4  -12.99   47.00
  19  -2   4   12.21   47.13
  19   2   4  -91.37   57.12
 -19   2   4   28.94   55.88
 -19   2  -4  -43.55   67.55
 -19  -2   4  -14.83   53.29
  19  -2  -4   20.42   40.19
 -19  -2  -4  -15.06   37.22
 -19  -2  -5  -15.08  101.09
  19   2  -5  103.63  101.56
  19  -2   5   78.34  101.20
 -19   2  -5  -66.57  139.63
 -19   2   5   17.08  123.50
 -19  -2   5  -51.21  122.97
  19  -2  -5   78.62  106.94
  19  -2   5  304.89  111.05
  19   2  -5  263.55  111.78
  19   2   5  342.82  113.15
 -19   2   5   14.75  111.21
 -19  -2   5   74.33  109.56
 -19   2  -5   29.41  113.37
  19  -2  -5   51.25  100.18
  19   2  -6   45.15   48.31
 -19  -2  -6   15.12   50.28
  19  -2   6   44.73   49.17
 -19   2   6  -51.46   89.84
 -19  -2   6   17.12   90.03
 -19   2  -6  182.94   99.96
  19  -2  -6  -26.32   52.08
  19   2  -6   75.52   56.72
  19  -2   6   24.37   55.01
 -19   2   6   14.80   64.68
  19   2   6   34.31   56.50
 -19  -2   6  -14.91   63.55
 -19   2  -6   73.52   75.16
  19  -2  -6   78.65   51.24
  19   2  -7  -33.98   39.77
  19  -2   7  -33.54   37.32
 -19  -2  -7   15.14   39.72
 -19  -2   7  -17.18   77.61
  19  -2  -7  -66.10   44.76
 -19   2  -7 -166.27   91.40
  19   2  -7  -50.53   48.34
  19  -2   7 -109.65   48.58
 -19   2   7   14.87   59.92
  19   2   7  -57.12   47.86
 -19  -2   7  -14.96   54.47
 -19   2  -7  -14.70   59.32
  19  -2  -7  128.41   38.84
  19   2  -8   34.11   27.14
 -19  -2   8  -17.24   67.67
  19  -2   8 -122.93   29.50
  19   2  -8  -52.40   40.82
  19  -2   8   11.81   39.51
 -19   2   8   29.88   48.05
 -19   2  -8   16.62   64.80
  19   2   8   22.89   41.07
 -19  -2   8   15.01   45.23
  19  -2  -8   89.31   32.88
 -19   2  -8   44.46   41.98
  19  -2   9  -33.55   28.73
  19  -2  -9   53.61   39.71
  19   2  -9   26.30   40.82
  19  -2   9   23.63   39.15
 -19   2   9  -13.89   46.23
  19   2   9   34.39   37.68
 -19  -2   9   14.94   48.68
 -19  -2   9   17.31   66.04
  19  -2  -9    9.97   25.46
  19   2  -9  -11.41   29.28
  19  -2 -10  -26.94   70.21
  19   2 -10   79.26   74.74
 -19   2  10   69.81   79.55
 -19  -2  10  -17.38   93.43
 -19  -2  10   15.01   75.00
  19  -2 -10  160.41   72.39
  19   2 -10   66.42   69.29
  19  -2 -11  -40.64   36.52
 -19  -2  11  -17.46   68.64
  19   2 -11   26.75   40.97
 -19   2  11  -28.06   54.09
 -19  -2  11   15.07   47.64
  19  -2 -11    9.91   30.81
  19   2 -11  -11.12   31.76
 -19  -2  12  -17.54   75.41
  19  -2 -12  -27.24   50.08
  19   2 -12   53.75   57.25
 -19   2  12  -14.11   58.60
 -19  -2  12  -15.14   61.66
  19  -2 -12  129.53   47.27
  19   2 -12   33.52   48.04
 -19  -2  13  -17.63   80.43
  19   2 -13  108.06   58.76
 -19   2  13   14.19   60.29
 -19  -2  13   60.86   65.73
  19  -2 -13   40.08   49.01
  19   2 -13   33.69   51.64
  19   2 -14  -27.28   54.09
 -19  -2  14  -15.07   63.48
  19  -2 -14  110.89   49.22
  19   2 -14   22.58   46.04
  19   2 -15  -13.72   33.22
 -19  -2  15   45.45   52.39
  19   2 -15   11.35   28.15
  19   2 -16   43.15   51.91
  19   3   0  -45.85   58.94
 -19  -3   0  -16.68   77.49
 -19   3   0  -16.83   98.66
  19  -3   0  -77.04   62.38
  19   3   0 -103.56   71.86
 -19   3   0  -57.28   67.56
  19  -3   0  -20.18   54.75
 -19  -3   0   15.14   60.64
  19   3  -1   11.47   40.65
  19   3   1  -91.63   50.90
 -19   3   1  -16.89   83.37
  19  -3  -1  -12.88   48.89
  19  -3   1   64.02   51.77
  19   3  -1  -58.89   60.85
  19   3   1  -57.51   62.61
 -19   3   1  -14.36   55.23
 -19   3  -1   14.28   61.26
 -19  -3   1   16.69   75.01
 -19  -3   1   15.15   49.10
  19  -3  -1   10.12   36.11
  19  -3   1   31.94   40.27
 -19  -3  -1  -15.16   42.78
  19   3  -2  -34.46   40.30
  19   3   2  -22.90   42.22
 -19   3   2   16.94   91.61
  19  -3  -2  -12.99   48.01
  19  -3   2  -51.08   55.10
 -19   3  -2  -16.75   90.60
  19   3   2   11.50   58.65
 -19   3   2  -43.87   63.05
 -19   3  -2  -28.92   65.18
 -19  -3   2  -15.17   50.44
  19  -3  -2  -40.63   41.71
  19  -3   2  -10.62   39.95
 -19  -3  -2   15.15   41.99
 -19  -3  -3  -15.16   76.44
  19   3  -3   34.52   75.41
 -19   3   3   34.01  104.96
  19  -3  -3  130.35   82.56
  19  -3   3   25.28   84.35
  19   3   3  149.48   90.08
 -19   3   3  -14.68   87.58
 -19   3  -3  367.53  130.06
 -19   3  -3   28.85   88.21
 -19  -3   3  -15.19   77.75
  19  -3  -3  173.33   76.32
  19  -3   3   54.87   78.67
  19  -3   4  131.42  120.49
 -19  -3  -4   75.96  119.70
  19   3  -4  103.77  120.22
 -19  -3   4   16.97  143.78
  19  -3  -4   52.35  121.33
  19  -3   4   37.84  122.97
  19   3  -4  146.25  124.36
 -19   3   4   88.42  131.73
  19   3   4  263.98  128.65
 -19   3  -4  450.19  146.16
 -19  -3   4   15.10  123.00
  19  -3  -4   39.11  116.69
  19  -3   5  -10.94   32.18
 -19  -3   5  -17.01   73.07
  19   3  -5   11.56   30.92
 -19  -3  -5   15.21   32.42
  19  -3  -5  -13.14   39.92
  19  -3   5  -88.18   47.64
  19   3  -5  -61.08   43.77
 -19   3   5  -14.80   56.70
  19   3   5  -57.43   52.48
 -19   3  -5   43.50   61.63
 -19  -3   5   15.14   45.35
 -19   3  -5  -83.27  105.59
  19  -3  -5   88.37   32.30
 -19   3  -6 -116.40   88.32
  19  -3   6  -33.52   38.79
  19   3  -6   23.18   35.23
 -19  -3  -6   15.23   41.56
  19  -3  -6  -26.51   42.00
  19  -3   6   12.58   45.91
  19   3  -6   48.99   47.04
 -19   3   6  -41.25   59.13
  19   3   6   23.00   47.56
 -19  -3   6  -51.51   80.49
 -19   3  -6  -14.49   60.42
 -19  -3   6  -15.17   51.39
  19  -3  -6  207.17   42.64
  19   3  -7   81.38   33.13
  19  -3   7  -22.33   32.22
 -19   3  -7   83.08   72.27
 -19  -3   7  -86.11   69.98
  19  -3  -7   39.95   39.05
  19  -3   7   85.18   45.58
  19   3  -7  -38.02   41.85
 -19   3   7   13.82   47.98
  19   3   7   11.52   41.89
 -19  -3   7   15.22   45.15
 -19   3  -7  -44.06   52.35
  19  -3  -7   29.73   31.81
  19   3  -8   23.33   36.82
  19  -3   8   33.47   36.74
 -19  -3   8  -34.56   74.29
  19  -3  -8   13.39   42.44
  19  -3   8   36.48   45.85
  19   3  -8  -25.43   48.00
 -19   3   8  -27.76   53.12
 -19  -3   8   15.05   51.72
  19  -3  -8   88.12   38.41
  19   3  -9   22.89   54.90
 -19  -3   9   17.34   82.30
  19   3  -9  102.11   62.42
 -19   3   9   41.84   67.36
 -19  -3   9   45.30   64.37
  19  -3  -9   49.21   54.53
  19   3 -10  -11.49   26.24
  19  -3 -10  -13.53   31.99
  19   3 -10   26.48   40.13
 -19   3  10  -14.02   53.31
 -19  -3  10   45.48   45.36
  19  -3 -10    9.90   28.38
 -19  -3  10   17.41   76.01
  19   3 -11  -11.54   34.10
  19   3 -11  -39.88   48.02
 -19   3  11   13.19   49.96
 -19  -3  11  -45.66   49.43
 -19  -3  11  122.39   77.68
  19  -3 -11   79.60   34.80
  19   3 -12  -11.59   28.70
  19   3 -12   40.07   41.18
 -19  -3  12  -17.56   72.18
 -19  -3  12  -15.29   46.07
 -19  -3  13  -17.64   70.94
  19   3 -13   13.53   48.74
 -19  -3  13  -15.24   52.61
  19   3 -13   46.60   37.00
 -19  -3  14   35.46   71.18
  19   3 -14   27.20   50.41
 -19  -3  14  107.15   61.55
  19   3 -14   11.71   45.07
  19   3 -15   13.73   37.06
 -19  -3  15  -92.32   55.39
  19   3 -15  -11.36   29.56
 -19  -3  16  -15.47   56.72
  19   3 -16   45.71   40.64
 -19  -4   0   15.26   49.75
 -19   4   0 -135.18   80.41
  19  -4   0   25.88   44.27
  19   4   0  -11.59   51.23
 -19   4   0  -14.58   67.79
  19  -4   0   30.37   37.43
  19   4  -1  184.81   58.27
 -19   4  -1   33.70   94.51
  19  -4  -1   51.95   55.04
  19  -4   1   38.70   59.12
 -19   4   1   14.64   72.50
  19   4   1  -46.22   61.35
 -19   4  -1   14.33   71.00
  19  -4  -1   10.16   45.12
  19  -4   1   20.18   49.09
 -19  -4   1   15.27   55.33
 -19  -4  -2  107.00   47.13
  19   4  -2  -57.81   37.58
 -19   4  -2 -100.80   85.26
  19  -4  -2   52.14   42.36
  19  -4   2  -12.81   45.59
  19   4  -2  -92.88   54.67
 -19   4   2  -44.06   60.37
  19   4   2  -57.78   59.37
 -19   4  -2   28.57   60.17
  19  -4  -2   29.22   29.71
  19  -4   2   85.17   39.45
 -19  -4   2   15.28   37.82
 -19  -4  -3   15.30   43.13
  19   4  -3  -46.31   47.31
 -19  -4   3   16.83   80.55
 -19   4  -3  -50.27   91.93
  19  -4  -3  -39.41   46.43
  19  -4   3  -76.61   56.01
 -19   4   3  -14.74   67.28
  19   4  -3  -35.65   55.95
  19   4   3  -80.95   59.44
 -19   4  -3  -57.87   65.18
  19  -4  -3   29.34   40.43
 -19  -4   3   15.28   46.93
  19  -4   3  -21.24   43.45
  19   4  -4   11.60   28.29
 -19  -4  -4  -15.31   35.16
 -19  -4   4   16.86   72.02
 -19   4  -4  -83.62   80.40
  19  -4  -4  -52.77   40.66
  19  -4   4   38.23   43.54
 -19   4   4  -13.70   51.80
  19   4  -4  -11.91   41.27
  19   4   4  -46.29   46.41
 -19   4  -4  -28.86   57.94
  19  -4  -4   49.11   30.01
 -19  -4   4  -30.61   43.34
  19  -4   4  -63.56   36.49
  19   4  -5  -23.24   28.85
  19  -4  -5  -13.25   34.52
 -19   4  -5   50.06   66.44
  19  -4   5   12.72   38.82
 -19   4   5   13.76   46.07
  19   4  -5  -47.71   42.51
 -19  -4   5  -51.26   70.26
 -19   4  -5  -14.41   52.61
  19  -4  -5   29.09   31.27
 -19  -4   5   15.33   39.29
  19  -4   5   32.85   27.65
  19  -4   6  131.16   43.03
  19   4  -6  -11.65   38.09
 -19  -4   6   17.13   79.79
  19  -4  -6  -13.31   42.01
  19  -4   6   25.39   46.40
 -19   4  -6   16.66   71.60
 -19   4   6   13.82   53.75
  19   4  -6  -36.93   52.07
 -19   4  -6   29.02   55.30
  19  -4  -6   58.47   38.65
 -19  -4   6   15.37   52.78
  19   4  -7   23.36   29.39
  19  -4  -7   40.15   34.84
  19  -4   7   50.29   43.19
 -19   4   7  -13.89   52.10
  19   4  -7  -49.37   46.82
  19  -4  -7   58.75   33.18
 -19  -4   7   30.56   44.22
  19   4  -8  -11.72   27.61
 -19   4   8   13.06   48.09
  19   4  -8   12.38   41.92
 -19  -4   8   17.34   73.53
  19  -4  -8  -19.68   29.10
 -19  -4   8   15.32   46.79
  19   4  -9   35.27   28.02
 -19  -4   9   17.40   75.61
 -19   4   9  -13.13   49.63
  19   4  -9   64.08   48.47
 -19  -4   9   30.74   43.84
  19  -4  -9  -39.87   26.02
  19   4 -10  -11.80   55.14
 -19  -4  10  -69.85   83.55
  19   4 -10  -90.03   64.33
 -19  -4  10  -61.71   67.30
  19   4 -11  -23.69   37.24
 -19  -4  11   17.53   71.49
  19   4 -11  -38.75   43.79
 -19  -4  11  -15.49   48.09
  19   4 -12   47.59   30.92
  19   4 -12  -26.80   43.09
 -19  -4  12  -61.32   44.54
 -19  -4  12  -17.61   65.72
  19   4 -13   11.68   31.36
  19   4 -13   26.92   42.67
 -19  -4  13   17.68   74.87
 -19  -4  13  -30.79   43.17
  19   4 -14   58.68   54.20
  19   4 -14   95.43   64.37
 -19  -4  14  -17.77   72.90
 -19  -4  14   15.47   66.73
  19   4 -15  -23.59   34.78
 -19  -4  15   31.09   43.25
 -19  -5   0   30.80   27.60
  19  -5   0  -39.15   34.07
 -19   5   0  -43.98   55.22
  19  -5   0    9.71   26.97
 -19  -5   1   15.40   29.99
 -19  -5  -1   15.40   29.14
  19  -5  -1  -26.20   33.14
  19  -5   1  -13.00   32.36
 -19   5   1  -14.72   48.30
 -19   5  -1  -14.61   55.38
  19   5  -1  -11.66   40.33
  19   5   1  -34.97   39.23
  19  -5  -1   -9.75   25.48
  19  -5   1   20.27   30.60
 -19  -5   2  -15.39   32.27
  19  -5  -2   92.08   36.33
  19  -5   2  -12.91   34.68
 -19   5   2   13.67   44.87
  19   5  -2  -70.18   43.47
 -19   5  -2   14.35   50.63
  19   5   2   23.32   39.88
  19  -5  -2   48.95   30.52
  19  -5   2  -20.20   28.57
 -19  -5   3   15.41   40.61
  19   5  -3  -23.32   29.39
  19  -5  -3   13.21   33.23
  19  -5   3   64.37   41.05
 -19   5   3   13.72   52.24
  19   5  -3   93.66   45.34
 -19   5  -3  -14.31   49.81
  19  -5  -3    9.66   29.25
  19  -5   3  -10.07   28.83
  19   5  -4   35.03   26.33
 -19   5  -4  -50.37   63.16
 -19  -5   4  -50.90   65.70
  19  -5  -4   53.08   32.30
  19  -5   4  -38.52   31.81
 -19   5   4  -13.78   49.08
  19   5  -4  -46.91   36.58
 -19   5  -4  -14.28   45.95
  19  -5  -4   19.42   24.88
  19  -5   4   21.26   32.43
 -19  -5   4  -15.43   34.03
  19   5  -5  -35.09   24.35
 -19   5  -5  134.01   63.58
  19  -5   5   38.43   35.04
 -19   5   5  -12.96   46.66
  19   5  -5  -36.02   40.72
 -19   5  -5  -14.46   47.14
 -19  -5   5   67.99   67.74
  19  -5  -5    9.75   28.61
 -19  -5   5  -15.45   34.99
  19  -5   5   42.42   31.44
  19   5  -6   23.44   40.13
 -19  -5   6  -17.03   77.42
 -19   5   6  -13.02   55.52
  19   5  -6   12.03   50.62
  19  -5  -6   78.40   41.51
 -19  -5   6   15.46   48.32
  19   5  -7   35.25   29.75
 -19  -5   7   17.27   67.23
  19   5  -7  -12.06   45.31
 -19  -5   7   15.49   40.25
  19   5  -8   23.56   28.19
  19   5  -8   37.35   44.68
 -19  -5   8  -15.53   41.99
  19   5  -9   11.82   28.12
  19   5  -9   24.97   42.71
 -19  -5   9   17.48   72.17
 -19  -5   9  -15.58   42.46
  19   5 -10   11.86   27.41
 -19  -5  10  -17.54   71.22
  19   5 -10  -12.53   41.23
 -19  -5  10   15.62   43.18
  19   5 -11  -23.80   31.76
 -19  -5  11   17.60   75.44
  19   5 -11   25.95   45.93
 -19  -5  11  -77.75   52.07
  19   5 -12  -23.89   32.14
 -19  -5  12   17.67   70.71
  19   5 -12   65.14   45.30
 -19  -5  12   31.21   45.16
  19   5 -13  -35.99   34.37
  19   5 -13  -27.03   44.96
 -19  -5  13   47.02   43.83
  19   5 -14  -48.20   32.28
  19   5 -14  -13.57   38.70
  19   5 -15  -36.33   37.38
 -19  -5  15   15.81   51.01
  19  -6   0  -52.53   34.50
 -19   6   0   13.65   48.01
  19  -6   0    9.77   29.12
 -19  -6   1  -15.54   24.33
  19  -6  -1   13.18   34.40
  19  -6   1   26.17   30.23
 -19   6   1   13.71   52.72
 -19   6  -1  102.94   51.37
  19   6  -1   11.76   40.01
  19  -6  -1  -19.29   29.46
  19  -6   1    9.74   30.38
 -19  -6   2  -15.54   24.74
  19  -6   2  -26.07   33.88
 -19   6   2   13.76   50.19
 -19   6  -2   14.66   50.39
  19   6  -2  -58.83   38.98
  19  -6  -2   19.37   25.57
  19  -6   2   29.11   29.24
 -19  -6   3   15.55   33.56
  19  -6   3   25.98   38.28
 -19   6   3   12.93   47.62
  19   6  -3   58.89   44.07
 -19   6  -3   14.61   52.44
  19  -6  -3   -9.73   34.64
  19  -6   3   30.38   32.79
 -19  -6   4   15.56   26.17
  19  -6   4  -12.95   33.44
 -19   6   4  -25.98   47.58
  19   6  -4   11.82   44.67
 -19   6  -4  -14.36   50.86
  19  -6  -4    9.85   25.98
  19  -6   4  -20.19   28.95
 -19  -6   5  -15.56   51.92
  19   6  -5   71.01   55.25
 -19  -6   6   15.58   34.97
  19   6  -6  -35.57   46.29
 -19  -6   6   17.14   69.35
  19   6  -7   23.67   30.96
 -19  -6   7   51.53   78.51
  19   6  -7   24.30   44.26
 -19  -6   7  -15.61   39.28
  19   6  -8   23.72   29.03
  19   6  -8   24.36   44.76
 -19  -6   8   17.42   76.09
 -19  -6   8  -15.65   34.66
  19   6  -9  -11.89   30.50
 -19  -6   9   17.47   75.41
  19   6  -9  -50.28   44.51
 -19  -6   9   15.69   37.52
 -19  -6  10   52.55   72.01
  19   6 -10   11.93   25.17
  19   6 -10  -37.82   39.74
 -19  -6  10   15.72   37.56
  19   6 -11   23.93   28.86
  19   6 -11  -12.65   46.16
 -19  -6  11   17.69   70.44
 -19  -6  11   15.77   38.75
  19   6 -12   48.04   36.84
 -19  -6  12   17.76   68.94
  19   6 -12  -26.20   49.64
 -19  -6  12   15.82   46.26
  19   6 -13   24.12   28.90
 -19  -6  13   79.39   47.75
  19   6 -14   12.11   25.53
 -19  -6  14  -31.88   42.72
 -19   7   0   13.76   70.59
  19  -7   0   67.76   58.43
 -19   7   1   12.93   53.42
 -19   7  -1   13.71   48.29
  19  -7  -1   29.16   25.05
  19  -7   1  -19.28   25.63
 -19   7  -2  -13.67   50.05
  19  -7   2   -9.77   25.37
 -19   7  -3   29.44   62.51
  19  -7   3   29.21   38.38
 -19  -7   4  -15.70   36.94
  19   7  -4  -35.69   46.39
 -19  -7   5  -15.71   38.69
  19   7  -5  -35.82   53.47
 -19  -7   6  -15.73   28.94
  19   7  -6  -11.96   46.37
 -19  -7   7   47.27   32.01
 -19  -7   7   17.31   73.95
  19   7  -7  -23.96   39.67
 -19  -7   8  -94.71   49.98
  19   7  -8  -36.82   53.06
 -19  -7   9   47.40   35.39
 -19  -7   9  -17.39   76.88
  19   7  -9  -12.30   40.86
 -19  -7  10   31.68   40.76
 -19  -7  10   17.63   68.34
  19   7 -11   12.05   26.67
 -19  -7  11  -15.88   36.57
  19   7 -12  -24.18   32.12
 -19  -7  12  -15.94   41.25
 -19   8  -2  -27.58   58.44
  19  -8   2   29.06   33.11
 -19  -8   8   95.48   95.34
 -19  -8   9  -15.95   31.23
 -19  -8  10  -15.99   33.79
  20   0   0   23.41   32.88
 -20   0   0   52.15   73.79
  20   0   0   12.76   43.17
 -20   0   0  -15.36   46.42
  20   0  -1  -23.45   32.49
  20   0   1  -23.38   33.72
 -20   0   1  104.48   80.10
 -20   0  -1  -52.08   74.08
  20   0  -1   38.35   46.94
  20   0   1  -38.22   48.95
 -20   0   1  -30.33   48.57
 -20   0  -1  -61.36   44.28
  20   0  -2  -22.97   29.61
  20   0   2   11.67   30.08
 -20   0   2  -17.45   73.11
  20   0  -2  -12.81   35.99
  20   0   2  -24.68   36.48
 -20   0  -2   86.71   76.10
 -20   0   2   15.19   47.49
 -20   0  -2   15.32   42.98
  20   0  -3  -11.51   30.02
  20   0   3   11.66   24.65
  20   0  -3  -13.26   42.07
  20   0   3   36.99   39.22
 -20   0   3   30.45   50.57
 -20   0  -3   17.33   77.58
 -20   0  -3   15.32   42.95
 -20   0   3  -17.49   70.95
  20   0   4  -23.32   44.65
 -20   0  -4   17.20   80.74
  20   0  -4  106.40   55.58
  20   0   4  135.52   57.62
 -20   0   4   15.14   62.44
 -20   0   4   17.54   77.51
 -20   0  -4   30.88   55.64
  20   0  -4   34.63   48.15
  20   0   5  -11.66   27.31
 -20   0  -5   17.20   70.25
  20   0  -5  -13.34   42.90
  20   0   5  -12.32   41.60
 -20   0   5  -35.16   66.12
 -20   0   5   15.18   50.77
 -20   0  -5   30.88   37.53
  20   0  -5   11.17   27.17
  20   0   6  -11.66   27.33
 -20   0  -6  -17.21   74.18
  20   0   6  -59.85   42.25
 -20   0   6   60.91   51.41
 -20   0  -6  -15.47   32.57
  20   0  -6   33.64   30.05
  20   0   7  -23.33   32.69
  20   0  -7   27.07   46.56
  20   0   7  167.67   52.66
 -20   0  -7  -51.65   78.55
 -20   0   7  -15.28   51.15
  20   0  -7   11.25   36.23
 -20   0  -7   15.48   38.25
 -20   0  -8  -15.50   52.57
 -20   0  -8  -51.11   79.59
  20   0   8   59.94   59.15
 -20   0   8   15.10   67.77
  20   0  -8  101.66   53.89
 -20   0  -9  -15.54   32.93
 -20   0  -9  -85.30   69.98
  20   0   9  -12.00   41.81
 -20   0   9   15.16   57.20
  20   0  -9  -11.34   32.59
 -20   0 -10  -15.57   24.95
  20   0  10   36.07   42.78
 -20   0 -10  -17.09   71.53
  20   0  11   12.05   41.85
  20  -1   0  -11.43   29.78
 -20   1   0  -52.12   76.89
  20   1   0   35.20   29.50
  20  -1   0   78.99   44.91
  20   1   0  -12.40   45.41
 -20   1   0  -15.13   45.25
 -20  -1   0   69.67   72.37
 -20  -1   0  -15.39   44.33
  20  -1  -1  -11.45   32.76
  20  -1   1   11.67   31.16
  20   1  -1   23.50   28.44
  20   1   1  -11.72   27.33
 -20  -1  -1  -17.28   68.91
 -20   1  -1   17.35   72.32
  20  -1  -1   52.78   46.00
  20  -1   1  -12.72   39.49
  20   1  -1  -12.42   38.14
  20   1   1  -12.38   38.46
 -20  -1   1  -17.44   71.82
 -20   1   1   30.31   45.37
 -20   1  -1   15.11   44.69
 -20  -1   1   46.23   45.57
 -20   1   1   17.41   68.04
 -20  -1  -1  -15.50   40.56
  20  -1   2  -11.65   25.58
  20   1  -2  -23.54   28.01
  20   1   2  -23.42   25.71
 -20   1  -2  -17.32   70.46
 -20  -1  -2   17.27   69.34
 -20  -1   2  -17.47   68.76
  20  -1  -2  -26.44   43.23
  20  -1   2   12.71   40.32
  20   1  -2  -38.50   44.00
  20   1   2   24.75   40.90
 -20   1   2  -60.27   48.71
 -20   1   2   17.45   71.42
 -20   1  -2   15.08   40.11
 -20  -1   2   30.87   42.83
 -20  -1  -2   15.49   37.31
  20  -1  -2   34.44   32.02
  20   1  -3  -11.80   26.93
  20  -1   3   11.64   29.63
  20   1   3   58.54   28.81
 -20  -1   3   17.50   71.62
 -20   1  -3  -51.90   70.34
 -20  -1  -3 -138.09   71.07
  20  -1  -3  -26.52   42.45
  20   1  -3   12.86   45.99
  20  -1   3  -38.06   41.46
  20   1   3  -24.03   45.75
 -20   1   3  -17.49   75.53
 -20   1   3  -15.10   50.24
 -20  -1   3  -15.25   47.20
 -20   1  -3   15.29   48.88
 -20  -1  -3   15.49   38.58
  20  -1  -3  -11.11   28.78
  20   1  -4   23.11   29.56
  20  -1   4   11.63   27.25
  20   1   4   11.70   28.45
 -20  -1   4   17.55   65.99
 -20   1  -4  -86.46   78.64
 -20   1   4   17.55   63.47
  20  -1  -4  -40.22   39.92
  20   1  -4  -12.89   42.70
  20  -1   4  -25.36   42.41
  20   1   4   24.03   40.56
 -20   1   4  -15.14   43.44
 -20  -1   4   30.55   46.56
 -20  -1  -4  -17.25   70.01
 -20   1  -4   15.28   47.09
 -20  -1  -4   15.51   39.04
  20  -1  -4  -11.14   27.09
  20   1  -5   46.35   39.70
  20  -1   5   34.87   37.57
  20   1   5  -11.70   37.32
 -20  -1  -5   17.07   72.47
 -20   1   5  -70.39   77.47
  20  -1  -5  121.01   53.43
 -20   1  -5   51.85   79.08
  20  -1   5   49.15   47.27
  20   1   5   12.02   44.52
 -20   1   5   29.93   60.16
 -20  -1   5  -15.32   50.73
 -20   1  -5  -30.80   52.38
  20  -1  -5   67.06   39.88
 -20  -1  -5  -15.52   42.55
  20   1  -6  -46.48   32.33
 -20  -1  -6   15.53   32.20
  20  -1   6   46.49   29.57
 -20   1   6  -17.65   65.04
  20  -1  -6  -53.98   44.49
  20   1  -6   53.57   47.06
  20  -1   6  -61.43   43.21
  20   1   6  -36.07   40.82
 -20   1   6  -60.05   49.45
 -20  -1  -6   34.15   73.73
 -20   1  -6  -86.40   72.46
 -20  -1   6   15.36   45.39
 -20  -1   6   17.64   71.71
 -20   1  -6   15.40   39.64
  20  -1  -6   78.53   36.34
 -20  -1  -7   15.57   37.31
  20  -1   7  -11.62   32.46
  20   1  -7   40.31   46.48
 -20  -1  -7   34.18   73.23
  20  -1   7  -12.29   44.66
  20   1   7  -12.04   44.95
 -20   1   7  -30.13   59.82
 -20  -1   7  -61.11   55.04
 -20   1  -7  103.04   75.24
  20  -1  -7  106.41   38.63
 -20   1  -7  -15.41   41.51
  20   1  -7   46.64   37.06
 -20  -1  -8  -15.59   32.61
  20  -1   8  -11.63   29.62
 -20   1  -8   17.18   68.85
  20  -1   8   24.59   44.12
  20   1   8  -70.72   41.43
 -20   1   8  -15.12   53.81
 -20  -1   8  -15.33   54.94
 -20  -1  -8  -17.12   70.38
  20  -1  -8  -10.68   30.62
 -20   1  -8  -15.45   38.08
  20   1  -8  -11.30   30.76
 -20   1  -9   15.46   37.65
 -20  -1  -9   15.62   25.95
 -20   1  -9  -17.20   68.93
  20  -1   9   12.30   38.40
  20   1   9   59.03   39.17
 -20  -1   9  -15.38   49.01
  20  -1  -9  -21.45   33.49
  20   1  -9  -11.34   27.65
  20   1  10   23.65   45.03
  20   1  11   83.00   88.05
  20   2   0  -35.32   29.84
 -20  -2   0   17.35   70.49
  20  -2   0   39.50   41.62
  20   2   0   12.09   44.23
 -20   2   0  -17.39   70.63
 -20   2   0   90.09   49.39
 -20  -2   0   15.57   42.46
  20  -2   0  -11.43   32.56
  20  -2   1   22.81   32.63
  20   2  -1   11.79   32.18
  20   2   1  -23.53   30.25
 -20  -2   1   17.37   65.99
  20  -2  -1  -13.31   39.49
 -20   2   1   17.43   69.02
  20  -2   1   91.97   48.99
  20   2  -1   12.46   44.17
  20   2   1   12.08   41.88
 -20   2   1  -15.05   51.95
 -20   2  -1  -17.35   73.23
 -20   2  -1   60.43   51.68
 -20  -2  -1  -17.34   71.40
 -20  -2   1  -15.59   41.24
 -20  -2  -1   31.12   42.40
  20  -2  -1   66.35   34.19
  20  -2   2   34.15   27.44
  20   2  -2  -11.81   26.85
  20   2   2   11.76   26.18
 -20  -2  -2  -17.13   68.72
 -20   2   2  -17.47   67.26
  20  -2  -2   53.36   41.74
  20  -2   2   26.23   39.69
  20   2  -2   12.48   40.32
  20   2   2  -36.23   42.78
 -20   2   2  -45.25   50.58
 -20   2  -2  -60.34   47.66
 -20   2  -2  -17.32   67.17
 -20  -2   2  -15.48   48.37
 -20  -2   2   17.40   71.59
 -20  -2  -2   15.58   35.98
  20  -2  -2   22.18   32.44
  20  -2   3   58.15   28.28
  20   2  -3   23.66   29.27
  20   2   3  -35.28   25.34
 -20   2   3  -17.52   68.99
  20  -2  -3  -26.76   41.13
  20  -2   3  104.77   48.06
  20   2  -3  -50.01   37.62
  20   2   3   12.07   42.95
 -20  -2   3  -17.55   68.62
 -20   2   3   14.90   47.74
 -20  -2  -3   17.13   71.90
 -20   2  -3  -45.20   47.26
 -20  -2   3   15.50   42.48
  20  -2  -3   33.36   32.76
 -20  -2  -3  -15.57   36.88
 -20   2  -3  -17.30   66.72
 -20  -2  -4  -15.58   32.27
  20  -2   4  -23.24   29.43
  20   2  -4   11.86   30.47
 -20   2  -4  -69.13   76.19
 -20   2   4  -17.57   66.11
  20  -2  -4   26.83   38.39
  20  -2   4   78.51   48.80
  20   2   4  -47.25   42.15
 -20   2   4   14.94   56.38
 -20   2  -4   15.27   45.67
 -20  -2   4   15.53   47.52
 -20  -2  -4  -17.14   69.14
  20  -2  -4   52.72   30.98
 -20  -2  -5   15.61   52.45
  20   2  -5   47.53   54.46
 -20  -2  -5  -34.29   78.22
  20  -2   5   23.22   52.35
 -20   2  -5   69.08   85.52
 -20   2   5   17.63   77.28
 -20  -2   5   17.62   78.94
  20  -2  -5   94.68   57.27
  20  -2   5   75.92   62.20
  20   2  -5  103.66   64.13
  20   2   5   94.54   58.01
 -20   2   5  -14.99   69.69
 -20  -2   5   31.13   64.63
 -20   2  -5   15.26   64.29
  20  -2  -5   31.74   51.23
  20   2  -6   11.91   41.53
 -20  -2  -6   15.63   40.27
  20  -2   6   23.20   38.08
 -20  -2   6  -17.67   74.88
 -20   2  -6  138.11   85.67
  20  -2  -6  -13.57   48.90
  20   2  -6   64.95   52.15
  20  -2   6   37.94   52.16
  20   2   6  -11.83   46.41
 -20   2   6  -15.04   60.91
 -20  -2   6  -30.77   50.45
 -20   2  -6   45.76   49.16
  20  -2  -6  127.41   44.03
  20   2  -7  -35.04   32.38
 -20  -2   7   17.71   64.92
  20  -2   7  -23.20   27.92
 -20  -2  -7  -15.65   28.57
 -20   2  -7   51.78   70.78
  20  -2  -7  -40.88   33.75
  20  -2   7   75.89   44.34
  20   2   7   23.68   39.38
 -20   2   7  -45.98   56.25
 -20  -2   7  -15.43   47.98
 -20   2  -7   15.38   39.24
  20  -2  -7   85.28   33.47
  20   2  -8   35.15   38.34
  20  -2   8   11.60   35.83
 -20   2  -8  -86.33   73.34
  20  -2   8  -25.30   49.14
 -20   2   8  -15.38   57.93
  20   2   8  -35.58   48.79
 -20  -2   8   15.47   55.99
  20  -2  -8  153.31   41.70
 -20   2  -8  -15.39   47.00
  20   2  -9  -11.76   30.76
  20   2   9   47.40   40.88
 -20  -2   9  -15.53   49.33
  20   3   0  -23.67   26.48
 -20   3   0  -69.70   73.92
  20  -3   0   79.75   44.94
 -20  -3   0   17.23   74.78
  20   3   0  -48.60   46.23
 -20   3   0   15.04   51.56
  20  -3   0  -11.05   30.52
 -20  -3   0  -15.66   37.77
 -20  -3   1  -51.73   74.36
  20   3  -1   11.84   25.07
  20   3   1  -35.48   26.20
 -20   3   1   17.47   64.76
 -20  -3  -1   17.22   74.26
 -20   3  -1   17.39   70.60
  20  -3  -1  -13.33   41.15
  20  -3   1   13.26   38.63
  20   3  -1   24.32   39.59
  20   3   1   24.29   42.57
 -20   3   1   14.85   48.32
 -20   3  -1   15.01   49.79
 -20  -3   1  -15.65   42.01
  20  -3  -1   22.16   32.30
  20  -3   1   11.03   30.93
 -20  -3  -1  -15.66   35.34
 -20  -3  -2   15.65   35.96
  20   3  -2  -23.72   31.53
 -20  -3  -2   17.22   75.32
 -20   3   2   17.52   62.64
 -20   3  -2  -17.35   69.34
  20  -3  -2   26.85   39.84
  20  -3   2  -26.47   46.22
 -20  -3   2  -17.46   66.94
  20   3   2  -11.88   44.49
 -20   3   2   14.89   53.10
 -20   3  -2   44.95   52.50
 -20  -3   2  -15.67   41.97
  20  -3  -2   73.51   33.23
  20  -3   2   11.39   31.74
  20  -3   3  -34.12   28.62
 -20  -3  -3  -15.68   31.40
  20   3  -3  -23.76   32.29
  20  -3  -3  -13.47   37.13
  20  -3   3   52.84   43.34
 -20   3  -3  -17.32   71.19
  20   3   3  -47.51   42.62
 -20   3   3   14.94   55.34
 -20   3  -3  -30.17   51.39
 -20  -3   3   15.69   41.40
  20  -3  -3   84.26   32.46
  20  -3   4  -11.36   39.19
 -20  -3   4  105.11   77.40
 -20  -3  -4   15.69   34.62
  20   3  -4   23.80   33.27
  20  -3  -4   13.51   44.71
  20  -3   4   13.09   46.02
  20   3  -4   25.15   48.53
  20   3   4   83.18   49.16
 -20   3   4   15.21   58.72
 -20   3  -4   34.59   76.07
 -20   3  -4   15.06   50.26
 -20  -3   4  -31.42   46.81
  20  -3  -4   31.70   34.26
  20  -3   5   11.61   39.10
  20   3  -5  -23.85   35.72
 -20  -3  -5   15.71   41.44
  20  -3  -5   40.68   45.53
  20  -3   5   26.14   47.18
  20   3  -5  -37.80   49.18
  20   3   5   11.89   47.51
 -20   3   5   45.79   60.22
 -20  -3   5   17.67   82.88
 -20   3  -5  -17.28   69.54
 -20   3  -5  -15.05   52.71
 -20  -3   5  -15.61   54.22
  20  -3  -5  162.07   39.81
  20  -3   6   34.80   34.58
  20   3  -6  -11.95   25.81
  20  -3   6   26.12   43.71
 -20   3   6  -15.32   58.48
  20   3   6  -47.49   40.49
 -20   3  -6   15.25   43.79
 -20   3  -6 -103.61   72.73
 -20  -3   6  -15.65   40.71
  20  -3  -6   20.34   29.22
  20   3  -7   11.99   33.99
  20  -3   7   23.19   40.66
  20  -3   7   65.27   47.76
 -20   3   7  -30.76   58.43
 -20  -3   7   15.69   50.95
 -20   3  -7  -15.25   48.32
  20  -3  -7   61.25   38.83
 -20   3  -7  -34.53   76.18
  20   3  -8  -12.02   29.00
 -20  -3   8   15.73   47.03
 -20  -4   0   15.75   32.71
  20  -4   0   13.39   36.91
  20   4   0  -83.69   43.43
 -20   4   0  -14.87   53.18
  20  -4   0   10.47   30.15
 -20  -4   1  -15.75   34.94
 -20  -4  -1  -15.77   29.25
  20   4  -1  -11.91   25.98
 -20   4  -1   52.33   62.21
  20  -4  -1  -13.43   33.47
  20  -4   1   40.06   36.52
  20   4   1   11.95   40.55
 -20   4   1  -14.91   51.41
 -20   4  -1  -14.83   53.80
  20  -4  -1  -10.50   28.82
  20  -4   1  -11.05   29.00
 -20  -4  -2  -15.77   34.42
  20   4  -2   23.84   36.01
 -20   4  -2   17.40   67.95
  20  -4  -2  -53.87   42.14
  20  -4   2  -26.64   42.23
  20   4   2   11.95   45.00
 -20   4   2  -30.35   55.85
 -20   4  -2  -45.07   52.71
  20  -4  -2  -31.60   33.52
  20  -4   2  -44.10   39.06
 -20  -4   2  -31.53   40.69
 -20  -4  -3  -15.78   28.78
  20   4  -3  -11.94   24.11
 -20  -4   3   17.37   70.75
 -20   4  -3  -34.74   65.15
  20  -4  -3  -54.25   35.26
  20  -4   3  -66.18   41.28
 -20   4   3  -15.22   52.24
  20   4   3  -47.71   44.63
 -20   4  -3   74.97   47.15
  20  -4  -3   10.09   28.15
 -20  -4   3  -15.78   35.34
  20  -4   3   55.02   31.39
  20   4  -4   11.96   28.48
 -20   4  -4   17.34   66.32
  20  -4  -4   27.22   35.24
  20  -4   4  -39.64   43.34
  20   4  -4   24.55   36.82
 -20   4   4  -30.54   57.85
  20   4   4  -23.87   42.78
 -20   4  -4   14.97   55.91
  20  -4  -4  101.31   33.49
 -20  -4   4  -15.78   40.88
  20  -4   4  -22.75   29.74
  20  -4   5   45.45   36.27
  20   4  -5  -23.96   27.10
 -20   4  -5  -51.95   68.49
  20  -4  -5   40.99   38.28
  20  -4   5   26.39   40.75
 -20   4   5  -30.66   49.87
 -20   4  -5  -15.07   50.49
  20  -4  -5  -10.17   30.03
 -20  -4   5   15.81   44.26
  20  -4   6   22.70   35.37
  20   4  -6  -12.00   31.76
 -20   4  -6  -17.30   73.89
  20  -4   6   13.18   45.28
 -20   4   6  -14.24   57.05
 -20   4  -6   30.12   48.70
  20  -4  -6   40.84   33.79
 -20  -4   6   31.67   43.72
  20   4  -7  -12.04   27.44
 -20  -4   7   15.88   43.98
 -20  -5   0  -15.87   28.34
  20  -5   0  -13.49   34.60
  20  -5   0   10.51   31.76
 -20  -5   1   31.75   34.48
 -20  -5  -1  -15.87   27.62
  20  -5  -1  -13.54   33.62
  20  -5   1  -13.46   35.66
 -20   5   1   15.20   61.90
 -20   5  -1   14.89   55.45
  20  -5  -1  -10.07   32.67
  20  -5   1   62.90   30.61
 -20  -5   2   15.88   29.49
  20  -5  -2  -13.58   32.70
  20  -5   2  -26.75   31.61
 -20   5   2  -15.25   51.65
 -20   5  -2   29.72   56.87
  20  -5  -2   10.10   26.60
  20  -5   2   20.92   29.14
 -20  -5   3   31.74   34.49
  20  -5  -3  -27.26   31.64
  20  -5   3   13.34   33.31
 -20   5   3  -28.30   45.27
 -20   5  -3  -44.48   47.41
  20  -5  -3   30.42   27.93
  20  -5   3   11.04   30.35
  20   5  -4  -12.02   28.90
  20  -5  -4  -27.35   32.88
  20  -5   4  -26.63   40.83
 -20   5   4   42.61   58.05
 -20   5  -4   30.04   51.09
  20  -5  -4  -10.18   29.25
  20  -5   4  -33.05   30.88
 -20  -5   4   15.89   36.87
  20  -5   5  -13.29   52.98
 -20   5   5  -14.25   66.43
 -20   5  -5   15.00   59.85
  20  -5  -5  140.60   54.46
 -20  -5   5   31.83   56.06
  20  -5   5   22.00   48.81
  20  -6   0   13.57   35.34
 -20   6   0  -45.74   54.39
  20  -6   0   30.28   30.59
  20  -6   1   94.69   51.62
 -20   6   1  -14.15   63.51
 -20   6  -1   60.81   64.94
  20  -6  -1   50.64   50.36
  20  -6   1   20.13   50.03
  20  -6   2   13.49   48.47
 -20   6   2   85.16   66.42
 -20   6  -2  -15.16   66.76
  20  -6  -2   30.49   46.21
  20  -6   2   63.07   46.55
  20  -6   3  -26.91   32.21
 -20   6   3  -14.24   48.89
 -20   6  -3   14.90   52.41
  20  -6  -3   10.02   30.79
  20  -6   3   41.94   30.92
  20  -6   4  -26.85   38.20
 -20   6   4   14.29   51.13
  20  -6  -4   20.13   34.39
  20  -6   4   44.27   33.48
 -20   7   0  -42.61   51.10
  20  -7   0   10.16   29.39
 -20   7   1   42.75   64.31
 -20   7  -1  -15.30   66.19
  20  -7  -1   50.11   50.18
  20  -7   1   50.64   47.96
 -20   7  -2   30.52   59.54
  20  -7   2  -40.40   36.43
  21   0   2  -36.11   32.64
 -21   0  -2   31.60   51.48
  21   0   3   12.03   26.51
 -21   0  -3  -31.85   41.39
  21   0   4   12.03   26.18
 -21   0  -4  -15.92   42.19
  21   0   5  -24.05   33.45
 -21   0  -5  -15.93   46.74
  21   0   6  -24.06   29.59
 -21   0  -6   15.96   39.24
 -21   0  -7   31.94   43.83
 -21   0  -8   16.01   32.21
 -21   0  -9   32.08   40.81
 -21   0 -10  -16.06   33.15
  21  -1   1   12.03   35.06
 -21   1  -1   63.19   54.31
  21  -1   2   12.02   29.99
 -21   1  -2  -15.78   48.26
  21  -1   3   12.01   27.46
 -21   1  -3   15.78   46.84
  21  -1   4   24.01   28.79
 -21   1  -4   17.85   63.96
 -21   1  -4  -15.77   46.18
  21  -1   5   60.01   54.89
 -21   1  -5  -35.70   89.14
 -21   1  -5   63.60   66.36
  21  -1   6   24.00   33.51
 -21   1  -6   15.91   43.81
  21  -1   7   12.01   28.48
 -21   1  -7   89.31   82.92
 -21   1  -7  -15.93   39.86
  21  -1   8  -24.03   33.25
 -21   1  -8  -17.87   84.54
 -21   1  -8  -15.95   45.49
 -21   1  -9  -15.97   33.75
  21  -2   1  -23.52   37.60
 -21   2  -1  -15.58   48.37
  21  -2   2   12.02   27.14
 -21   2  -2  -31.13   48.02
  21  -2   3   12.00   35.77
 -21   2  -3   47.32   56.40
  21  -2   4  -11.99   32.12
 -21   2  -4  -15.76   46.30
 -21   2  -5  -17.84   73.11
  21  -2   5  -11.99   27.63
 -21   2  -5   15.76   45.62
  21  -2   6   11.99   30.66
 -21   2  -6   89.20   76.67
  21  -2   6   13.07   44.29
 -21   2  -6   15.89   43.01
  21  -2   7   11.98   28.70
  21  -2   7   78.41   43.36
 -21   2  -7  -15.90   47.95
  21  -2   8  -11.99   31.25
 -21   3  -1   15.48   52.19
  21  -3   1   11.77   34.62
  21  -3   2  -11.75   30.84
 -21   3  -2   15.58   49.77
  21  -3   3   11.74   35.40
 -21   3  -3   15.57   46.84
  21  -3   4  -12.00   35.50
 -21   3  -4   35.73   71.87
 -21   3  -4  -15.56   44.56
  21  -3   5  -11.99   34.23
  21  -3   5  -54.02   37.23
 -21   3  -5   53.57   78.01
 -21   3  -5   15.77   46.05
  21  -3   6  -47.95   34.40
  21  -3   6  -13.50   41.60
 -21   3  -6   63.07   44.07
 -21   4  -2   15.50   51.13
  21  -4   2  -11.37   26.69
 -21   4  -3   92.83   99.72
  21  -4   3   94.06   94.28
  21  -4   4   11.75   34.28
 -21   4  -4 -107.43   63.50
 -21   4  -4  -15.59   48.96
  21  -4   5   23.47   32.45
  21  -4   5   13.63   29.95
 -21   4  -5  -15.58   49.04
  21  -4   6  -13.62   46.91
 -21   5  -3  -31.06   51.41
  21  -5   3  -11.39   35.16
 -21   5  -4  -15.50   47.70
  21  -5   4  -11.78   34.19
   0   0   0    0.00    0.00


TITL GKME_1_ in P4/mnc
REM P4/mnc (#128 in standard setting)
CELL 0.68890  19.464504  19.464504  32.370931  90.0000  90.0000  90.0000
ZERR   16.00   0.001995   0.001995   0.005174   0.0000   0.0000   0.0000
LATT  1
SYMM -x,-y, z
SYMM -y, x, z
SYMM  y,-x, z
SYMM -x+1/2, y+1/2,-z+1/2
SYMM  x+1/2,-y+1/2,-z+1/2
SYMM  y+1/2, x+1/2,-z+1/2
SYMM -y+1/2,-x+1/2,-z+1/2
SFAC C H O Hf
UNIT 704.00 576.00 128.00 16.00
TREF
HKLF 4
END
_computing_structure_solution     'SHELXT 2014/5 (Sheldrick, 2014)'
;
_shelx_hkl_checksum              1003
_shelx_shelxl_version_number     2014/7
_olex2_submission_special_instructions 'No special instructions were received'
_oxdiff_exptl_absorpt_empirical_details
;
Empirical correction (ABSPACK) includes:
- Frame scaling
;
_oxdiff_exptl_absorpt_empirical_full_max 1.290
_oxdiff_exptl_absorpt_empirical_full_min 0.674
loop_
_space_group_symop_operation_xyz
'x, y, z'
'-x, -y, z'
'-y, x, z'
'y, -x, z'
'-x+1/2, y+1/2, -z+1/2'
'x+1/2, -y+1/2, -z+1/2'
'y+1/2, x+1/2, -z+1/2'
'-y+1/2, -x+1/2, -z+1/2'
'-x, -y, -z'
'x, y, -z'
'y, -x, -z'
'-y, x, -z'
'x-1/2, -y-1/2, z-1/2'
'-x-1/2, y-1/2, z-1/2'
'-y-1/2, -x-1/2, z-1/2'
'y-1/2, x-1/2, z-1/2'
loop_
_atom_site_label
_atom_site_type_symbol
_atom_site_fract_x
_atom_site_fract_y
_atom_site_fract_z
_atom_site_U_iso_or_equiv
_atom_site_adp_type
_atom_site_occupancy
_atom_site_site_symmetry_order
_atom_site_calc_flag
_atom_site_refinement_flags_posn
_atom_site_refinement_flags_adp
_atom_site_refinement_flags_occupancy
_atom_site_disorder_assembly
_atom_site_disorder_group
Hf1 Hf -0.0413(2) 0.12134(19) 0.0000 0.086(2) Uani 1 2 d DS TU P . .
Hf2 Hf 0.0000 0.0000 0.07607(12) 0.073(2) Uani 1 4 d DS TU P . .
O1 O -0.0174(13) 0.0932(10) 0.1099(8) 0.049(8) Uiso 1 1 d D U . . .
O4 O -0.0697(17) 0.031(2) 0.0384(11) 0.077(11) Uiso 1 1 d . U . . .
O13 O -0.0650(19) 0.163(2) 0.0601(7) 0.103(13) Uiso 1 1 d D U . . .
O19 O -0.153(2) 0.160(2) 0.0000 0.056(12) Uiso 1 2 d S TU P . .
O20 O -0.003(2) 0.228(2) 0.0000 0.071(14) Uiso 1 2 d S TU P . .
C3 C -0.0643(8) 0.3089(16) 0.1918(10) 0.065(13) Uiso 1 1 d D U . . .
C4 C -0.0815(14) 0.3235(15) 0.1502(13) 0.109(17) Uiso 1 1 d D U . . .
H4 H -0.0943 0.3676 0.1422 0.131 Uiso 1 1 calc R . . . .
C5 C -0.0786(15) 0.270(2) 0.1216(8) 0.124(19) Uiso 1 1 d D U . . .
H5 H -0.0898 0.2794 0.0942 0.149 Uiso 1 1 calc R . . . .
C6 C -0.0599(10) 0.2053(19) 0.1326(12) 0.118(17) Uiso 1 1 d D U . . .
C7 C -0.0428(14) 0.1907(14) 0.1742(14) 0.101(17) Uiso 1 1 d D U . . .
H7 H -0.0299 0.1466 0.1822 0.122 Uiso 1 1 calc R . . . .
C8 C -0.0457(14) 0.244(2) 0.2028(9) 0.101(17) Uiso 1 1 d D U . . .
H8 H -0.0345 0.2349 0.2302 0.121 Uiso 1 1 calc R . . . .
C9 C -0.0667(10) 0.3618(12) 0.2216(9) 0.065(13) Uiso 1 1 d D U . . .
C16 C -0.0156(12) 0.4114(13) 0.2184(9) 0.046(18) Uiso 0.5 1 d DG U . A -2
C15 C -0.013(2) 0.466(2) 0.2463(17) 0.05(2) Uiso 0.5 1 d DG U . A .
C15D C -0.062(3) 0.470(3) 0.278(2) 0.050 Uiso 0 1 d G . . A 3
C9D C -0.113(3) 0.420(3) 0.2807(17) 0.050 Uiso 0 1 d DG . . A 3
C10 C -0.1156(15) 0.366(2) 0.2528(12) 0.07(2) Uiso 0.5 1 d DG U . A -1
C11 C -0.1684(18) 0.315(3) 0.2561(17) 0.14(4) Uiso 0.5 1 d D U . A -1
H11A H -0.2094 0.3311 0.2427 0.213 Uiso 0.5 1 calc GR . . A -1
H11B H -0.1779 0.3062 0.2847 0.213 Uiso 0.5 1 calc GR . . A -1
H11C H -0.1532 0.2734 0.2430 0.213 Uiso 0.5 1 calc GR . . A -1
C12 C -0.0575(12) 0.1524(13) 0.1029(8) 0.084(15) Uiso 1 1 d D U . . .
C17 C 0.0347(15) 0.413(2) 0.1899(12) 0.14(3) Uiso 1 1 d D U . A -2
H H 0.0379 0.3697 0.1764 0.206 Uiso 1 1 calc GR . . . .
HA H 0.0775 0.4239 0.2032 0.206 Uiso 1 1 calc GR . . . .
HB H 0.0244 0.4483 0.1699 0.206 Uiso 1 1 calc GR . . . .
loop_
_atom_site_aniso_label
_atom_site_aniso_U_11
_atom_site_aniso_U_22
_atom_site_aniso_U_33
_atom_site_aniso_U_23
_atom_site_aniso_U_13
_atom_site_aniso_U_12
Hf1 0.116(4) 0.101(4) 0.041(2) 0.000 0.000 0.015(3)
Hf2 0.089(3) 0.089(3) 0.039(3) 0.000 0.000 0.000
loop_
_atom_type_symbol
_atom_type_description
_atom_type_scat_dispersion_real
_atom_type_scat_dispersion_imag
_atom_type_scat_source
C C 0.0030 0.0010 'International Tables Vol C Tables 4.2.6.8 and 6.1.1.4'
H H 0.0000 0.0000 'International Tables Vol C Tables 4.2.6.8 and 6.1.1.4'
Hf Hf -0.2930 6.1080 'International Tables Vol C Tables 4.2.6.8 and 6.1.1.4'
O O 0.0110 0.0060 'International Tables Vol C Tables 4.2.6.8 and 6.1.1.4'
loop_
_geom_angle_atom_site_label_1
_geom_angle_atom_site_label_2
_geom_angle_atom_site_label_3
_geom_angle
_geom_angle_site_symmetry_1
_geom_angle_site_symmetry_3
Hf1 Hf1 Hf1 90.0 3 11
Hf2 Hf1 Hf1 59.78(4) 9 3
Hf2 Hf1 Hf1 59.78(4) . 11
Hf2 Hf1 Hf1 59.78(4) 9 11
Hf2 Hf1 Hf1 59.78(4) . 3
Hf2 Hf1 Hf2 89.25(12) . 9
O4 Hf1 Hf1 35.0(9) . 3
O4 Hf1 Hf1 36.7(10) 11 11
O4 Hf1 Hf1 82.5(9) 11 3
O4 Hf1 Hf1 36.7(10) 4 11
O4 Hf1 Hf1 35.0(9) 10 3
O4 Hf1 Hf1 82.8(8) 10 11
O4 Hf1 Hf1 82.8(8) . 11
O4 Hf1 Hf1 82.5(9) 4 3
O4 Hf1 Hf2 85.3(9) 10 .
O4 Hf1 Hf2 86.6(10) 11 .
O4 Hf1 Hf2 29.7(8) 10 9
O4 Hf1 Hf2 85.3(9) . 9
O4 Hf1 Hf2 86.6(10) 4 9
O4 Hf1 Hf2 28.4(9) 4 .
O4 Hf1 Hf2 29.7(8) . .
O4 Hf1 Hf2 28.4(9) 11 9
O4 Hf1 O4 96.8(17) 4 10
O4 Hf1 O4 57.7(16) 11 10
O4 Hf1 O4 71(2) 4 11
O4 Hf1 O4 96.8(17) 11 .
O4 Hf1 O4 57.7(16) 4 .
O4 Hf1 O4 68.0(19) 10 .
O4 Hf1 O13 78.1(14) 4 .
O4 Hf1 O13 147.7(15) 4 10
O4 Hf1 O13 78.1(14) 11 10
O4 Hf1 O13 147.7(15) 11 .
O4 Hf1 O19 141.2(11) 4 .
O4 Hf1 O19 141.2(11) 11 .
O4 Hf1 O19 91.3(12) 10 .
O4 Hf1 O19 91.3(12) . .
O4 Hf1 O20 145.9(9) . .
O4 Hf1 O20 102.6(13) 4 .
O4 Hf1 O20 102.6(13) 11 .
O4 Hf1 O20 145.9(9) 10 .
O13 Hf1 Hf1 104.2(10) . 3
O13 Hf1 Hf1 111.0(10) . 11
O13 Hf1 Hf1 111.0(10) 10 11
O13 Hf1 Hf1 104.2(10) 10 3
O13 Hf1 Hf2 159.5(11) 10 .
O13 Hf1 Hf2 70.8(11) 10 9
O13 Hf1 Hf2 159.5(11) . 9
O13 Hf1 Hf2 70.8(11) . .
O13 Hf1 O4 75.1(13) . .
O13 Hf1 O4 75.1(13) 10 10
O13 Hf1 O4 138.6(14) 10 .
O13 Hf1 O4 138.6(14) . 10
O13 Hf1 O13 128(2) 10 .
O13 Hf1 O19 71.0(11) . .
O13 Hf1 O19 71.0(11) 10 .
O13 Hf1 O20 73.6(11) . .
O13 Hf1 O20 73.6(11) 10 .
O19 Hf1 Hf1 82.9(10) . 3
O19 Hf1 Hf1 172.9(10) . 11
O19 Hf1 Hf2 115.9(7) . .
O19 Hf1 Hf2 115.9(6) . 9
O20 Hf1 Hf1 173.8(12) . 3
O20 Hf1 Hf1 96.2(12) . 11
O20 Hf1 Hf2 123.7(6) . 9
O20 Hf1 Hf2 123.7(6) . .
O20 Hf1 O19 90.9(15) . .
Hf1 Hf2 Hf1 60.43(7) 9 11
Hf1 Hf2 Hf1 90.75(12) . 9
Hf1 Hf2 Hf1 60.43(7) . 11
Hf1 Hf2 Hf1 90.75(12) 3 11
Hf1 Hf2 Hf1 60.43(7) . 3
Hf1 Hf2 Hf1 60.43(7) 3 9
O1 Hf2 Hf1 164.7(7) 4 3
O1 Hf2 Hf1 164.7(7) 3 11
O1 Hf2 Hf1 116.5(7) . 3
O1 Hf2 Hf1 164.6(7) 2 .
O1 Hf2 Hf1 105.7(7) 4 9
O1 Hf2 Hf1 116.5(7) 2 11
O1 Hf2 Hf1 105.7(7) 3 .
O1 Hf2 Hf1 75.7(7) 3 3
O1 Hf2 Hf1 75.7(7) 4 11
O1 Hf2 Hf1 105.7(7) . 11
O1 Hf2 Hf1 116.5(7) 3 9
O1 Hf2 Hf1 105.7(7) 2 3
O1 Hf2 Hf1 116.5(7) 4 .
O1 Hf2 Hf1 75.7(7) 2 9
O1 Hf2 Hf1 75.7(7) . .
O1 Hf2 Hf1 164.6(7) . 9
O1 Hf2 O1 74.9(7) . 3
O1 Hf2 O1 118.6(14) . 2
O1 Hf2 O1 118.6(14) 4 3
O1 Hf2 O1 74.9(7) 3 2
O1 Hf2 O1 74.9(7) . 4
O1 Hf2 O1 74.9(7) 4 2
O4 Hf2 Hf1 35.0(11) 2 9
O4 Hf2 Hf1 31.9(11) 4 .
O4 Hf2 Hf1 35.0(11) 4 11
O4 Hf2 Hf1 87.6(11) . 11
O4 Hf2 Hf1 31.9(11) 2 11
O4 Hf2 Hf1 85.9(11) 3 11
O4 Hf2 Hf1 85.9(11) . 9
O4 Hf2 Hf1 87.6(11) 4 9
O4 Hf2 Hf1 87.6(11) 3 .
O4 Hf2 Hf1 87.6(11) 2 3
O4 Hf2 Hf1 31.9(11) 3 9
O4 Hf2 Hf1 31.9(11) . 3
O4 Hf2 Hf1 85.9(11) 4 3
O4 Hf2 Hf1 35.0(11) . .
O4 Hf2 Hf1 35.0(11) 3 3
O4 Hf2 Hf1 85.9(11) 2 .
O4 Hf2 O1 134.5(15) . 2
O4 Hf2 O1 134.5(15) 3 4
O4 Hf2 O1 77.1(14) 4 .
O4 Hf2 O1 150.6(15) . 4
O4 Hf2 O1 150.6(15) 3 .
O4 Hf2 O1 77.1(14) . 3
O4 Hf2 O1 150.6(15) 2 3
O4 Hf2 O1 77.1(14) 3 2
O4 Hf2 O1 87.0(14) . .
O4 Hf2 O1 87.0(14) 4 4
O4 Hf2 O1 87.0(14) 3 3
O4 Hf2 O1 150.6(15) 4 2
O4 Hf2 O1 134.5(15) 2 .
O4 Hf2 O1 134.5(15) 4 3
O4 Hf2 O1 87.0(14) 2 2
O4 Hf2 O1 77.1(14) 2 4
O4 Hf2 O4 66.3(11) 4 2
O4 Hf2 O4 66.3(11) 3 2
O4 Hf2 O4 101(2) . 2
O4 Hf2 O4 66.3(11) . 4
O4 Hf2 O4 101(2) 3 4
O4 Hf2 O4 66.3(11) . 3
C12 O1 Hf2 134.0(19) . .
Hf1 O4 Hf1 108.3(15) 3 .
Hf2 O4 Hf1 119.7(18) . 3
Hf2 O4 Hf1 115.3(17) . .
C12 O13 Hf1 144(3) . .
C8 C3 C4 119.8(10) . .
C8 C3 C9 120(3) . .
C9 C3 C4 120(3) . .
C3 C4 H4 120.8 . .
C5 C4 C3 118(3) . .
C5 C4 H4 120.9 . .
C4 C5 H5 118.9 . .
C6 C5 C4 122(3) . .
C6 C5 H5 119.1 . .
C5 C6 C7 119.8(10) . .
C5 C6 C12 121(3) . .
C12 C6 C7 120(3) . .
C6 C7 H7 120.8 . .
C8 C7 C6 118(3) . .
C8 C7 H7 121.0 . .
C3 C8 C7 122(3) . .
C3 C8 H8 119.1 . .
C7 C8 H8 118.9 . .
C16 C9 C3 115.6(13) . .
C10 C9 C3 124.4(13) . .
C9 C16 C15 120.0 . .
C17 C16 C9 126.4(2) . .
C17 C16 C15 113.6(2) . .
C16 C15 C15 136(2) . 2_565
C15 C15 C16 132(5) 8 .
C15 C15 C16 136(9) 7_455 .
C15 C15 C15 68(8) 7_455 2_565
C15 C15 C15 26(5) 8 2_565
C15 C15 C15 86(5) 7_455 8
C15 C15 C15D 40(10) 7_455 .
C15 C15 C15D 108(6) 8 .
C15D C15 C15 101(4) . 2_565
C15 C15D C9 130(9) 7_455 7_455
C15 C15D C9 127(2) . 7_455
C15 C15D C15 24(7) 7_455 .
C15 C15D C9D 132(4) 7_455 .
C9D C15D C9 19(3) . 7_455
C9D C15D C15 120.0 . .
C9 C9D C15D 108(5) 7_455 .
C9 C9D C10 103(6) 7_455 .
C9 C10 C11 119.9(2) . .
C9D C10 C9 120.0 . .
C10 C11 H11A 110.1 . .
C10 C11 H11B 110.5 . .
C10 C11 H11C 110.6 . .
H11A C11 H11B 108.5 . .
H11A C11 H11C 108.6 . .
H11B C11 H11C 108.5 . .
O13 C12 O1 110(3) . .
O13 C12 C6 124(3) . .
C6 C12 O1 120(3) . .
C16 C17 H 109.2 . .
C16 C17 HA 109.4 . .
C16 C17 HB 109.8 . .
H C17 HA 109.5 . .
H C17 HB 109.5 . .
HA C17 HB 109.5 . .
loop_
_geom_bond_atom_site_label_1
_geom_bond_atom_site_label_2
_geom_bond_distance
_geom_bond_site_symmetry_2
Hf1 Hf1 3.528(5) 11
Hf1 Hf1 3.528(5) 3
Hf1 Hf2 3.506(4) 9
Hf1 Hf2 3.506(4) .
Hf1 O4 2.13(4) 11
Hf1 O4 2.13(4) 4
Hf1 O4 2.22(4) .
Hf1 O4 2.22(4) 10
Hf1 O13 2.161(17) 10
Hf1 O13 2.161(17) .
Hf1 O19 2.31(4) .
Hf1 O20 2.21(5) .
Hf2 Hf1 3.506(4) 11
Hf2 Hf1 3.506(4) 9
Hf2 Hf1 3.506(4) 3
Hf2 O1 2.146(16) .
Hf2 O1 2.147(16) 4
Hf2 O1 2.147(16) 2
Hf2 O1 2.147(16) 3
Hf2 O4 1.92(3) 4
Hf2 O4 1.92(3) .
Hf2 O4 1.92(3) 3
Hf2 O4 1.92(3) 2
O1 C12 1.411(9) .
O4 Hf1 2.13(4) 3
O13 C12 1.408(9) .
C3 C4 1.42(4) .
C3 C8 1.36(4) .
C3 C9 1.411(6) .
C4 H4 0.9300 .
C4 C5 1.388(10) .
C5 H5 0.9300 .
C5 C6 1.36(4) .
C6 C7 1.42(4) .
C6 C12 1.410(6) .
C7 H7 0.9300 .
C7 C8 1.390(10) .
C8 H8 0.9300 .
C9 C16 1.3900 .
C9 C10 1.3900 .
C16 C15 1.3900 .
C16 C17 1.344(4) .
C15 C15 0.63(9) 7_455
C15 C15 1.34(5) 8
C15 C15 1.44(6) 2_565
C15 C15D 1.3900 .
C15D C9 1.64(5) 7_455
C15D C15 1.00(10) 7_455
C15D C9D 1.3900 .
C9D C9 0.55(8) 7_455
C9D C10 1.3900 .
C10 C11 1.437(4) .
C11 H11A 0.9686 .
C11 H11B 0.9689 .
C11 H11C 0.9690 .
C17 H 0.9600 .
C17 HA 0.9600 .
C17 HB 0.9600 .
loop_
_geom_torsion_atom_site_label_1
_geom_torsion_atom_site_label_2
_geom_torsion_atom_site_label_3
_geom_torsion_atom_site_label_4
_geom_torsion
_geom_torsion_site_symmetry_1
_geom_torsion_site_symmetry_4
Hf1 O13 C12 O1 3(5) . .
Hf1 O13 C12 C6 156(3) . .
Hf2 O1 C12 O13 -29(4) . .
Hf2 O1 C12 C6 177.7(16) . .
C3 C4 C5 C6 0.0(4) . .
C3 C9 C16 C15 -180(4) . .
C3 C9 C16 C17 0(4) . .
C3 C9 C10 C11 0(4) . .
C4 C3 C8 C7 0.0(3) . .
C4 C3 C9 C16 -71(2) . .
C4 C3 C9 C10 109(3) . .
C4 C5 C6 C7 0.0(3) . .
C4 C5 C6 C12 180.0(2) . .
C5 C6 C7 C8 0.0(4) . .
C5 C6 C12 O1 158(2) . .
C5 C6 C12 O13 8(3) . .
C6 C7 C8 C3 0.0(4) . .
C7 C6 C12 O1 -22(2) . .
C7 C6 C12 O13 -172(3) . .
C8 C3 C4 C5 0.0(3) . .
C8 C3 C9 C16 109(2) . .
C8 C3 C9 C10 -71(3) . .
C9 C3 C4 C5 -180.0(2) . .
C9 C3 C8 C7 -180.0(2) . .
C9 C16 C15 C15 169(6) . 8
C9 C16 C15 C15 -48(18) . 7_455
C9 C16 C15 C15 -155(9) . 2_565
C15 C15 C15D C9 107(20) 7_455 7_455
C15 C15 C15D C9 168(7) 8 7_455
C15 C15 C15D C9 142(8) 2_565 7_455
C15 C15 C15D C15 35(14) 2_565 7_455
C15 C15 C15D C15 61(13) 8 7_455
C15 C15 C15D C9D -172(4) 8 .
C15 C15 C15D C9D 163(5) 2_565 .
C15 C15 C15D C9D 127(17) 7_455 .
C15 C15D C9D C9 -117(8) . 7_455
C15 C15D C9D C9 -92(18) 7_455 7_455
C12 C6 C7 C8 -180.0(2) . .
C17 C16 C15 C15 132(18) . 7_455
C17 C16 C15 C15 -11(6) . 8
C17 C16 C15 C15 25(9) . 2_565
